
*** ChampSim Multicore Out-of-Order Simulator ***
Warmup Instructions: 0
Simulation Instructions: 9223372036854775807
Number of CPUs: 1
Page size: 2097152

Off-chip DRAM Size: 32 GiB Channels: 2 Width: 64-bit Data Rate: 4807 MT/s
Warmup finished CPU 0 instructions: 0 cycles: 1 cumulative IPC: 0 (Simulation time: 00 hr 00 min 00 sec)
Warmup complete CPU 0 instructions: 0 cycles: 1 cumulative IPC: 0 (Simulation time: 00 hr 00 min 00 sec)
Heartbeat CPU 0 instructions: 10000001 cycles: 7254397 heartbeat IPC: 1.378 cumulative IPC: 1.378 (Simulation time: 00 hr 00 min 36 sec)
Heartbeat CPU 0 instructions: 20000004 cycles: 13778083 heartbeat IPC: 1.533 cumulative IPC: 1.452 (Simulation time: 00 hr 01 min 11 sec)
Simulation finished CPU 0 instructions: 20393759 cycles: 14079155 cumulative IPC: 1.449 (Simulation time: 00 hr 01 min 12 sec)
Simulation complete CPU 0 instructions: 20393759 cycles: 14079155 cumulative IPC: 1.449 (Simulation time: 00 hr 01 min 12 sec)

ChampSim completed all CPUs

=== Simulation ===
CPU 0 runs ../start_hpca24_ae/experiments/traces/du_test.trace.xz

Region of Interest Statistics

CPU 0 cumulative IPC: 1.449 instructions: 20393759 cycles: 14079155
CPU 0 Branch Prediction Accuracy: 96.47% MPKI: 8.033 Average ROB Occupancy at Mispredict: 67.56
Branch type MPKI
BRANCH_DIRECT_JUMP: 0.0205
BRANCH_INDIRECT: 0.00966
BRANCH_CONDITIONAL: 7.769
BRANCH_DIRECT_CALL: 0.0256
BRANCH_INDIRECT_CALL: 0.005786
BRANCH_RETURN: 0.2029

cpu0->cpu0_STLB TOTAL        ACCESS:         16 HIT:          0 MISS:         16 MSHR_MERGE:          0
cpu0->cpu0_STLB LOAD         ACCESS:         16 HIT:          0 MISS:         16 MSHR_MERGE:          0
cpu0->cpu0_STLB RFO          ACCESS:          0 HIT:          0 MISS:          0 MSHR_MERGE:          0
cpu0->cpu0_STLB PREFETCH     ACCESS:          0 HIT:          0 MISS:          0 MSHR_MERGE:          0
cpu0->cpu0_STLB WRITE        ACCESS:          0 HIT:          0 MISS:          0 MSHR_MERGE:          0
cpu0->cpu0_STLB TRANSLATION  ACCESS:          0 HIT:          0 MISS:          0 MSHR_MERGE:          0
cpu0->cpu0_STLB PREFETCH REQUESTED:          0 ISSUED:          0 USEFUL:          0 USELESS:          0
cpu0->cpu0_STLB AVERAGE MISS LATENCY: 5476 cycles
cpu0->cpu0_L2C TOTAL        ACCESS:     163010 HIT:      90075 MISS:      72935 MSHR_MERGE:          0
cpu0->cpu0_L2C LOAD         ACCESS:      57989 HIT:      18650 MISS:      39339 MSHR_MERGE:          0
cpu0->cpu0_L2C RFO          ACCESS:      41780 HIT:       8204 MISS:      33576 MSHR_MERGE:          0
cpu0->cpu0_L2C PREFETCH     ACCESS:          0 HIT:          0 MISS:          0 MSHR_MERGE:          0
cpu0->cpu0_L2C WRITE        ACCESS:      63241 HIT:      63221 MISS:         20 MSHR_MERGE:          0
cpu0->cpu0_L2C TRANSLATION  ACCESS:          0 HIT:          0 MISS:          0 MSHR_MERGE:          0
cpu0->cpu0_L2C PREFETCH REQUESTED:          0 ISSUED:          0 USEFUL:          0 USELESS:          0
cpu0->cpu0_L2C AVERAGE MISS LATENCY: 54.64 cycles
cpu0->cpu0_L1I TOTAL        ACCESS:    1375427 HIT:    1373067 MISS:       2360 MSHR_MERGE:        396
cpu0->cpu0_L1I LOAD         ACCESS:    1375427 HIT:    1373067 MISS:       2360 MSHR_MERGE:        396
cpu0->cpu0_L1I RFO          ACCESS:          0 HIT:          0 MISS:          0 MSHR_MERGE:          0
cpu0->cpu0_L1I PREFETCH     ACCESS:          0 HIT:          0 MISS:          0 MSHR_MERGE:          0
cpu0->cpu0_L1I WRITE        ACCESS:          0 HIT:          0 MISS:          0 MSHR_MERGE:          0
cpu0->cpu0_L1I TRANSLATION  ACCESS:          0 HIT:          0 MISS:          0 MSHR_MERGE:          0
cpu0->cpu0_L1I PREFETCH REQUESTED:          0 ISSUED:          0 USEFUL:          0 USELESS:          0
cpu0->cpu0_L1I AVERAGE MISS LATENCY: 97.72 cycles
cpu0->cpu0_L1D TOTAL        ACCESS:    7156894 HIT:    6909258 MISS:     247636 MSHR_MERGE:     149830
cpu0->cpu0_L1D LOAD         ACCESS:    3726365 HIT:    3647106 MISS:      79259 MSHR_MERGE:      23234
cpu0->cpu0_L1D RFO          ACCESS:          0 HIT:          0 MISS:          0 MSHR_MERGE:          0
cpu0->cpu0_L1D PREFETCH     ACCESS:          0 HIT:          0 MISS:          0 MSHR_MERGE:          0
cpu0->cpu0_L1D WRITE        ACCESS:    3430529 HIT:    3262152 MISS:     168377 MSHR_MERGE:     126596
cpu0->cpu0_L1D TRANSLATION  ACCESS:          0 HIT:          0 MISS:          0 MSHR_MERGE:          0
cpu0->cpu0_L1D PREFETCH REQUESTED:          0 ISSUED:          0 USEFUL:          0 USELESS:          0
cpu0->cpu0_L1D AVERAGE MISS LATENCY: 47.7 cycles
cpu0->cpu0_ITLB TOTAL        ACCESS:    1185239 HIT:    1185234 MISS:          5 MSHR_MERGE:          2
cpu0->cpu0_ITLB LOAD         ACCESS:    1185239 HIT:    1185234 MISS:          5 MSHR_MERGE:          2
cpu0->cpu0_ITLB RFO          ACCESS:          0 HIT:          0 MISS:          0 MSHR_MERGE:          0
cpu0->cpu0_ITLB PREFETCH     ACCESS:          0 HIT:          0 MISS:          0 MSHR_MERGE:          0
cpu0->cpu0_ITLB WRITE        ACCESS:          0 HIT:          0 MISS:          0 MSHR_MERGE:          0
cpu0->cpu0_ITLB TRANSLATION  ACCESS:          0 HIT:          0 MISS:          0 MSHR_MERGE:          0
cpu0->cpu0_ITLB PREFETCH REQUESTED:          0 ISSUED:          0 USEFUL:          0 USELESS:          0
cpu0->cpu0_ITLB AVERAGE MISS LATENCY: 7854 cycles
cpu0->cpu0_DTLB TOTAL        ACCESS:    5797050 HIT:    5796980 MISS:         70 MSHR_MERGE:         57
cpu0->cpu0_DTLB LOAD         ACCESS:    5797050 HIT:    5796980 MISS:         70 MSHR_MERGE:         57
cpu0->cpu0_DTLB RFO          ACCESS:          0 HIT:          0 MISS:          0 MSHR_MERGE:          0
cpu0->cpu0_DTLB PREFETCH     ACCESS:          0 HIT:          0 MISS:          0 MSHR_MERGE:          0
cpu0->cpu0_DTLB WRITE        ACCESS:          0 HIT:          0 MISS:          0 MSHR_MERGE:          0
cpu0->cpu0_DTLB TRANSLATION  ACCESS:          0 HIT:          0 MISS:          0 MSHR_MERGE:          0
cpu0->cpu0_DTLB PREFETCH REQUESTED:          0 ISSUED:          0 USEFUL:          0 USELESS:          0
cpu0->cpu0_DTLB AVERAGE MISS LATENCY: 4934 cycles
cpu0->LLC TOTAL        ACCESS:     116643 HIT:      69419 MISS:      47224 MSHR_MERGE:          0
cpu0->LLC LOAD         ACCESS:      39339 HIT:      25087 MISS:      14252 MSHR_MERGE:          0
cpu0->LLC RFO          ACCESS:      33576 HIT:        616 MISS:      32960 MSHR_MERGE:          0
cpu0->LLC PREFETCH     ACCESS:          0 HIT:          0 MISS:          0 MSHR_MERGE:          0
cpu0->LLC WRITE        ACCESS:      43728 HIT:      43716 MISS:         12 MSHR_MERGE:          0
cpu0->LLC TRANSLATION  ACCESS:          0 HIT:          0 MISS:          0 MSHR_MERGE:          0
cpu0->LLC PREFETCH REQUESTED:          0 ISSUED:          0 USEFUL:          0 USELESS:          0
cpu0->LLC AVERAGE MISS LATENCY: 60.19 cycles

DRAM Statistics

Channel 0 RQ ROW_BUFFER_HIT:      12999
  ROW_BUFFER_MISS:      10642
  AVG DBUS CONGESTED CYCLE: 15.02
Channel 0 WQ ROW_BUFFER_HIT:       2896
  ROW_BUFFER_MISS:       2142
  FULL:          0
Channel 0 REFRESHES ISSUED:       1173

Channel 1 RQ ROW_BUFFER_HIT:      12912
  ROW_BUFFER_MISS:      10701
  AVG DBUS CONGESTED CYCLE: 15.02
Channel 1 WQ ROW_BUFFER_HIT:       2880
  ROW_BUFFER_MISS:       2132
  FULL:          0
Channel 1 REFRESHES ISSUED:       1173
