[VMEM] WARNING: physical memory size is smaller than virtual memory size.

*** ChampSim Multicore Out-of-Order Simulator ***
Warmup Instructions: 0
Simulation Instructions: 9223372036854775807
Number of CPUs: 1
Page size: 2097152

Off-chip DRAM Size: 32 GiB Channels: 2 Width: 32-bit Data Rate: 4807 MT/s
[ERROR_PAGE_MANAGER] Error latency: 1990500 
[ERROR_PAGE_MANAGER] Random seed: 54321 (fixed for preload reproducibility)
[ERROR_PAGE_MANAGER] Cycle-based error modeling enabled
[ERROR_PAGE_MANAGER] Errors per interval: 1
[ERROR_PAGE_MANAGER] Error cycle interval: 70532401 cycles

=== ERROR PAGE STATISTICS ===
Mode: CYCLE
Error Cycle Interval: 70532401 CPU cycles
Total Error Accesses: 0
==============================
Warmup finished CPU 0 instructions: 0 cycles: 1 cumulative IPC: 0 (Simulation time: 00 hr 00 min 00 sec)
Warmup complete CPU 0 instructions: 0 cycles: 1 cumulative IPC: 0 (Simulation time: 00 hr 00 min 00 sec)
Heartbeat CPU 0 instructions: 10000000 cycles: 9107852 heartbeat IPC: 1.098 cumulative IPC: 1.098 (Simulation time: 00 hr 01 min 08 sec)
Heartbeat CPU 0 instructions: 20000000 cycles: 18125790 heartbeat IPC: 1.109 cumulative IPC: 1.103 (Simulation time: 00 hr 02 min 16 sec)
Heartbeat CPU 0 instructions: 30000000 cycles: 27153857 heartbeat IPC: 1.108 cumulative IPC: 1.105 (Simulation time: 00 hr 03 min 12 sec)
Heartbeat CPU 0 instructions: 40000001 cycles: 36182064 heartbeat IPC: 1.108 cumulative IPC: 1.106 (Simulation time: 00 hr 04 min 10 sec)
Heartbeat CPU 0 instructions: 50000005 cycles: 50936044 heartbeat IPC: 0.6778 cumulative IPC: 0.9816 (Simulation time: 00 hr 05 min 41 sec)
Heartbeat CPU 0 instructions: 60000005 cycles: 69077353 heartbeat IPC: 0.5512 cumulative IPC: 0.8686 (Simulation time: 00 hr 07 min 58 sec)
[ERROR_CYCLE] Error added at CPU cycle 70532402, interval 1, pending count: 1
[DRAM_CYCLE_ERROR] Cycle-based error applied! address=0x3a3e8cc80 additional_latency=1990500 cycles
Heartbeat CPU 0 instructions: 70000008 cycles: 78095294 heartbeat IPC: 1.109 cumulative IPC: 0.8963 (Simulation time: 00 hr 09 min 06 sec)
Heartbeat CPU 0 instructions: 80000011 cycles: 87100738 heartbeat IPC: 1.11 cumulative IPC: 0.9185 (Simulation time: 00 hr 10 min 10 sec)
Heartbeat CPU 0 instructions: 90000011 cycles: 96102627 heartbeat IPC: 1.111 cumulative IPC: 0.9365 (Simulation time: 00 hr 11 min 18 sec)
Heartbeat CPU 0 instructions: 100000014 cycles: 105097566 heartbeat IPC: 1.112 cumulative IPC: 0.9515 (Simulation time: 00 hr 12 min 25 sec)
Heartbeat CPU 0 instructions: 110000014 cycles: 114094553 heartbeat IPC: 1.111 cumulative IPC: 0.9641 (Simulation time: 00 hr 13 min 33 sec)
Heartbeat CPU 0 instructions: 120000018 cycles: 125399677 heartbeat IPC: 0.8846 cumulative IPC: 0.9569 (Simulation time: 00 hr 15 min 03 sec)
[ERROR_CYCLE] Error added at CPU cycle 141064802, interval 2, pending count: 1
[DRAM_CYCLE_ERROR] Cycle-based error applied! address=0x3a3f87f40 additional_latency=1990500 cycles
Heartbeat CPU 0 instructions: 130000019 cycles: 143167061 heartbeat IPC: 0.5628 cumulative IPC: 0.908 (Simulation time: 00 hr 17 min 31 sec)
Heartbeat CPU 0 instructions: 140000019 cycles: 152173149 heartbeat IPC: 1.11 cumulative IPC: 0.92 (Simulation time: 00 hr 18 min 39 sec)
Heartbeat CPU 0 instructions: 150000019 cycles: 161172796 heartbeat IPC: 1.111 cumulative IPC: 0.9307 (Simulation time: 00 hr 19 min 47 sec)
Heartbeat CPU 0 instructions: 160000020 cycles: 170174685 heartbeat IPC: 1.111 cumulative IPC: 0.9402 (Simulation time: 00 hr 20 min 55 sec)
Heartbeat CPU 0 instructions: 170000020 cycles: 179171033 heartbeat IPC: 1.112 cumulative IPC: 0.9488 (Simulation time: 00 hr 22 min 03 sec)
Heartbeat CPU 0 instructions: 180000023 cycles: 188167896 heartbeat IPC: 1.111 cumulative IPC: 0.9566 (Simulation time: 00 hr 23 min 11 sec)
Heartbeat CPU 0 instructions: 190000026 cycles: 197167160 heartbeat IPC: 1.111 cumulative IPC: 0.9636 (Simulation time: 00 hr 24 min 19 sec)
[ERROR_CYCLE] Error added at CPU cycle 211597203, interval 3, pending count: 1
[DRAM_CYCLE_ERROR] Cycle-based error applied! address=0x3ea0f9a00 additional_latency=1990500 cycles
Heartbeat CPU 0 instructions: 200000027 cycles: 214052188 heartbeat IPC: 0.5922 cumulative IPC: 0.9344 (Simulation time: 00 hr 26 min 42 sec)
Heartbeat CPU 0 instructions: 210000029 cycles: 225989795 heartbeat IPC: 0.8377 cumulative IPC: 0.9292 (Simulation time: 00 hr 28 min 15 sec)
Heartbeat CPU 0 instructions: 220000033 cycles: 234992668 heartbeat IPC: 1.111 cumulative IPC: 0.9362 (Simulation time: 00 hr 29 min 23 sec)
Heartbeat CPU 0 instructions: 230000036 cycles: 244003214 heartbeat IPC: 1.11 cumulative IPC: 0.9426 (Simulation time: 00 hr 30 min 31 sec)
Heartbeat CPU 0 instructions: 240000039 cycles: 253004697 heartbeat IPC: 1.111 cumulative IPC: 0.9486 (Simulation time: 00 hr 31 min 39 sec)
Heartbeat CPU 0 instructions: 250000039 cycles: 262001766 heartbeat IPC: 1.111 cumulative IPC: 0.9542 (Simulation time: 00 hr 32 min 47 sec)
Heartbeat CPU 0 instructions: 260000039 cycles: 271001609 heartbeat IPC: 1.111 cumulative IPC: 0.9594 (Simulation time: 00 hr 33 min 55 sec)
[ERROR_CYCLE] Error added at CPU cycle 282129604, interval 4, pending count: 1
[DRAM_CYCLE_ERROR] Cycle-based error applied! address=0x1865e2bc8 additional_latency=1990500 cycles
Heartbeat CPU 0 instructions: 270000040 cycles: 284523253 heartbeat IPC: 0.7396 cumulative IPC: 0.949 (Simulation time: 00 hr 35 min 45 sec)
Heartbeat CPU 0 instructions: 280000044 cycles: 299679686 heartbeat IPC: 0.6598 cumulative IPC: 0.9343 (Simulation time: 00 hr 37 min 48 sec)
Heartbeat CPU 0 instructions: 290000047 cycles: 308693652 heartbeat IPC: 1.109 cumulative IPC: 0.9394 (Simulation time: 00 hr 38 min 56 sec)
Heartbeat CPU 0 instructions: 300000048 cycles: 317694102 heartbeat IPC: 1.111 cumulative IPC: 0.9443 (Simulation time: 00 hr 40 min 04 sec)
Heartbeat CPU 0 instructions: 310000050 cycles: 326696116 heartbeat IPC: 1.111 cumulative IPC: 0.9489 (Simulation time: 00 hr 41 min 12 sec)
Heartbeat CPU 0 instructions: 320000054 cycles: 335694464 heartbeat IPC: 1.111 cumulative IPC: 0.9532 (Simulation time: 00 hr 42 min 20 sec)
Heartbeat CPU 0 instructions: 330000056 cycles: 344693119 heartbeat IPC: 1.111 cumulative IPC: 0.9574 (Simulation time: 00 hr 43 min 26 sec)
[ERROR_CYCLE] Error added at CPU cycle 352662006, interval 5, pending count: 1
[DRAM_CYCLE_ERROR] Cycle-based error applied! address=0x1b71f6500 additional_latency=1990500 cycles
Heartbeat CPU 0 instructions: 340000056 cycles: 354999330 heartbeat IPC: 0.9703 cumulative IPC: 0.9577 (Simulation time: 00 hr 44 min 43 sec)
Heartbeat CPU 0 instructions: 350000056 cycles: 373233730 heartbeat IPC: 0.5484 cumulative IPC: 0.9378 (Simulation time: 00 hr 47 min 13 sec)
Heartbeat CPU 0 instructions: 360000056 cycles: 383513742 heartbeat IPC: 0.9728 cumulative IPC: 0.9387 (Simulation time: 00 hr 48 min 24 sec)
Heartbeat CPU 0 instructions: 370000058 cycles: 393788195 heartbeat IPC: 0.9733 cumulative IPC: 0.9396 (Simulation time: 00 hr 49 min 35 sec)
Heartbeat CPU 0 instructions: 380000062 cycles: 404050416 heartbeat IPC: 0.9744 cumulative IPC: 0.9405 (Simulation time: 00 hr 50 min 47 sec)
Heartbeat CPU 0 instructions: 390000062 cycles: 416524234 heartbeat IPC: 0.8017 cumulative IPC: 0.9363 (Simulation time: 00 hr 52 min 22 sec)
[ERROR_CYCLE] Error added at CPU cycle 423194407, interval 6, pending count: 1
[DRAM_CYCLE_ERROR] Cycle-based error applied! address=0x38291a040 additional_latency=1990500 cycles
Heartbeat CPU 0 instructions: 400000062 cycles: 430490984 heartbeat IPC: 0.716 cumulative IPC: 0.9292 (Simulation time: 00 hr 54 min 25 sec)
Heartbeat CPU 0 instructions: 410000062 cycles: 437224031 heartbeat IPC: 1.485 cumulative IPC: 0.9377 (Simulation time: 00 hr 55 min 36 sec)
Heartbeat CPU 0 instructions: 420000065 cycles: 444289937 heartbeat IPC: 1.415 cumulative IPC: 0.9453 (Simulation time: 00 hr 56 min 35 sec)
Heartbeat CPU 0 instructions: 430000067 cycles: 452749751 heartbeat IPC: 1.182 cumulative IPC: 0.9498 (Simulation time: 00 hr 57 min 41 sec)
Heartbeat CPU 0 instructions: 440000067 cycles: 461556312 heartbeat IPC: 1.136 cumulative IPC: 0.9533 (Simulation time: 00 hr 59 min 03 sec)
Heartbeat CPU 0 instructions: 450000067 cycles: 470015682 heartbeat IPC: 1.182 cumulative IPC: 0.9574 (Simulation time: 01 hr 00 min 29 sec)
Heartbeat CPU 0 instructions: 460000069 cycles: 478509180 heartbeat IPC: 1.177 cumulative IPC: 0.9613 (Simulation time: 01 hr 01 min 56 sec)
Heartbeat CPU 0 instructions: 470000073 cycles: 487012487 heartbeat IPC: 1.176 cumulative IPC: 0.9651 (Simulation time: 01 hr 03 min 23 sec)
[ERROR_CYCLE] Error added at CPU cycle 493726807, interval 7, pending count: 1
[DRAM_CYCLE_ERROR] Cycle-based error applied! address=0x633c54880 additional_latency=1990500 cycles
Heartbeat CPU 0 instructions: 480000074 cycles: 495618673 heartbeat IPC: 1.162 cumulative IPC: 0.9685 (Simulation time: 01 hr 04 min 50 sec)
Heartbeat CPU 0 instructions: 490000074 cycles: 504325632 heartbeat IPC: 1.149 cumulative IPC: 0.9716 (Simulation time: 01 hr 06 min 18 sec)
Heartbeat CPU 0 instructions: 500000076 cycles: 512779062 heartbeat IPC: 1.183 cumulative IPC: 0.9751 (Simulation time: 01 hr 07 min 24 sec)
Heartbeat CPU 0 instructions: 510000079 cycles: 521289890 heartbeat IPC: 1.175 cumulative IPC: 0.9783 (Simulation time: 01 hr 08 min 43 sec)
Heartbeat CPU 0 instructions: 520000083 cycles: 529841673 heartbeat IPC: 1.169 cumulative IPC: 0.9814 (Simulation time: 01 hr 09 min 42 sec)
Heartbeat CPU 0 instructions: 530000087 cycles: 538543472 heartbeat IPC: 1.149 cumulative IPC: 0.9841 (Simulation time: 01 hr 10 min 46 sec)
Heartbeat CPU 0 instructions: 540000087 cycles: 547040595 heartbeat IPC: 1.177 cumulative IPC: 0.9871 (Simulation time: 01 hr 11 min 49 sec)
Heartbeat CPU 0 instructions: 550000089 cycles: 555514769 heartbeat IPC: 1.18 cumulative IPC: 0.9901 (Simulation time: 01 hr 13 min 10 sec)
Heartbeat CPU 0 instructions: 560000093 cycles: 564059031 heartbeat IPC: 1.17 cumulative IPC: 0.9928 (Simulation time: 01 hr 14 min 37 sec)
[ERROR_CYCLE] Error added at CPU cycle 564259208, interval 8, pending count: 1
[DRAM_CYCLE_ERROR] Cycle-based error applied! address=0xc2dffc0 additional_latency=1990500 cycles
Heartbeat CPU 0 instructions: 570000097 cycles: 572615383 heartbeat IPC: 1.169 cumulative IPC: 0.9954 (Simulation time: 01 hr 16 min 03 sec)
Heartbeat CPU 0 instructions: 580000100 cycles: 581416247 heartbeat IPC: 1.136 cumulative IPC: 0.9976 (Simulation time: 01 hr 17 min 32 sec)
Heartbeat CPU 0 instructions: 590000101 cycles: 589787666 heartbeat IPC: 1.195 cumulative IPC: 1 (Simulation time: 01 hr 18 min 58 sec)
Heartbeat CPU 0 instructions: 600000105 cycles: 598314367 heartbeat IPC: 1.173 cumulative IPC: 1.003 (Simulation time: 01 hr 20 min 24 sec)
Heartbeat CPU 0 instructions: 610000107 cycles: 605209822 heartbeat IPC: 1.45 cumulative IPC: 1.008 (Simulation time: 01 hr 21 min 38 sec)
Heartbeat CPU 0 instructions: 620000108 cycles: 611920982 heartbeat IPC: 1.49 cumulative IPC: 1.013 (Simulation time: 01 hr 22 min 50 sec)
Heartbeat CPU 0 instructions: 630000109 cycles: 618616609 heartbeat IPC: 1.494 cumulative IPC: 1.018 (Simulation time: 01 hr 23 min 49 sec)
Heartbeat CPU 0 instructions: 640000109 cycles: 625321561 heartbeat IPC: 1.491 cumulative IPC: 1.023 (Simulation time: 01 hr 24 min 38 sec)
Heartbeat CPU 0 instructions: 650000113 cycles: 631839828 heartbeat IPC: 1.534 cumulative IPC: 1.029 (Simulation time: 01 hr 25 min 29 sec)
[ERROR_CYCLE] Error added at CPU cycle 634791609, interval 9, pending count: 1
[DRAM_CYCLE_ERROR] Cycle-based error applied! address=0x5f839eb00 additional_latency=1990500 cycles
Heartbeat CPU 0 instructions: 660000113 cycles: 638311238 heartbeat IPC: 1.545 cumulative IPC: 1.034 (Simulation time: 01 hr 26 min 18 sec)
Heartbeat CPU 0 instructions: 670000114 cycles: 644780604 heartbeat IPC: 1.546 cumulative IPC: 1.039 (Simulation time: 01 hr 27 min 09 sec)
Heartbeat CPU 0 instructions: 680000114 cycles: 652090395 heartbeat IPC: 1.368 cumulative IPC: 1.043 (Simulation time: 01 hr 28 min 25 sec)
Heartbeat CPU 0 instructions: 690000115 cycles: 659528040 heartbeat IPC: 1.345 cumulative IPC: 1.046 (Simulation time: 01 hr 29 min 43 sec)
Heartbeat CPU 0 instructions: 700000115 cycles: 665974276 heartbeat IPC: 1.551 cumulative IPC: 1.051 (Simulation time: 01 hr 30 min 40 sec)
Heartbeat CPU 0 instructions: 710000117 cycles: 673045626 heartbeat IPC: 1.414 cumulative IPC: 1.055 (Simulation time: 01 hr 31 min 29 sec)
Heartbeat CPU 0 instructions: 720000119 cycles: 681845558 heartbeat IPC: 1.136 cumulative IPC: 1.056 (Simulation time: 01 hr 32 min 29 sec)
Heartbeat CPU 0 instructions: 730000120 cycles: 690320795 heartbeat IPC: 1.18 cumulative IPC: 1.057 (Simulation time: 01 hr 33 min 29 sec)
Heartbeat CPU 0 instructions: 740000123 cycles: 698815306 heartbeat IPC: 1.177 cumulative IPC: 1.059 (Simulation time: 01 hr 34 min 32 sec)
[ERROR_CYCLE] Error added at CPU cycle 705324011, interval 10, pending count: 1
[DRAM_CYCLE_ERROR] Cycle-based error applied! address=0x6fac49c0 additional_latency=1990500 cycles
Heartbeat CPU 0 instructions: 750000124 cycles: 707341772 heartbeat IPC: 1.173 cumulative IPC: 1.06 (Simulation time: 01 hr 35 min 31 sec)
Heartbeat CPU 0 instructions: 760000124 cycles: 715895341 heartbeat IPC: 1.169 cumulative IPC: 1.062 (Simulation time: 01 hr 36 min 26 sec)
Heartbeat CPU 0 instructions: 770000125 cycles: 724669118 heartbeat IPC: 1.14 cumulative IPC: 1.063 (Simulation time: 01 hr 37 min 22 sec)
Heartbeat CPU 0 instructions: 780000128 cycles: 733022953 heartbeat IPC: 1.197 cumulative IPC: 1.064 (Simulation time: 01 hr 38 min 21 sec)
Heartbeat CPU 0 instructions: 790000129 cycles: 741527369 heartbeat IPC: 1.176 cumulative IPC: 1.065 (Simulation time: 01 hr 39 min 17 sec)
Heartbeat CPU 0 instructions: 800000129 cycles: 750074730 heartbeat IPC: 1.17 cumulative IPC: 1.067 (Simulation time: 01 hr 40 min 14 sec)
Heartbeat CPU 0 instructions: 810000131 cycles: 758750029 heartbeat IPC: 1.153 cumulative IPC: 1.068 (Simulation time: 01 hr 41 min 39 sec)
Heartbeat CPU 0 instructions: 820000134 cycles: 767246160 heartbeat IPC: 1.177 cumulative IPC: 1.069 (Simulation time: 01 hr 43 min 05 sec)
Heartbeat CPU 0 instructions: 830000138 cycles: 775742087 heartbeat IPC: 1.177 cumulative IPC: 1.07 (Simulation time: 01 hr 44 min 10 sec)
[ERROR_CYCLE] Error added at CPU cycle 775856412, interval 11, pending count: 1
[DRAM_CYCLE_ERROR] Cycle-based error applied! address=0x434c8c5c0 additional_latency=1990500 cycles
Heartbeat CPU 0 instructions: 840000141 cycles: 784255170 heartbeat IPC: 1.175 cumulative IPC: 1.071 (Simulation time: 01 hr 45 min 20 sec)
Heartbeat CPU 0 instructions: 850000141 cycles: 792761401 heartbeat IPC: 1.176 cumulative IPC: 1.072 (Simulation time: 01 hr 46 min 46 sec)
Heartbeat CPU 0 instructions: 860000145 cycles: 801577541 heartbeat IPC: 1.134 cumulative IPC: 1.073 (Simulation time: 01 hr 48 min 15 sec)
Heartbeat CPU 0 instructions: 870000148 cycles: 809921856 heartbeat IPC: 1.198 cumulative IPC: 1.074 (Simulation time: 01 hr 49 min 40 sec)
Heartbeat CPU 0 instructions: 880000152 cycles: 818426345 heartbeat IPC: 1.176 cumulative IPC: 1.075 (Simulation time: 01 hr 50 min 44 sec)
Heartbeat CPU 0 instructions: 890000155 cycles: 826913768 heartbeat IPC: 1.178 cumulative IPC: 1.076 (Simulation time: 01 hr 51 min 53 sec)
Heartbeat CPU 0 instructions: 900000156 cycles: 835546838 heartbeat IPC: 1.158 cumulative IPC: 1.077 (Simulation time: 01 hr 53 min 19 sec)
Heartbeat CPU 0 instructions: 910000156 cycles: 844099872 heartbeat IPC: 1.169 cumulative IPC: 1.078 (Simulation time: 01 hr 54 min 45 sec)
[ERROR_CYCLE] Error added at CPU cycle 846388812, interval 12, pending count: 1
[DRAM_CYCLE_ERROR] Cycle-based error applied! address=0x27bff26d0 additional_latency=1990500 cycles
Heartbeat CPU 0 instructions: 920000159 cycles: 852609512 heartbeat IPC: 1.175 cumulative IPC: 1.079 (Simulation time: 01 hr 56 min 11 sec)
Heartbeat CPU 0 instructions: 930000159 cycles: 861109565 heartbeat IPC: 1.176 cumulative IPC: 1.08 (Simulation time: 01 hr 57 min 37 sec)
Heartbeat CPU 0 instructions: 940000161 cycles: 869619186 heartbeat IPC: 1.175 cumulative IPC: 1.081 (Simulation time: 01 hr 58 min 56 sec)
Heartbeat CPU 0 instructions: 950000161 cycles: 878459617 heartbeat IPC: 1.131 cumulative IPC: 1.081 (Simulation time: 02 hr 00 min 14 sec)
Heartbeat CPU 0 instructions: 960000163 cycles: 886887743 heartbeat IPC: 1.187 cumulative IPC: 1.082 (Simulation time: 02 hr 01 min 34 sec)
Heartbeat CPU 0 instructions: 970000164 cycles: 895424008 heartbeat IPC: 1.171 cumulative IPC: 1.083 (Simulation time: 02 hr 02 min 59 sec)
Heartbeat CPU 0 instructions: 980000165 cycles: 903970974 heartbeat IPC: 1.17 cumulative IPC: 1.084 (Simulation time: 02 hr 04 min 03 sec)
Heartbeat CPU 0 instructions: 990000165 cycles: 912583104 heartbeat IPC: 1.161 cumulative IPC: 1.085 (Simulation time: 02 hr 05 min 28 sec)
[ERROR_CYCLE] Error added at CPU cycle 916921213, interval 13, pending count: 1
[DRAM_CYCLE_ERROR] Cycle-based error applied! address=0xa83ab1c0 additional_latency=1990500 cycles
Heartbeat CPU 0 instructions: 1000000165 cycles: 921226798 heartbeat IPC: 1.157 cumulative IPC: 1.086 (Simulation time: 02 hr 06 min 53 sec)
Heartbeat CPU 0 instructions: 1010000167 cycles: 929673563 heartbeat IPC: 1.184 cumulative IPC: 1.086 (Simulation time: 02 hr 08 min 17 sec)
Heartbeat CPU 0 instructions: 1020000171 cycles: 938169540 heartbeat IPC: 1.177 cumulative IPC: 1.087 (Simulation time: 02 hr 09 min 42 sec)
Heartbeat CPU 0 instructions: 1030000174 cycles: 946637275 heartbeat IPC: 1.181 cumulative IPC: 1.088 (Simulation time: 02 hr 11 min 07 sec)
Heartbeat CPU 0 instructions: 1040000174 cycles: 955393110 heartbeat IPC: 1.142 cumulative IPC: 1.089 (Simulation time: 02 hr 12 min 33 sec)
Heartbeat CPU 0 instructions: 1050000178 cycles: 963855356 heartbeat IPC: 1.182 cumulative IPC: 1.089 (Simulation time: 02 hr 13 min 59 sec)
Heartbeat CPU 0 instructions: 1060000182 cycles: 972371666 heartbeat IPC: 1.174 cumulative IPC: 1.09 (Simulation time: 02 hr 15 min 26 sec)
Heartbeat CPU 0 instructions: 1070000182 cycles: 980866884 heartbeat IPC: 1.177 cumulative IPC: 1.091 (Simulation time: 02 hr 16 min 43 sec)
[ERROR_CYCLE] Error added at CPU cycle 987453615, interval 14, pending count: 1
[DRAM_CYCLE_ERROR] Cycle-based error applied! address=0x4f39c8400 additional_latency=1990500 cycles
Heartbeat CPU 0 instructions: 1080000186 cycles: 989438387 heartbeat IPC: 1.167 cumulative IPC: 1.092 (Simulation time: 02 hr 17 min 51 sec)
Heartbeat CPU 0 instructions: 1090000187 cycles: 998243698 heartbeat IPC: 1.136 cumulative IPC: 1.092 (Simulation time: 02 hr 19 min 17 sec)
Heartbeat CPU 0 instructions: 1100000190 cycles: 1006655872 heartbeat IPC: 1.189 cumulative IPC: 1.093 (Simulation time: 02 hr 20 min 42 sec)
Heartbeat CPU 0 instructions: 1110000190 cycles: 1015179391 heartbeat IPC: 1.173 cumulative IPC: 1.093 (Simulation time: 02 hr 22 min 09 sec)
Heartbeat CPU 0 instructions: 1120000190 cycles: 1023718122 heartbeat IPC: 1.171 cumulative IPC: 1.094 (Simulation time: 02 hr 23 min 37 sec)
Heartbeat CPU 0 instructions: 1130000190 cycles: 1032442042 heartbeat IPC: 1.146 cumulative IPC: 1.094 (Simulation time: 02 hr 25 min 05 sec)
Heartbeat CPU 0 instructions: 1140000194 cycles: 1040975851 heartbeat IPC: 1.172 cumulative IPC: 1.095 (Simulation time: 02 hr 26 min 32 sec)
Heartbeat CPU 0 instructions: 1150000194 cycles: 1049510662 heartbeat IPC: 1.172 cumulative IPC: 1.096 (Simulation time: 02 hr 27 min 30 sec)
[ERROR_CYCLE] Error added at CPU cycle 1057986016, interval 15, pending count: 1
[DRAM_CYCLE_ERROR] Cycle-based error applied! address=0x7d562df80 additional_latency=1990500 cycles
Heartbeat CPU 0 instructions: 1160000197 cycles: 1058031796 heartbeat IPC: 1.174 cumulative IPC: 1.096 (Simulation time: 02 hr 28 min 32 sec)
Heartbeat CPU 0 instructions: 1170000199 cycles: 1066611625 heartbeat IPC: 1.166 cumulative IPC: 1.097 (Simulation time: 02 hr 29 min 57 sec)
Heartbeat CPU 0 instructions: 1180000199 cycles: 1075456342 heartbeat IPC: 1.131 cumulative IPC: 1.097 (Simulation time: 02 hr 31 min 25 sec)
Heartbeat CPU 0 instructions: 1190000199 cycles: 1083891369 heartbeat IPC: 1.186 cumulative IPC: 1.098 (Simulation time: 02 hr 32 min 49 sec)
Heartbeat CPU 0 instructions: 1200000203 cycles: 1092410755 heartbeat IPC: 1.174 cumulative IPC: 1.098 (Simulation time: 02 hr 34 min 13 sec)
Heartbeat CPU 0 instructions: 1210000203 cycles: 1100986257 heartbeat IPC: 1.166 cumulative IPC: 1.099 (Simulation time: 02 hr 35 min 38 sec)
Heartbeat CPU 0 instructions: 1220000204 cycles: 1109682300 heartbeat IPC: 1.15 cumulative IPC: 1.099 (Simulation time: 02 hr 37 min 03 sec)
Heartbeat CPU 0 instructions: 1230000208 cycles: 1118289822 heartbeat IPC: 1.162 cumulative IPC: 1.1 (Simulation time: 02 hr 38 min 28 sec)
Heartbeat CPU 0 instructions: 1240000209 cycles: 1126832324 heartbeat IPC: 1.171 cumulative IPC: 1.1 (Simulation time: 02 hr 39 min 53 sec)
[ERROR_CYCLE] Error added at CPU cycle 1128518416, interval 16, pending count: 1
[DRAM_CYCLE_ERROR] Cycle-based error applied! address=0x75c07a200 additional_latency=1990500 cycles
Heartbeat CPU 0 instructions: 1250000210 cycles: 1135382724 heartbeat IPC: 1.17 cumulative IPC: 1.101 (Simulation time: 02 hr 41 min 18 sec)
Heartbeat CPU 0 instructions: 1260000214 cycles: 1143934544 heartbeat IPC: 1.169 cumulative IPC: 1.101 (Simulation time: 02 hr 42 min 42 sec)
Heartbeat CPU 0 instructions: 1270000214 cycles: 1152763535 heartbeat IPC: 1.133 cumulative IPC: 1.102 (Simulation time: 02 hr 44 min 09 sec)
Heartbeat CPU 0 instructions: 1280000218 cycles: 1161184661 heartbeat IPC: 1.187 cumulative IPC: 1.102 (Simulation time: 02 hr 45 min 33 sec)
Heartbeat CPU 0 instructions: 1290000218 cycles: 1169690304 heartbeat IPC: 1.176 cumulative IPC: 1.103 (Simulation time: 02 hr 47 min 01 sec)
Heartbeat CPU 0 instructions: 1300000218 cycles: 1178226583 heartbeat IPC: 1.171 cumulative IPC: 1.103 (Simulation time: 02 hr 48 min 29 sec)
Heartbeat CPU 0 instructions: 1310000222 cycles: 1186833552 heartbeat IPC: 1.162 cumulative IPC: 1.104 (Simulation time: 02 hr 49 min 47 sec)
Heartbeat CPU 0 instructions: 1320000222 cycles: 1195492919 heartbeat IPC: 1.155 cumulative IPC: 1.104 (Simulation time: 02 hr 51 min 16 sec)
[ERROR_CYCLE] Error added at CPU cycle 1199050817, interval 17, pending count: 1
[DRAM_CYCLE_ERROR] Cycle-based error applied! address=0xa8386bc0 additional_latency=1990500 cycles
Heartbeat CPU 0 instructions: 1330000224 cycles: 1203954830 heartbeat IPC: 1.182 cumulative IPC: 1.105 (Simulation time: 02 hr 52 min 44 sec)
Heartbeat CPU 0 instructions: 1340000225 cycles: 1212484900 heartbeat IPC: 1.172 cumulative IPC: 1.105 (Simulation time: 02 hr 54 min 12 sec)
Heartbeat CPU 0 instructions: 1350000227 cycles: 1220960830 heartbeat IPC: 1.18 cumulative IPC: 1.106 (Simulation time: 02 hr 55 min 40 sec)
Heartbeat CPU 0 instructions: 1360000231 cycles: 1229740087 heartbeat IPC: 1.139 cumulative IPC: 1.106 (Simulation time: 02 hr 57 min 09 sec)
Heartbeat CPU 0 instructions: 1370000231 cycles: 1238181751 heartbeat IPC: 1.185 cumulative IPC: 1.106 (Simulation time: 02 hr 58 min 36 sec)
Heartbeat CPU 0 instructions: 1380000232 cycles: 1246688236 heartbeat IPC: 1.176 cumulative IPC: 1.107 (Simulation time: 03 hr 00 min 04 sec)
Heartbeat CPU 0 instructions: 1390000232 cycles: 1255167269 heartbeat IPC: 1.179 cumulative IPC: 1.107 (Simulation time: 03 hr 01 min 31 sec)
Heartbeat CPU 0 instructions: 1400000232 cycles: 1263726426 heartbeat IPC: 1.168 cumulative IPC: 1.108 (Simulation time: 03 hr 02 min 59 sec)
[ERROR_CYCLE] Error added at CPU cycle 1269583218, interval 18, pending count: 1
[DRAM_CYCLE_ERROR] Cycle-based error applied! address=0x77bd1c440 additional_latency=1990500 cycles
Heartbeat CPU 0 instructions: 1410000234 cycles: 1272455908 heartbeat IPC: 1.146 cumulative IPC: 1.108 (Simulation time: 03 hr 04 min 28 sec)
Heartbeat CPU 0 instructions: 1420000234 cycles: 1280854792 heartbeat IPC: 1.191 cumulative IPC: 1.109 (Simulation time: 03 hr 05 min 50 sec)
Heartbeat CPU 0 instructions: 1430000235 cycles: 1289328624 heartbeat IPC: 1.18 cumulative IPC: 1.109 (Simulation time: 03 hr 06 min 53 sec)
Heartbeat CPU 0 instructions: 1440000238 cycles: 1297858678 heartbeat IPC: 1.172 cumulative IPC: 1.11 (Simulation time: 03 hr 07 min 55 sec)
Heartbeat CPU 0 instructions: 1450000241 cycles: 1304247432 heartbeat IPC: 1.565 cumulative IPC: 1.112 (Simulation time: 03 hr 08 min 42 sec)
Heartbeat CPU 0 instructions: 1460000242 cycles: 1310667955 heartbeat IPC: 1.558 cumulative IPC: 1.114 (Simulation time: 03 hr 09 min 28 sec)
Heartbeat CPU 0 instructions: 1470000245 cycles: 1317104641 heartbeat IPC: 1.554 cumulative IPC: 1.116 (Simulation time: 03 hr 10 min 16 sec)
Heartbeat CPU 0 instructions: 1480000245 cycles: 1323515259 heartbeat IPC: 1.56 cumulative IPC: 1.118 (Simulation time: 03 hr 11 min 18 sec)
Heartbeat CPU 0 instructions: 1490000249 cycles: 1329943950 heartbeat IPC: 1.556 cumulative IPC: 1.12 (Simulation time: 03 hr 12 min 28 sec)
Heartbeat CPU 0 instructions: 1500000249 cycles: 1336354057 heartbeat IPC: 1.56 cumulative IPC: 1.122 (Simulation time: 03 hr 13 min 38 sec)
[ERROR_CYCLE] Error added at CPU cycle 1340115620, interval 19, pending count: 1
[DRAM_CYCLE_ERROR] Cycle-based error applied! address=0xa83ab2c0 additional_latency=1990500 cycles
Heartbeat CPU 0 instructions: 1510000250 cycles: 1342805484 heartbeat IPC: 1.55 cumulative IPC: 1.125 (Simulation time: 03 hr 14 min 48 sec)
Heartbeat CPU 0 instructions: 1520000253 cycles: 1349228050 heartbeat IPC: 1.557 cumulative IPC: 1.127 (Simulation time: 03 hr 15 min 57 sec)
Heartbeat CPU 0 instructions: 1530000253 cycles: 1355669116 heartbeat IPC: 1.553 cumulative IPC: 1.129 (Simulation time: 03 hr 17 min 03 sec)
Heartbeat CPU 0 instructions: 1540000253 cycles: 1362084821 heartbeat IPC: 1.559 cumulative IPC: 1.131 (Simulation time: 03 hr 17 min 56 sec)
Heartbeat CPU 0 instructions: 1550000256 cycles: 1368526097 heartbeat IPC: 1.552 cumulative IPC: 1.133 (Simulation time: 03 hr 18 min 43 sec)
Heartbeat CPU 0 instructions: 1560000257 cycles: 1374930474 heartbeat IPC: 1.561 cumulative IPC: 1.135 (Simulation time: 03 hr 19 min 34 sec)
Heartbeat CPU 0 instructions: 1570000261 cycles: 1381294990 heartbeat IPC: 1.571 cumulative IPC: 1.137 (Simulation time: 03 hr 20 min 41 sec)
Heartbeat CPU 0 instructions: 1580000263 cycles: 1387281018 heartbeat IPC: 1.671 cumulative IPC: 1.139 (Simulation time: 03 hr 21 min 40 sec)
Heartbeat CPU 0 instructions: 1590000263 cycles: 1393603656 heartbeat IPC: 1.582 cumulative IPC: 1.141 (Simulation time: 03 hr 22 min 40 sec)
Heartbeat CPU 0 instructions: 1600000263 cycles: 1400001537 heartbeat IPC: 1.563 cumulative IPC: 1.143 (Simulation time: 03 hr 23 min 41 sec)
Heartbeat CPU 0 instructions: 1610000265 cycles: 1406423192 heartbeat IPC: 1.557 cumulative IPC: 1.145 (Simulation time: 03 hr 24 min 38 sec)
[ERROR_CYCLE] Error added at CPU cycle 1410648021, interval 20, pending count: 1
[DRAM_CYCLE_ERROR] Cycle-based error applied! address=0x77bd7c740 additional_latency=1990500 cycles
Heartbeat CPU 0 instructions: 1620000266 cycles: 1412844831 heartbeat IPC: 1.557 cumulative IPC: 1.147 (Simulation time: 03 hr 25 min 25 sec)
Heartbeat CPU 0 instructions: 1630000267 cycles: 1419268171 heartbeat IPC: 1.557 cumulative IPC: 1.148 (Simulation time: 03 hr 26 min 27 sec)
Heartbeat CPU 0 instructions: 1640000271 cycles: 1425707667 heartbeat IPC: 1.553 cumulative IPC: 1.15 (Simulation time: 03 hr 27 min 37 sec)
Heartbeat CPU 0 instructions: 1650000273 cycles: 1432117545 heartbeat IPC: 1.56 cumulative IPC: 1.152 (Simulation time: 03 hr 28 min 31 sec)
Heartbeat CPU 0 instructions: 1660000274 cycles: 1438527197 heartbeat IPC: 1.56 cumulative IPC: 1.154 (Simulation time: 03 hr 29 min 22 sec)
Heartbeat CPU 0 instructions: 1670000278 cycles: 1444944636 heartbeat IPC: 1.558 cumulative IPC: 1.156 (Simulation time: 03 hr 30 min 19 sec)
Heartbeat CPU 0 instructions: 1680000279 cycles: 1451375425 heartbeat IPC: 1.555 cumulative IPC: 1.158 (Simulation time: 03 hr 31 min 29 sec)
Heartbeat CPU 0 instructions: 1690000280 cycles: 1457777986 heartbeat IPC: 1.562 cumulative IPC: 1.159 (Simulation time: 03 hr 32 min 39 sec)
Heartbeat CPU 0 instructions: 1700000280 cycles: 1464215931 heartbeat IPC: 1.553 cumulative IPC: 1.161 (Simulation time: 03 hr 33 min 49 sec)
Heartbeat CPU 0 instructions: 1710000280 cycles: 1470639418 heartbeat IPC: 1.557 cumulative IPC: 1.163 (Simulation time: 03 hr 34 min 58 sec)
Heartbeat CPU 0 instructions: 1720000280 cycles: 1476834147 heartbeat IPC: 1.614 cumulative IPC: 1.165 (Simulation time: 03 hr 36 min 06 sec)
[ERROR_CYCLE] Error added at CPU cycle 1481180421, interval 21, pending count: 1
[DRAM_CYCLE_ERROR] Cycle-based error applied! address=0x608b1bb40 additional_latency=1990500 cycles
Heartbeat CPU 0 instructions: 1730000280 cycles: 1482867462 heartbeat IPC: 1.657 cumulative IPC: 1.167 (Simulation time: 03 hr 37 min 12 sec)
Heartbeat CPU 0 instructions: 1740000280 cycles: 1489295141 heartbeat IPC: 1.556 cumulative IPC: 1.168 (Simulation time: 03 hr 38 min 21 sec)
Heartbeat CPU 0 instructions: 1750000283 cycles: 1495693702 heartbeat IPC: 1.563 cumulative IPC: 1.17 (Simulation time: 03 hr 39 min 31 sec)
Heartbeat CPU 0 instructions: 1760000284 cycles: 1502112502 heartbeat IPC: 1.558 cumulative IPC: 1.172 (Simulation time: 03 hr 40 min 32 sec)
Heartbeat CPU 0 instructions: 1770000288 cycles: 1508528977 heartbeat IPC: 1.558 cumulative IPC: 1.173 (Simulation time: 03 hr 41 min 29 sec)
Heartbeat CPU 0 instructions: 1780000289 cycles: 1514960236 heartbeat IPC: 1.555 cumulative IPC: 1.175 (Simulation time: 03 hr 42 min 24 sec)
Heartbeat CPU 0 instructions: 1790000291 cycles: 1521367396 heartbeat IPC: 1.561 cumulative IPC: 1.177 (Simulation time: 03 hr 43 min 20 sec)
Heartbeat CPU 0 instructions: 1800000291 cycles: 1527792134 heartbeat IPC: 1.556 cumulative IPC: 1.178 (Simulation time: 03 hr 44 min 20 sec)
Heartbeat CPU 0 instructions: 1810000291 cycles: 1534225936 heartbeat IPC: 1.554 cumulative IPC: 1.18 (Simulation time: 03 hr 45 min 10 sec)
Heartbeat CPU 0 instructions: 1820000294 cycles: 1540643873 heartbeat IPC: 1.558 cumulative IPC: 1.181 (Simulation time: 03 hr 46 min 04 sec)
Heartbeat CPU 0 instructions: 1830000297 cycles: 1547071329 heartbeat IPC: 1.556 cumulative IPC: 1.183 (Simulation time: 03 hr 47 min 14 sec)
[ERROR_CYCLE] Error added at CPU cycle 1551712822, interval 22, pending count: 1
[DRAM_CYCLE_ERROR] Cycle-based error applied! address=0x78ebca480 additional_latency=1990500 cycles
Heartbeat CPU 0 instructions: 1840000298 cycles: 1553490425 heartbeat IPC: 1.558 cumulative IPC: 1.184 (Simulation time: 03 hr 48 min 25 sec)
Heartbeat CPU 0 instructions: 1850000300 cycles: 1559918564 heartbeat IPC: 1.556 cumulative IPC: 1.186 (Simulation time: 03 hr 49 min 35 sec)
Heartbeat CPU 0 instructions: 1860000300 cycles: 1566370767 heartbeat IPC: 1.55 cumulative IPC: 1.187 (Simulation time: 03 hr 50 min 46 sec)
Heartbeat CPU 0 instructions: 1870000300 cycles: 1572405207 heartbeat IPC: 1.657 cumulative IPC: 1.189 (Simulation time: 03 hr 51 min 53 sec)
Heartbeat CPU 0 instructions: 1880000300 cycles: 1578595521 heartbeat IPC: 1.615 cumulative IPC: 1.191 (Simulation time: 03 hr 53 min 01 sec)
Heartbeat CPU 0 instructions: 1890000302 cycles: 1584999856 heartbeat IPC: 1.561 cumulative IPC: 1.192 (Simulation time: 03 hr 54 min 02 sec)
Heartbeat CPU 0 instructions: 1900000302 cycles: 1591415376 heartbeat IPC: 1.559 cumulative IPC: 1.194 (Simulation time: 03 hr 54 min 51 sec)
Heartbeat CPU 0 instructions: 1910000302 cycles: 1597829211 heartbeat IPC: 1.559 cumulative IPC: 1.195 (Simulation time: 03 hr 56 min 02 sec)
Heartbeat CPU 0 instructions: 1920000303 cycles: 1604250033 heartbeat IPC: 1.557 cumulative IPC: 1.197 (Simulation time: 03 hr 57 min 13 sec)
Heartbeat CPU 0 instructions: 1930000307 cycles: 1610663787 heartbeat IPC: 1.559 cumulative IPC: 1.198 (Simulation time: 03 hr 58 min 23 sec)
Heartbeat CPU 0 instructions: 1940000308 cycles: 1617112929 heartbeat IPC: 1.551 cumulative IPC: 1.2 (Simulation time: 03 hr 59 min 34 sec)
[ERROR_CYCLE] Error added at CPU cycle 1622245223, interval 23, pending count: 1
[DRAM_CYCLE_ERROR] Cycle-based error applied! address=0x2dcf13dc0 additional_latency=1990500 cycles
Heartbeat CPU 0 instructions: 1950000308 cycles: 1623536656 heartbeat IPC: 1.557 cumulative IPC: 1.201 (Simulation time: 04 hr 00 min 45 sec)
Heartbeat CPU 0 instructions: 1960000310 cycles: 1629973443 heartbeat IPC: 1.554 cumulative IPC: 1.202 (Simulation time: 04 hr 01 min 56 sec)
Heartbeat CPU 0 instructions: 1970000311 cycles: 1636388577 heartbeat IPC: 1.559 cumulative IPC: 1.204 (Simulation time: 04 hr 03 min 07 sec)
Heartbeat CPU 0 instructions: 1980000312 cycles: 1642819935 heartbeat IPC: 1.555 cumulative IPC: 1.205 (Simulation time: 04 hr 04 min 12 sec)
Heartbeat CPU 0 instructions: 1990000313 cycles: 1649237480 heartbeat IPC: 1.558 cumulative IPC: 1.207 (Simulation time: 04 hr 05 min 20 sec)

=== ERROR PAGE STATISTICS ===
Mode: CYCLE
Error Cycle Interval: 70532401 CPU cycles
Total Error Accesses: 23
==============================
Simulation finished CPU 0 instructions: 1999999509 cycles: 1655656695 cumulative IPC: 1.208 (Simulation time: 04 hr 06 min 30 sec)
Simulation complete CPU 0 instructions: 1999999509 cycles: 1655656695 cumulative IPC: 1.208 (Simulation time: 04 hr 06 min 30 sec)

ChampSim completed all CPUs

=== Simulation ===
CPU 0 runs test_traces/654.roms_s-1007B.champsimtrace.xz

Region of Interest Statistics

CPU 0 cumulative IPC: 1.208 instructions: 1999999509 cycles: 1655656695
CPU 0 Branch Prediction Accuracy: 95.85% MPKI: 3.086 Average ROB Occupancy at Mispredict: 45.56
Branch type MPKI
BRANCH_DIRECT_JUMP: 9.8e-05
BRANCH_INDIRECT: 6e-06
BRANCH_CONDITIONAL: 1.593
BRANCH_DIRECT_CALL: 3.65e-05
BRANCH_INDIRECT_CALL: 0
BRANCH_RETURN: 1.493

cpu0->cpu0_STLB TOTAL        ACCESS:   39022120 HIT:   39021240 MISS:        880 MSHR_MERGE:          0
cpu0->cpu0_STLB LOAD         ACCESS:   39022120 HIT:   39021240 MISS:        880 MSHR_MERGE:          0
cpu0->cpu0_STLB RFO          ACCESS:          0 HIT:          0 MISS:          0 MSHR_MERGE:          0
cpu0->cpu0_STLB PREFETCH     ACCESS:          0 HIT:          0 MISS:          0 MSHR_MERGE:          0
cpu0->cpu0_STLB WRITE        ACCESS:          0 HIT:          0 MISS:          0 MSHR_MERGE:          0
cpu0->cpu0_STLB TRANSLATION  ACCESS:          0 HIT:          0 MISS:          0 MSHR_MERGE:          0
cpu0->cpu0_STLB PREFETCH REQUESTED:          0 ISSUED:          0 USEFUL:          0 USELESS:          0
cpu0->cpu0_STLB AVERAGE MISS LATENCY: 8723 cycles
cpu0->cpu0_L2C TOTAL        ACCESS:   35187634 HIT:   15858679 MISS:   19328955 MSHR_MERGE:          0
cpu0->cpu0_L2C LOAD         ACCESS:   22563463 HIT:    7672158 MISS:   14891305 MSHR_MERGE:          0
cpu0->cpu0_L2C RFO          ACCESS:    5289508 HIT:     857685 MISS:    4431823 MSHR_MERGE:          0
cpu0->cpu0_L2C PREFETCH     ACCESS:          0 HIT:          0 MISS:          0 MSHR_MERGE:          0
cpu0->cpu0_L2C WRITE        ACCESS:    7334663 HIT:    7328836 MISS:       5827 MSHR_MERGE:          0
cpu0->cpu0_L2C TRANSLATION  ACCESS:          0 HIT:          0 MISS:          0 MSHR_MERGE:          0
cpu0->cpu0_L2C PREFETCH REQUESTED:          0 ISSUED:          0 USEFUL:          0 USELESS:          0
cpu0->cpu0_L2C AVERAGE MISS LATENCY: 59.4 cycles
cpu0->cpu0_L1I TOTAL        ACCESS:  419287699 HIT:  419287099 MISS:        600 MSHR_MERGE:        187
cpu0->cpu0_L1I LOAD         ACCESS:  419287699 HIT:  419287099 MISS:        600 MSHR_MERGE:        187
cpu0->cpu0_L1I RFO          ACCESS:          0 HIT:          0 MISS:          0 MSHR_MERGE:          0
cpu0->cpu0_L1I PREFETCH     ACCESS:          0 HIT:          0 MISS:          0 MSHR_MERGE:          0
cpu0->cpu0_L1I WRITE        ACCESS:          0 HIT:          0 MISS:          0 MSHR_MERGE:          0
cpu0->cpu0_L1I TRANSLATION  ACCESS:          0 HIT:          0 MISS:          0 MSHR_MERGE:          0
cpu0->cpu0_L1I PREFETCH REQUESTED:          0 ISSUED:          0 USEFUL:          0 USELESS:          0
cpu0->cpu0_L1I AVERAGE MISS LATENCY: 117.3 cycles
cpu0->cpu0_L1D TOTAL        ACCESS:  768721677 HIT:  729927348 MISS:   38794329 MSHR_MERGE:   10941240
cpu0->cpu0_L1D LOAD         ACCESS:  587642520 HIT:  557873339 MISS:   29769181 MSHR_MERGE:    7206122
cpu0->cpu0_L1D RFO          ACCESS:          0 HIT:          0 MISS:          0 MSHR_MERGE:          0
cpu0->cpu0_L1D PREFETCH     ACCESS:          0 HIT:          0 MISS:          0 MSHR_MERGE:          0
cpu0->cpu0_L1D WRITE        ACCESS:  181079157 HIT:  172054009 MISS:    9025148 MSHR_MERGE:    3735118
cpu0->cpu0_L1D TRANSLATION  ACCESS:          0 HIT:          0 MISS:          0 MSHR_MERGE:          0
cpu0->cpu0_L1D PREFETCH REQUESTED:          0 ISSUED:          0 USEFUL:          0 USELESS:          0
cpu0->cpu0_L1D AVERAGE MISS LATENCY: 49.96 cycles
cpu0->cpu0_ITLB TOTAL        ACCESS:  364604932 HIT:  364604931 MISS:          1 MSHR_MERGE:          0
cpu0->cpu0_ITLB LOAD         ACCESS:  364604932 HIT:  364604931 MISS:          1 MSHR_MERGE:          0
cpu0->cpu0_ITLB RFO          ACCESS:          0 HIT:          0 MISS:          0 MSHR_MERGE:          0
cpu0->cpu0_ITLB PREFETCH     ACCESS:          0 HIT:          0 MISS:          0 MSHR_MERGE:          0
cpu0->cpu0_ITLB WRITE        ACCESS:          0 HIT:          0 MISS:          0 MSHR_MERGE:          0
cpu0->cpu0_ITLB TRANSLATION  ACCESS:          0 HIT:          0 MISS:          0 MSHR_MERGE:          0
cpu0->cpu0_ITLB PREFETCH REQUESTED:          0 ISSUED:          0 USEFUL:          0 USELESS:          0
cpu0->cpu0_ITLB AVERAGE MISS LATENCY: 1.722e+04 cycles
cpu0->cpu0_DTLB TOTAL        ACCESS:  653326066 HIT:  614285424 MISS:   39040642 MSHR_MERGE:      18523
cpu0->cpu0_DTLB LOAD         ACCESS:  653326066 HIT:  614285424 MISS:   39040642 MSHR_MERGE:      18523
cpu0->cpu0_DTLB RFO          ACCESS:          0 HIT:          0 MISS:          0 MSHR_MERGE:          0
cpu0->cpu0_DTLB PREFETCH     ACCESS:          0 HIT:          0 MISS:          0 MSHR_MERGE:          0
cpu0->cpu0_DTLB WRITE        ACCESS:          0 HIT:          0 MISS:          0 MSHR_MERGE:          0
cpu0->cpu0_DTLB TRANSLATION  ACCESS:          0 HIT:          0 MISS:          0 MSHR_MERGE:          0
cpu0->cpu0_DTLB PREFETCH REQUESTED:          0 ISSUED:          0 USEFUL:          0 USELESS:          0
cpu0->cpu0_DTLB AVERAGE MISS LATENCY: 5.22 cycles
cpu0->LLC TOTAL        ACCESS:   25251977 HIT:   16383794 MISS:    8868183 MSHR_MERGE:          0
cpu0->LLC LOAD         ACCESS:   14891305 HIT:    7671958 MISS:    7219347 MSHR_MERGE:          0
cpu0->LLC RFO          ACCESS:    4431823 HIT:    2788305 MISS:    1643518 MSHR_MERGE:          0
cpu0->LLC PREFETCH     ACCESS:          0 HIT:          0 MISS:          0 MSHR_MERGE:          0
cpu0->LLC WRITE        ACCESS:    5928849 HIT:    5923531 MISS:       5318 MSHR_MERGE:          0
cpu0->LLC TRANSLATION  ACCESS:          0 HIT:          0 MISS:          0 MSHR_MERGE:          0
cpu0->LLC PREFETCH REQUESTED:          0 ISSUED:          0 USEFUL:          0 USELESS:          0
cpu0->LLC AVERAGE MISS LATENCY: 95.77 cycles

DRAM Statistics

Channel 0 RQ ROW_BUFFER_HIT:      80786
  ROW_BUFFER_MISS:    4350687
  AVG DBUS CONGESTED CYCLE: 11.47
Channel 0 WQ ROW_BUFFER_HIT:     181159
  ROW_BUFFER_MISS:     676674
  FULL:          0
Channel 0 REFRESHES ISSUED:     137962

Channel 1 RQ ROW_BUFFER_HIT:      80510
  ROW_BUFFER_MISS:    4352511
  AVG DBUS CONGESTED CYCLE: 11.47
Channel 1 WQ ROW_BUFFER_HIT:     181133
  ROW_BUFFER_MISS:     677497
  FULL:          0
Channel 1 REFRESHES ISSUED:     137962
