
*** ChampSim Multicore Out-of-Order Simulator ***
Warmup Instructions: 0
Simulation Instructions: 9223372036854775807
Number of CPUs: 1
Page size: 1048576

Off-chip DRAM Size: 32 GiB Channels: 2 Width: 32-bit Data Rate: 4807 MT/s
[ERROR_PAGE_MANAGER] Error latency: 2459910500 
[ERROR_PAGE_MANAGER] Random seed: 54321 (fixed for preload reproducibility)
[ERROR_PAGE_MANAGER] Cycle-based error modeling enabled
[ERROR_PAGE_MANAGER] Errors per interval: 1
[ERROR_PAGE_MANAGER] Error cycle interval: 705324015 cycles

=== ERROR PAGE STATISTICS ===
Mode: CYCLE
Error Cycle Interval: 705324015 CPU cycles
Total Error Accesses: 0
==============================
Warmup finished CPU 0 instructions: 0 cycles: 1 cumulative IPC: 0 (Simulation time: 00 hr 00 min 00 sec)
Warmup complete CPU 0 instructions: 0 cycles: 1 cumulative IPC: 0 (Simulation time: 00 hr 00 min 00 sec)
Simulation CPU 0 panic: IPC 0 < 0.01
Simulation CPU 0 panic: IPC 2e-07 < 0.01
Simulation CPU 0 panic: IPC 0 < 0.01
Simulation CPU 0 panic: IPC 2.1e-06 < 0.01
Simulation CPU 0 panic: IPC 0 < 0.01
Simulation CPU 0 panic: IPC 6.51e-05 < 0.01
Simulation CPU 0 warning: IPC 0.027624 < 0.05
Simulation CPU 0 warning: IPC 0.030096 < 0.05
Simulation CPU 0 warning: IPC 0.027793 < 0.05
Simulation CPU 0 warning: IPC 0.030094 < 0.05
Simulation CPU 0 warning: IPC 0.030096 < 0.05
Simulation CPU 0 critical: IPC 0.014829 < 0.02
Heartbeat CPU 0 instructions: 10000004 cycles: 174055162 heartbeat IPC: 0.05745 cumulative IPC: 0.05745 (Simulation time: 00 hr 16 min 52 sec)
Simulation CPU 0 warning: IPC 0.030342 < 0.05
Simulation CPU 0 warning: IPC 0.030075 < 0.05
Simulation CPU 0 panic: IPC 0.0033524 < 0.01
Simulation CPU 0 warning: IPC 0.047441 < 0.05
Simulation CPU 0 critical: IPC 0.015478 < 0.02
Heartbeat CPU 0 instructions: 20000004 cycles: 246422685 heartbeat IPC: 0.1382 cumulative IPC: 0.08116 (Simulation time: 00 hr 25 min 03 sec)
Simulation CPU 0 warning: IPC 0.024204 < 0.05
Simulation CPU 0 panic: IPC 0.0034267 < 0.01
Simulation CPU 0 warning: IPC 0.030094 < 0.05
Simulation CPU 0 panic: IPC 0.0061594 < 0.01
Simulation CPU 0 warning: IPC 0.030106 < 0.05
Simulation CPU 0 warning: IPC 0.030105 < 0.05
Simulation CPU 0 critical: IPC 0.014809 < 0.02
Heartbeat CPU 0 instructions: 30000004 cycles: 355761476 heartbeat IPC: 0.09146 cumulative IPC: 0.08433 (Simulation time: 00 hr 36 min 21 sec)
Simulation CPU 0 warning: IPC 0.030332 < 0.05
Simulation CPU 0 warning: IPC 0.030105 < 0.05
Simulation CPU 0 warning: IPC 0.021388 < 0.05
Simulation CPU 0 warning: IPC 0.027624 < 0.05
Simulation CPU 0 warning: IPC 0.030096 < 0.05
Simulation CPU 0 warning: IPC 0.024204 < 0.05
Heartbeat CPU 0 instructions: 40000008 cycles: 446567016 heartbeat IPC: 0.1101 cumulative IPC: 0.08957 (Simulation time: 00 hr 46 min 15 sec)
Simulation CPU 0 warning: IPC 0.030094 < 0.05
Simulation CPU 0 critical: IPC 0.014829 < 0.02
Heartbeat CPU 0 instructions: 50000009 cycles: 509693849 heartbeat IPC: 0.1584 cumulative IPC: 0.0981 (Simulation time: 00 hr 52 min 36 sec)
Simulation CPU 0 warning: IPC 0.036956 < 0.05
Simulation CPU 0 warning: IPC 0.023472 < 0.05
Simulation CPU 0 warning: IPC 0.027634 < 0.05
Simulation CPU 0 warning: IPC 0.030094 < 0.05
Simulation CPU 0 panic: IPC 0.0025701 < 0.01
Heartbeat CPU 0 instructions: 60000010 cycles: 600981648 heartbeat IPC: 0.1095 cumulative IPC: 0.09984 (Simulation time: 01 hr 00 min 58 sec)
Simulation CPU 0 warning: IPC 0.030105 < 0.05
Simulation CPU 0 warning: IPC 0.030096 < 0.05
Simulation CPU 0 critical: IPC 0.014818 < 0.02
Heartbeat CPU 0 instructions: 70000013 cycles: 654989257 heartbeat IPC: 0.1852 cumulative IPC: 0.1069 (Simulation time: 01 hr 05 min 31 sec)
Simulation CPU 0 warning: IPC 0.030096 < 0.05
Simulation CPU 0 critical: IPC 0.017811 < 0.02
[ERROR_CYCLE] Error added at CPU cycle 705324016, interval 1, pending count: 1
[DRAM_CYCLE_ERROR] Cycle-based error applied! address=0x686e00000 additional_latency=2459910500 cycles
Simulation CPU 0 panic: IPC 0 < 0.01
Simulation CPU 0 warning: IPC 0.027603 < 0.05
Simulation CPU 0 warning: IPC 0.030106 < 0.05
Simulation CPU 0 warning: IPC 0.020625 < 0.05
Heartbeat CPU 0 instructions: 80000013 cycles: 746634320 heartbeat IPC: 0.1091 cumulative IPC: 0.1071 (Simulation time: 01 hr 15 min 33 sec)
Simulation CPU 0 warning: IPC 0.030096 < 0.05
Simulation CPU 0 warning: IPC 0.030093 < 0.05
Heartbeat CPU 0 instructions: 90000014 cycles: 800561256 heartbeat IPC: 0.1854 cumulative IPC: 0.1124 (Simulation time: 01 hr 21 min 57 sec)
Simulation CPU 0 panic: IPC 0.0038374 < 0.01
Simulation CPU 0 warning: IPC 0.027624 < 0.05
Simulation CPU 0 warning: IPC 0.029085 < 0.05
Heartbeat CPU 0 instructions: 100000015 cycles: 891426830 heartbeat IPC: 0.1101 cumulative IPC: 0.1122 (Simulation time: 01 hr 31 min 46 sec)
Simulation CPU 0 warning: IPC 0.030105 < 0.05
Simulation CPU 0 warning: IPC 0.030086 < 0.05
Heartbeat CPU 0 instructions: 110000018 cycles: 945431666 heartbeat IPC: 0.1852 cumulative IPC: 0.1163 (Simulation time: 01 hr 37 min 31 sec)
Simulation CPU 0 warning: IPC 0.030096 < 0.05
Simulation CPU 0 critical: IPC 0.014219 < 0.02
Simulation CPU 0 warning: IPC 0.027613 < 0.05
Simulation CPU 0 warning: IPC 0.030105 < 0.05
Simulation CPU 0 critical: IPC 0.017035 < 0.02
Heartbeat CPU 0 instructions: 120000022 cycles: 1027237118 heartbeat IPC: 0.1222 cumulative IPC: 0.1168 (Simulation time: 01 hr 46 min 19 sec)
Simulation CPU 0 warning: IPC 0.030106 < 0.05
Simulation CPU 0 warning: IPC 0.030105 < 0.05
Simulation CPU 0 warning: IPC 0.039022 < 0.05
Simulation CPU 0 warning: IPC 0.029823 < 0.05
Simulation CPU 0 warning: IPC 0.0348 < 0.05
Simulation CPU 0 panic: IPC 0.0074264 < 0.01
Heartbeat CPU 0 instructions: 130000024 cycles: 1118363047 heartbeat IPC: 0.1097 cumulative IPC: 0.1162 (Simulation time: 01 hr 56 min 44 sec)
Simulation CPU 0 warning: IPC 0.027624 < 0.05
Simulation CPU 0 warning: IPC 0.025496 < 0.05
Heartbeat CPU 0 instructions: 140000025 cycles: 1172692771 heartbeat IPC: 0.1841 cumulative IPC: 0.1194 (Simulation time: 02 hr 02 min 54 sec)
Simulation CPU 0 warning: IPC 0.030084 < 0.05
Simulation CPU 0 warning: IPC 0.030105 < 0.05
Simulation CPU 0 warning: IPC 0.030321 < 0.05
Simulation CPU 0 warning: IPC 0.030106 < 0.05
Simulation CPU 0 critical: IPC 0.01063 < 0.02
Heartbeat CPU 0 instructions: 150000028 cycles: 1264136037 heartbeat IPC: 0.1094 cumulative IPC: 0.1187 (Simulation time: 02 hr 12 min 05 sec)
Simulation CPU 0 warning: IPC 0.027613 < 0.05
Simulation CPU 0 warning: IPC 0.030106 < 0.05
Simulation CPU 0 critical: IPC 0.013446 < 0.02
Heartbeat CPU 0 instructions: 160000029 cycles: 1318181868 heartbeat IPC: 0.185 cumulative IPC: 0.1214 (Simulation time: 02 hr 17 min 28 sec)
Simulation CPU 0 warning: IPC 0.030105 < 0.05
Simulation CPU 0 warning: IPC 0.030096 < 0.05
Simulation CPU 0 warning: IPC 0.047359 < 0.05
Heartbeat CPU 0 instructions: 170000032 cycles: 1390550547 heartbeat IPC: 0.1382 cumulative IPC: 0.1223 (Simulation time: 02 hr 24 min 45 sec)
[ERROR_CYCLE] Error added at CPU cycle 1410648031, interval 2, pending count: 1
[DRAM_CYCLE_ERROR] Cycle-based error applied! address=0x524c00000 additional_latency=2459910500 cycles
Simulation CPU 0 panic: IPC 0 < 0.01
Simulation CPU 0 warning: IPC 0.027615 < 0.05
Simulation CPU 0 warning: IPC 0.021916 < 0.05
Simulation CPU 0 panic: IPC 0.0081894 < 0.01
Heartbeat CPU 0 instructions: 180000035 cycles: 1464197230 heartbeat IPC: 0.1358 cumulative IPC: 0.1229 (Simulation time: 02 hr 33 min 00 sec)
Simulation CPU 0 warning: IPC 0.030085 < 0.05
Simulation CPU 0 warning: IPC 0.030105 < 0.05
Simulation CPU 0 warning: IPC 0.030323 < 0.05
Simulation CPU 0 warning: IPC 0.030094 < 0.05
Simulation CPU 0 panic: IPC 0.0070504 < 0.01
Heartbeat CPU 0 instructions: 190000037 cycles: 1555418854 heartbeat IPC: 0.1096 cumulative IPC: 0.1222 (Simulation time: 02 hr 42 min 29 sec)
Simulation CPU 0 warning: IPC 0.027613 < 0.05
Simulation CPU 0 warning: IPC 0.030096 < 0.05
Simulation CPU 0 panic: IPC 0.0098667 < 0.01
Heartbeat CPU 0 instructions: 200000039 cycles: 1618956635 heartbeat IPC: 0.1574 cumulative IPC: 0.1235 (Simulation time: 02 hr 49 min 13 sec)
Simulation CPU 0 warning: IPC 0.030106 < 0.05
Simulation CPU 0 warning: IPC 0.030096 < 0.05
Simulation CPU 0 warning: IPC 0.025095 < 0.05
Heartbeat CPU 0 instructions: 210000042 cycles: 1701032777 heartbeat IPC: 0.1218 cumulative IPC: 0.1235 (Simulation time: 02 hr 57 min 54 sec)
Simulation CPU 0 warning: IPC 0.027634 < 0.05
Simulation CPU 0 warning: IPC 0.030105 < 0.05
Simulation CPU 0 warning: IPC 0.030094 < 0.05
Simulation CPU 0 warning: IPC 0.030105 < 0.05
Heartbeat CPU 0 instructions: 220000046 cycles: 1782633814 heartbeat IPC: 0.1225 cumulative IPC: 0.1234 (Simulation time: 03 hr 05 min 44 sec)
Simulation CPU 0 warning: IPC 0.030094 < 0.05
Simulation CPU 0 panic: IPC 0.0034614 < 0.01
Heartbeat CPU 0 instructions: 230000048 cycles: 1836498555 heartbeat IPC: 0.1857 cumulative IPC: 0.1252 (Simulation time: 03 hr 11 min 08 sec)
Simulation CPU 0 warning: IPC 0.027634 < 0.05
Simulation CPU 0 warning: IPC 0.030075 < 0.05
Simulation CPU 0 panic: IPC 0.0062872 < 0.01
Simulation CPU 0 warning: IPC 0.030096 < 0.05
Simulation CPU 0 warning: IPC 0.030105 < 0.05
Heartbeat CPU 0 instructions: 240000049 cycles: 1936578342 heartbeat IPC: 0.09992 cumulative IPC: 0.1239 (Simulation time: 03 hr 21 min 53 sec)
Simulation CPU 0 warning: IPC 0.030106 < 0.05
Simulation CPU 0 warning: IPC 0.021506 < 0.05
Heartbeat CPU 0 instructions: 250000050 cycles: 1981474411 heartbeat IPC: 0.2227 cumulative IPC: 0.1262 (Simulation time: 03 hr 27 min 10 sec)
Simulation CPU 0 warning: IPC 0.027624 < 0.05
Simulation CPU 0 warning: IPC 0.030105 < 0.05
Simulation CPU 0 warning: IPC 0.030075 < 0.05
Heartbeat CPU 0 instructions: 260000052 cycles: 2081758405 heartbeat IPC: 0.09972 cumulative IPC: 0.1249 (Simulation time: 03 hr 37 min 46 sec)
Simulation CPU 0 warning: IPC 0.029966 < 0.05
[ERROR_CYCLE] Error added at CPU cycle 2115972045, interval 3, pending count: 1
[DRAM_CYCLE_ERROR] Cycle-based error applied! address=0x408900000 additional_latency=2459910500 cycles
Simulation CPU 0 panic: IPC 0 < 0.01
Heartbeat CPU 0 instructions: 270000054 cycles: 2126992808 heartbeat IPC: 0.2211 cumulative IPC: 0.1269 (Simulation time: 03 hr 42 min 40 sec)
Simulation CPU 0 warning: IPC 0.027615 < 0.05
Simulation CPU 0 warning: IPC 0.030094 < 0.05
Simulation CPU 0 panic: IPC 0.0026983 < 0.01
Simulation CPU 0 warning: IPC 0.030087 < 0.05
Simulation CPU 0 warning: IPC 0.030105 < 0.05
Heartbeat CPU 0 instructions: 280000055 cycles: 2217886965 heartbeat IPC: 0.11 cumulative IPC: 0.1262 (Simulation time: 03 hr 52 min 22 sec)
Simulation CPU 0 warning: IPC 0.030105 < 0.05
Simulation CPU 0 critical: IPC 0.017917 < 0.02
Simulation CPU 0 warning: IPC 0.027613 < 0.05
Heartbeat CPU 0 instructions: 290000059 cycles: 2290696128 heartbeat IPC: 0.1373 cumulative IPC: 0.1266 (Simulation time: 03 hr 59 min 45 sec)
Simulation CPU 0 warning: IPC 0.032957 < 0.05
Simulation CPU 0 warning: IPC 0.030105 < 0.05
Simulation CPU 0 warning: IPC 0.030084 < 0.05
Heartbeat CPU 0 instructions: 300000062 cycles: 2363591463 heartbeat IPC: 0.1372 cumulative IPC: 0.1269 (Simulation time: 04 hr 07 min 21 sec)
Simulation CPU 0 warning: IPC 0.030342 < 0.05
Simulation CPU 0 warning: IPC 0.026377 < 0.05
Simulation CPU 0 panic: IPC 0.0037194 < 0.01
Simulation CPU 0 warning: IPC 0.027624 < 0.05
Simulation CPU 0 warning: IPC 0.029203 < 0.05
Simulation CPU 0 panic: IPC 0.0009025 < 0.01
Heartbeat CPU 0 instructions: 310000062 cycles: 2454834914 heartbeat IPC: 0.1096 cumulative IPC: 0.1263 (Simulation time: 04 hr 16 min 30 sec)
Simulation CPU 0 warning: IPC 0.030106 < 0.05
Simulation CPU 0 warning: IPC 0.030105 < 0.05
Heartbeat CPU 0 instructions: 320000065 cycles: 2499443568 heartbeat IPC: 0.2242 cumulative IPC: 0.128 (Simulation time: 04 hr 21 min 37 sec)
Simulation CPU 0 warning: IPC 0.044433 < 0.05
Simulation CPU 0 warning: IPC 0.027613 < 0.05
Simulation CPU 0 warning: IPC 0.030096 < 0.05
Simulation CPU 0 critical: IPC 0.017153 < 0.02
Heartbeat CPU 0 instructions: 330000065 cycles: 2580996882 heartbeat IPC: 0.1226 cumulative IPC: 0.1279 (Simulation time: 04 hr 30 min 51 sec)
Simulation CPU 0 warning: IPC 0.030096 < 0.05
Simulation CPU 0 warning: IPC 0.030105 < 0.05
Heartbeat CPU 0 instructions: 340000066 cycles: 2644136919 heartbeat IPC: 0.1584 cumulative IPC: 0.1286 (Simulation time: 04 hr 37 min 09 sec)
Simulation CPU 0 warning: IPC 0.030323 < 0.05
Simulation CPU 0 warning: IPC 0.022807 < 0.05
Simulation CPU 0 panic: IPC 0.0072984 < 0.01
Simulation CPU 0 warning: IPC 0.027624 < 0.05
Simulation CPU 0 warning: IPC 0.025614 < 0.05
Simulation CPU 0 panic: IPC 0.0044916 < 0.01
Heartbeat CPU 0 instructions: 350000070 cycles: 2734968844 heartbeat IPC: 0.1101 cumulative IPC: 0.128 (Simulation time: 04 hr 45 min 43 sec)
Simulation CPU 0 warning: IPC 0.030094 < 0.05
Simulation CPU 0 warning: IPC 0.030096 < 0.05
Heartbeat CPU 0 instructions: 360000070 cycles: 2788895612 heartbeat IPC: 0.1854 cumulative IPC: 0.1291 (Simulation time: 04 hr 51 min 29 sec)
Simulation CPU 0 warning: IPC 0.03032 < 0.05
Simulation CPU 0 warning: IPC 0.030096 < 0.05
Simulation CPU 0 critical: IPC 0.010758 < 0.02
[ERROR_CYCLE] Error added at CPU cycle 2821296060, interval 4, pending count: 1
[DRAM_CYCLE_ERROR] Cycle-based error applied! address=0x648a37e70 additional_latency=2459910500 cycles
Simulation CPU 0 panic: IPC 0 < 0.01
Simulation CPU 0 warning: IPC 0.027603 < 0.05
Simulation CPU 0 warning: IPC 0.030106 < 0.05
Simulation CPU 0 critical: IPC 0.013564 < 0.02
Heartbeat CPU 0 instructions: 370000071 cycles: 2889716242 heartbeat IPC: 0.09919 cumulative IPC: 0.128 (Simulation time: 05 hr 02 min 27 sec)
Simulation CPU 0 warning: IPC 0.030096 < 0.05
Simulation CPU 0 warning: IPC 0.030105 < 0.05
Heartbeat CPU 0 instructions: 380000075 cycles: 2944073182 heartbeat IPC: 0.184 cumulative IPC: 0.1291 (Simulation time: 05 hr 08 min 19 sec)
Simulation CPU 0 warning: IPC 0.030105 < 0.05
Simulation CPU 0 warning: IPC 0.028793 < 0.05
Simulation CPU 0 warning: IPC 0.047682 < 0.05
Simulation CPU 0 warning: IPC 0.022025 < 0.05
Simulation CPU 0 panic: IPC 0.0080615 < 0.01
Heartbeat CPU 0 instructions: 390000077 cycles: 3030834892 heartbeat IPC: 0.1153 cumulative IPC: 0.1287 (Simulation time: 05 hr 17 min 37 sec)
Simulation CPU 0 warning: IPC 0.030094 < 0.05
Simulation CPU 0 warning: IPC 0.030096 < 0.05
Simulation CPU 0 warning: IPC 0.030332 < 0.05
Simulation CPU 0 warning: IPC 0.030085 < 0.05
Simulation CPU 0 panic: IPC 0.0071684 < 0.01
Heartbeat CPU 0 instructions: 400000080 cycles: 3121770780 heartbeat IPC: 0.11 cumulative IPC: 0.1281 (Simulation time: 05 hr 26 min 57 sec)
Simulation CPU 0 warning: IPC 0.027613 < 0.05
Simulation CPU 0 warning: IPC 0.030105 < 0.05
Simulation CPU 0 panic: IPC 0.0099852 < 0.01
Heartbeat CPU 0 instructions: 410000081 cycles: 3175718526 heartbeat IPC: 0.1854 cumulative IPC: 0.1291 (Simulation time: 05 hr 33 min 02 sec)
Simulation CPU 0 warning: IPC 0.030106 < 0.05
Simulation CPU 0 warning: IPC 0.030105 < 0.05
Simulation CPU 0 warning: IPC 0.030105 < 0.05
Simulation CPU 0 warning: IPC 0.025204 < 0.05
Heartbeat CPU 0 instructions: 420000081 cycles: 3257531231 heartbeat IPC: 0.1222 cumulative IPC: 0.1289 (Simulation time: 05 hr 42 min 33 sec)
Simulation CPU 0 warning: IPC 0.040449 < 0.05
Simulation CPU 0 warning: IPC 0.030096 < 0.05
Simulation CPU 0 warning: IPC 0.028029 < 0.05
Heartbeat CPU 0 instructions: 430000081 cycles: 3311445785 heartbeat IPC: 0.1855 cumulative IPC: 0.1299 (Simulation time: 05 hr 48 min 15 sec)
Simulation CPU 0 warning: IPC 0.030075 < 0.05
Simulation CPU 0 warning: IPC 0.030105 < 0.05
Simulation CPU 0 warning: IPC 0.030332 < 0.05
Simulation CPU 0 warning: IPC 0.030094 < 0.05
Simulation CPU 0 panic: IPC 0.0035796 < 0.01
Heartbeat CPU 0 instructions: 440000085 cycles: 3402396695 heartbeat IPC: 0.1099 cumulative IPC: 0.1293 (Simulation time: 05 hr 57 min 16 sec)
Simulation CPU 0 warning: IPC 0.027624 < 0.05
Simulation CPU 0 warning: IPC 0.030094 < 0.05
Simulation CPU 0 panic: IPC 0.0063962 < 0.01
Heartbeat CPU 0 instructions: 450000086 cycles: 3465556682 heartbeat IPC: 0.1583 cumulative IPC: 0.1298 (Simulation time: 06 hr 03 min 27 sec)
Simulation CPU 0 warning: IPC 0.030105 < 0.05
Simulation CPU 0 warning: IPC 0.030096 < 0.05
Simulation CPU 0 warning: IPC 0.030342 < 0.05
[ERROR_CYCLE] Error added at CPU cycle 3526620075, interval 5, pending count: 1
Simulation CPU 0 warning: IPC 0.030096 < 0.05
[DRAM_CYCLE_ERROR] Cycle-based error applied! address=0x648a7df18 additional_latency=2459910500 cycles
Simulation CPU 0 panic: IPC 0 < 0.01
Simulation CPU 0 warning: IPC 0.021624 < 0.05
Heartbeat CPU 0 instructions: 460000087 cycles: 3557149561 heartbeat IPC: 0.1092 cumulative IPC: 0.1293 (Simulation time: 06 hr 12 min 26 sec)
Simulation CPU 0 warning: IPC 0.027615 < 0.05
Simulation CPU 0 warning: IPC 0.030106 < 0.05
Simulation CPU 0 warning: IPC 0.024441 < 0.05
Heartbeat CPU 0 instructions: 470000088 cycles: 3620286461 heartbeat IPC: 0.1584 cumulative IPC: 0.1298 (Simulation time: 06 hr 19 min 00 sec)
Simulation CPU 0 warning: IPC 0.030084 < 0.05
Heartbeat CPU 0 instructions: 480000088 cycles: 3674255306 heartbeat IPC: 0.1853 cumulative IPC: 0.1306 (Simulation time: 06 hr 24 min 26 sec)
Simulation CPU 0 warning: IPC 0.027624 < 0.05
Simulation CPU 0 warning: IPC 0.030084 < 0.05
Simulation CPU 0 panic: IPC 0.0028165 < 0.01
Simulation CPU 0 warning: IPC 0.043407 < 0.05
Simulation CPU 0 warning: IPC 0.030105 < 0.05
Simulation CPU 0 warning: IPC 0.030096 < 0.05
Heartbeat CPU 0 instructions: 490000091 cycles: 3774501436 heartbeat IPC: 0.09975 cumulative IPC: 0.1298 (Simulation time: 06 hr 34 min 17 sec)
Simulation CPU 0 warning: IPC 0.03033 < 0.05
Simulation CPU 0 warning: IPC 0.030086 < 0.05
Simulation CPU 0 critical: IPC 0.018044 < 0.02
Heartbeat CPU 0 instructions: 500000094 cycles: 3828631955 heartbeat IPC: 0.1847 cumulative IPC: 0.1306 (Simulation time: 06 hr 39 min 18 sec)
Simulation CPU 0 warning: IPC 0.027613 < 0.05
Simulation CPU 0 warning: IPC 0.030105 < 0.05
Simulation CPU 0 warning: IPC 0.020851 < 0.05
Simulation CPU 0 warning: IPC 0.035625 < 0.05
Heartbeat CPU 0 instructions: 510000094 cycles: 3928885727 heartbeat IPC: 0.09975 cumulative IPC: 0.1298 (Simulation time: 06 hr 48 min 20 sec)
Simulation CPU 0 warning: IPC 0.030332 < 0.05
Simulation CPU 0 warning: IPC 0.026505 < 0.05
Simulation CPU 0 warning: IPC 0.039931 < 0.05
Heartbeat CPU 0 instructions: 520000096 cycles: 3983127377 heartbeat IPC: 0.1844 cumulative IPC: 0.1306 (Simulation time: 06 hr 54 min 42 sec)
Simulation CPU 0 warning: IPC 0.027624 < 0.05
Simulation CPU 0 warning: IPC 0.029312 < 0.05
Simulation CPU 0 panic: IPC 0.0007846 < 0.01
Simulation CPU 0 warning: IPC 0.030096 < 0.05
Simulation CPU 0 warning: IPC 0.030105 < 0.05
Heartbeat CPU 0 instructions: 530000100 cycles: 4064832997 heartbeat IPC: 0.1224 cumulative IPC: 0.1304 (Simulation time: 07 hr 04 min 18 sec)
Simulation CPU 0 warning: IPC 0.030106 < 0.05
Simulation CPU 0 critical: IPC 0.014455 < 0.02
Simulation CPU 0 panic: IPC 0.0043697 < 0.01
Heartbeat CPU 0 instructions: 540000100 cycles: 4128098289 heartbeat IPC: 0.1581 cumulative IPC: 0.1308 (Simulation time: 07 hr 11 min 39 sec)
Simulation CPU 0 warning: IPC 0.027622 < 0.05
Simulation CPU 0 warning: IPC 0.030106 < 0.05
Simulation CPU 0 critical: IPC 0.017262 < 0.02
Simulation CPU 0 warning: IPC 0.030096 < 0.05
Heartbeat CPU 0 instructions: 550000103 cycles: 4209825886 heartbeat IPC: 0.1224 cumulative IPC: 0.1306 (Simulation time: 07 hr 21 min 07 sec)
Simulation CPU 0 warning: IPC 0.030332 < 0.05
[ERROR_CYCLE] Error added at CPU cycle 4231944091, interval 6, pending count: 1
[DRAM_CYCLE_ERROR] Cycle-based error applied! address=0x648ac3ec0 additional_latency=2459910500 cycles
Simulation CPU 0 warning: IPC 0.022916 < 0.05
Simulation CPU 0 panic: IPC 0 < 0.01
Simulation CPU 0 warning: IPC 0.027615 < 0.05
Simulation CPU 0 warning: IPC 0.025742 < 0.05
Simulation CPU 0 panic: IPC 0.0043637 < 0.01
Heartbeat CPU 0 instructions: 560000106 cycles: 4310805374 heartbeat IPC: 0.09903 cumulative IPC: 0.1299 (Simulation time: 07 hr 33 min 01 sec)
Simulation CPU 0 warning: IPC 0.030085 < 0.05
Simulation CPU 0 warning: IPC 0.030105 < 0.05
Heartbeat CPU 0 instructions: 570000107 cycles: 4364941991 heartbeat IPC: 0.1847 cumulative IPC: 0.1306 (Simulation time: 07 hr 39 min 27 sec)
Simulation CPU 0 warning: IPC 0.030311 < 0.05
Simulation CPU 0 warning: IPC 0.030105 < 0.05
Simulation CPU 0 critical: IPC 0.010866 < 0.02
Simulation CPU 0 warning: IPC 0.027613 < 0.05
Simulation CPU 0 warning: IPC 0.030096 < 0.05
Simulation CPU 0 critical: IPC 0.013692 < 0.02
Heartbeat CPU 0 instructions: 580000111 cycles: 4455858051 heartbeat IPC: 0.11 cumulative IPC: 0.1302 (Simulation time: 07 hr 50 min 07 sec)
Simulation CPU 0 warning: IPC 0.030106 < 0.05
Simulation CPU 0 warning: IPC 0.030086 < 0.05
Heartbeat CPU 0 instructions: 590000112 cycles: 4500571166 heartbeat IPC: 0.2236 cumulative IPC: 0.1311 (Simulation time: 07 hr 55 min 13 sec)
Simulation CPU 0 critical: IPC 0.01933 < 0.02
Simulation CPU 0 warning: IPC 0.037794 < 0.05
Simulation CPU 0 warning: IPC 0.027624 < 0.05
Simulation CPU 0 warning: IPC 0.022153 < 0.05
Simulation CPU 0 panic: IPC 0.0079528 < 0.01
Heartbeat CPU 0 instructions: 600000112 cycles: 4591585949 heartbeat IPC: 0.1099 cumulative IPC: 0.1307 (Simulation time: 08 hr 03 min 38 sec)
Simulation CPU 0 warning: IPC 0.030094 < 0.05
Simulation CPU 0 warning: IPC 0.030105 < 0.05
Heartbeat CPU 0 instructions: 610000112 cycles: 4645757329 heartbeat IPC: 0.1846 cumulative IPC: 0.1313 (Simulation time: 08 hr 10 min 10 sec)
Simulation CPU 0 warning: IPC 0.030342 < 0.05
Simulation CPU 0 warning: IPC 0.030094 < 0.05
Simulation CPU 0 panic: IPC 0.0072774 < 0.01
Simulation CPU 0 warning: IPC 0.027612 < 0.05
Simulation CPU 0 warning: IPC 0.030097 < 0.05
Simulation CPU 0 critical: IPC 0.010103 < 0.02
Heartbeat CPU 0 instructions: 620000116 cycles: 4736713245 heartbeat IPC: 0.1099 cumulative IPC: 0.1309 (Simulation time: 08 hr 19 min 22 sec)
Simulation CPU 0 warning: IPC 0.030096 < 0.05
Simulation CPU 0 warning: IPC 0.030105 < 0.05
Heartbeat CPU 0 instructions: 630000118 cycles: 4790735223 heartbeat IPC: 0.1851 cumulative IPC: 0.1315 (Simulation time: 08 hr 24 min 07 sec)
Simulation CPU 0 warning: IPC 0.027624 < 0.05
Simulation CPU 0 warning: IPC 0.030106 < 0.05
Simulation CPU 0 warning: IPC 0.028138 < 0.05
Heartbeat CPU 0 instructions: 640000121 cycles: 4872510439 heartbeat IPC: 0.1223 cumulative IPC: 0.1313 (Simulation time: 08 hr 32 min 47 sec)
Simulation CPU 0 warning: IPC 0.030094 < 0.05
Simulation CPU 0 warning: IPC 0.030096 < 0.05
Simulation CPU 0 critical: IPC 0.010465 < 0.02
[ERROR_CYCLE] Error added at CPU cycle 4937268106, interval 7, pending count: 1
Simulation CPU 0 warning: IPC 0.030342 < 0.05
[DRAM_CYCLE_ERROR] Cycle-based error applied! address=0x2e2e08fe8 additional_latency=2459910500 cycles
Simulation CPU 0 panic: IPC 0 < 0.01
Simulation CPU 0 warning: IPC 0.030075 < 0.05
Simulation CPU 0 panic: IPC 0.0037075 < 0.01
Heartbeat CPU 0 instructions: 650000122 cycles: 4973393053 heartbeat IPC: 0.09913 cumulative IPC: 0.1307 (Simulation time: 08 hr 43 min 12 sec)
Simulation CPU 0 warning: IPC 0.027615 < 0.05
Simulation CPU 0 warning: IPC 0.030094 < 0.05
Simulation CPU 0 panic: IPC 0.0065143 < 0.01
Heartbeat CPU 0 instructions: 660000123 cycles: 5027301027 heartbeat IPC: 0.1855 cumulative IPC: 0.1313 (Simulation time: 08 hr 48 min 01 sec)
Simulation CPU 0 warning: IPC 0.030096 < 0.05
Simulation CPU 0 warning: IPC 0.030105 < 0.05
Simulation CPU 0 warning: IPC 0.030323 < 0.05
Simulation CPU 0 warning: IPC 0.030105 < 0.05
Simulation CPU 0 warning: IPC 0.021742 < 0.05
Heartbeat CPU 0 instructions: 670000127 cycles: 5118214097 heartbeat IPC: 0.11 cumulative IPC: 0.1309 (Simulation time: 08 hr 57 min 58 sec)
Simulation CPU 0 warning: IPC 0.047674 < 0.05
Simulation CPU 0 warning: IPC 0.034605 < 0.05
Heartbeat CPU 0 instructions: 680000128 cycles: 5172151843 heartbeat IPC: 0.1854 cumulative IPC: 0.1315 (Simulation time: 09 hr 03 min 44 sec)
Simulation CPU 0 warning: IPC 0.030105 < 0.05
Simulation CPU 0 warning: IPC 0.030084 < 0.05
Simulation CPU 0 warning: IPC 0.030085 < 0.05
Simulation CPU 0 panic: IPC 0.0001182 < 0.01
Heartbeat CPU 0 instructions: 690000131 cycles: 5244537317 heartbeat IPC: 0.1381 cumulative IPC: 0.1316 (Simulation time: 09 hr 12 min 03 sec)
Simulation CPU 0 warning: IPC 0.027634 < 0.05
Simulation CPU 0 warning: IPC 0.030094 < 0.05
Simulation CPU 0 panic: IPC 0.0029252 < 0.01
Heartbeat CPU 0 instructions: 700000133 cycles: 5307657772 heartbeat IPC: 0.1584 cumulative IPC: 0.1319 (Simulation time: 09 hr 19 min 08 sec)
Simulation CPU 0 warning: IPC 0.030106 < 0.05
Simulation CPU 0 warning: IPC 0.030105 < 0.05
Simulation CPU 0 warning: IPC 0.03032 < 0.05
Simulation CPU 0 panic: IPC 0 < 0.01
Simulation CPU 0 warning: IPC 0.030105 < 0.05
Simulation CPU 0 critical: IPC 0.018153 < 0.02
Heartbeat CPU 0 instructions: 710000134 cycles: 5403157579 heartbeat IPC: 0.1047 cumulative IPC: 0.1314 (Simulation time: 09 hr 29 min 59 sec)
Simulation CPU 0 warning: IPC 0.027622 < 0.05
Simulation CPU 0 warning: IPC 0.030087 < 0.05
Simulation CPU 0 warning: IPC 0.020979 < 0.05
Heartbeat CPU 0 instructions: 720000138 cycles: 5466387094 heartbeat IPC: 0.1582 cumulative IPC: 0.1317 (Simulation time: 09 hr 35 min 57 sec)
Simulation CPU 0 warning: IPC 0.030096 < 0.05
Simulation CPU 0 warning: IPC 0.030094 < 0.05
Simulation CPU 0 warning: IPC 0.030323 < 0.05
Simulation CPU 0 warning: IPC 0.026623 < 0.05
Simulation CPU 0 panic: IPC 0.0034824 < 0.01
Heartbeat CPU 0 instructions: 730000140 cycles: 5548226861 heartbeat IPC: 0.1222 cumulative IPC: 0.1316 (Simulation time: 09 hr 44 min 57 sec)
Simulation CPU 0 warning: IPC 0.027624 < 0.05
Simulation CPU 0 warning: IPC 0.02944 < 0.05
Simulation CPU 0 panic: IPC 0.0006658 < 0.01
Simulation CPU 0 warning: IPC 0.030105 < 0.05
Heartbeat CPU 0 instructions: 740000140 cycles: 5620931774 heartbeat IPC: 0.1375 cumulative IPC: 0.1317 (Simulation time: 09 hr 51 min 48 sec)
Simulation CPU 0 warning: IPC 0.030086 < 0.05
[ERROR_CYCLE] Error added at CPU cycle 5642592121, interval 8, pending count: 1
[DRAM_CYCLE_ERROR] Cycle-based error applied! address=0x15a0eb4c0 additional_latency=2459910500 cycles
Simulation CPU 0 warning: IPC 0.030096 < 0.05
Simulation CPU 0 critical: IPC 0.014574 < 0.02
Heartbeat CPU 0 instructions: 750000144 cycles: 5694164907 heartbeat IPC: 0.1366 cumulative IPC: 0.1317 (Simulation time: 09 hr 58 min 23 sec)
Simulation CPU 0 warning: IPC 0.027603 < 0.05
Simulation CPU 0 warning: IPC 0.030106 < 0.05
Simulation CPU 0 critical: IPC 0.01739 < 0.02
Simulation CPU 0 warning: IPC 0.030087 < 0.05
Simulation CPU 0 warning: IPC 0.030105 < 0.05
Heartbeat CPU 0 instructions: 760000145 cycles: 5794663235 heartbeat IPC: 0.0995 cumulative IPC: 0.1312 (Simulation time: 10 hr 07 min 52 sec)
Simulation CPU 0 warning: IPC 0.030333 < 0.05
Simulation CPU 0 warning: IPC 0.023034 < 0.05
Simulation CPU 0 panic: IPC 0.0070716 < 0.01
Heartbeat CPU 0 instructions: 770000145 cycles: 5839248765 heartbeat IPC: 0.2243 cumulative IPC: 0.1319 (Simulation time: 10 hr 12 min 48 sec)
Simulation CPU 0 warning: IPC 0.027624 < 0.05
Simulation CPU 0 warning: IPC 0.025851 < 0.05
Simulation CPU 0 panic: IPC 0.0042455 < 0.01
Heartbeat CPU 0 instructions: 780000147 cycles: 5939510774 heartbeat IPC: 0.09974 cumulative IPC: 0.1313 (Simulation time: 10 hr 23 min 23 sec)
Simulation CPU 0 warning: IPC 0.030096 < 0.05
Simulation CPU 0 critical: IPC 0.010984 < 0.02
Heartbeat CPU 0 instructions: 790000148 cycles: 5984847377 heartbeat IPC: 0.2206 cumulative IPC: 0.132 (Simulation time: 10 hr 28 min 01 sec)
Simulation CPU 0 warning: IPC 0.027613 < 0.05
Simulation CPU 0 warning: IPC 0.030105 < 0.05
Simulation CPU 0 critical: IPC 0.013801 < 0.02
Simulation CPU 0 warning: IPC 0.030106 < 0.05
Simulation CPU 0 warning: IPC 0.030105 < 0.05
Heartbeat CPU 0 instructions: 800000150 cycles: 6075781131 heartbeat IPC: 0.11 cumulative IPC: 0.1317 (Simulation time: 10 hr 38 min 22 sec)
Simulation CPU 0 warning: IPC 0.030342 < 0.05
Simulation CPU 0 warning: IPC 0.030105 < 0.05
Simulation CPU 0 warning: IPC 0.02902 < 0.05
Simulation CPU 0 warning: IPC 0.027624 < 0.05
Heartbeat CPU 0 instructions: 810000153 cycles: 6148280141 heartbeat IPC: 0.1379 cumulative IPC: 0.1317 (Simulation time: 10 hr 44 min 51 sec)
Simulation CPU 0 warning: IPC 0.022262 < 0.05
Simulation CPU 0 panic: IPC 0.0078348 < 0.01
Heartbeat CPU 0 instructions: 820000156 cycles: 6220847936 heartbeat IPC: 0.1378 cumulative IPC: 0.1318 (Simulation time: 10 hr 52 min 05 sec)
Simulation CPU 0 warning: IPC 0.030323 < 0.05
Simulation CPU 0 warning: IPC 0.030094 < 0.05
Simulation CPU 0 panic: IPC 0.0074054 < 0.01
Simulation CPU 0 warning: IPC 0.027613 < 0.05
Simulation CPU 0 warning: IPC 0.030105 < 0.05
Simulation CPU 0 critical: IPC 0.010212 < 0.02
Heartbeat CPU 0 instructions: 830000157 cycles: 6311724922 heartbeat IPC: 0.11 cumulative IPC: 0.1315 (Simulation time: 11 hr 00 min 48 sec)
Simulation CPU 0 warning: IPC 0.030105 < 0.05
Simulation CPU 0 warning: IPC 0.030096 < 0.05
[ERROR_CYCLE] Error added at CPU cycle 6347916135, interval 9, pending count: 1
[DRAM_CYCLE_ERROR] Cycle-based error applied! address=0x2e2e92620 additional_latency=2459910500 cycles
Simulation CPU 0 panic: IPC 0 < 0.01
Heartbeat CPU 0 instructions: 840000159 cycles: 6366243758 heartbeat IPC: 0.1834 cumulative IPC: 0.1319 (Simulation time: 11 hr 05 min 26 sec)
Simulation CPU 0 warning: IPC 0.030096 < 0.05
Simulation CPU 0 warning: IPC 0.02545 < 0.05
Simulation CPU 0 warning: IPC 0.027615 < 0.05
Simulation CPU 0 warning: IPC 0.030106 < 0.05
Simulation CPU 0 warning: IPC 0.028256 < 0.05
Heartbeat CPU 0 instructions: 850000162 cycles: 6447927332 heartbeat IPC: 0.1224 cumulative IPC: 0.1318 (Simulation time: 11 hr 14 min 06 sec)
Simulation CPU 0 warning: IPC 0.030732 < 0.05
Heartbeat CPU 0 instructions: 860000162 cycles: 6511525229 heartbeat IPC: 0.1572 cumulative IPC: 0.1321 (Simulation time: 11 hr 20 min 51 sec)
Simulation CPU 0 warning: IPC 0.030323 < 0.05
Simulation CPU 0 warning: IPC 0.030094 < 0.05
Simulation CPU 0 warning: IPC 0.022096 < 0.05
Simulation CPU 0 warning: IPC 0.027634 < 0.05
Simulation CPU 0 warning: IPC 0.030075 < 0.05
Simulation CPU 0 panic: IPC 0.0066423 < 0.01
Heartbeat CPU 0 instructions: 870000163 cycles: 6602860957 heartbeat IPC: 0.1095 cumulative IPC: 0.1318 (Simulation time: 11 hr 29 min 23 sec)
Simulation CPU 0 warning: IPC 0.030106 < 0.05
Simulation CPU 0 warning: IPC 0.030096 < 0.05
Heartbeat CPU 0 instructions: 880000164 cycles: 6657043085 heartbeat IPC: 0.1846 cumulative IPC: 0.1322 (Simulation time: 11 hr 34 min 10 sec)
Simulation CPU 0 warning: IPC 0.030332 < 0.05
Simulation CPU 0 warning: IPC 0.030096 < 0.05
Simulation CPU 0 warning: IPC 0.02186 < 0.05
Simulation CPU 0 warning: IPC 0.027624 < 0.05
Simulation CPU 0 warning: IPC 0.030105 < 0.05
Simulation CPU 0 warning: IPC 0.024677 < 0.05
Heartbeat CPU 0 instructions: 890000167 cycles: 6748095578 heartbeat IPC: 0.1098 cumulative IPC: 0.1319 (Simulation time: 11 hr 43 min 13 sec)
Heartbeat CPU 0 instructions: 900000167 cycles: 6802026612 heartbeat IPC: 0.1854 cumulative IPC: 0.1323 (Simulation time: 11 hr 49 min 24 sec)
Simulation CPU 0 warning: IPC 0.030094 < 0.05
Simulation CPU 0 panic: IPC 0.0002272 < 0.01
Simulation CPU 0 warning: IPC 0.027624 < 0.05
Simulation CPU 0 warning: IPC 0.030085 < 0.05
Simulation CPU 0 panic: IPC 0.003053 < 0.01
Heartbeat CPU 0 instructions: 910000170 cycles: 6883741343 heartbeat IPC: 0.1224 cumulative IPC: 0.1322 (Simulation time: 11 hr 58 min 39 sec)
Simulation CPU 0 warning: IPC 0.030086 < 0.05
Simulation CPU 0 warning: IPC 0.030105 < 0.05
Simulation CPU 0 warning: IPC 0.030321 < 0.05
Simulation CPU 0 warning: IPC 0.030106 < 0.05
Simulation CPU 0 critical: IPC 0.018271 < 0.02
Heartbeat CPU 0 instructions: 920000170 cycles: 6975118441 heartbeat IPC: 0.1094 cumulative IPC: 0.1319 (Simulation time: 12 hr 08 min 34 sec)
Simulation CPU 0 warning: IPC 0.027613 < 0.05
Simulation CPU 0 warning: IPC 0.030106 < 0.05
Simulation CPU 0 warning: IPC 0.021088 < 0.05
Heartbeat CPU 0 instructions: 930000172 cycles: 7029376807 heartbeat IPC: 0.1843 cumulative IPC: 0.1323 (Simulation time: 12 hr 14 min 32 sec)
[ERROR_CYCLE] Error added at CPU cycle 7053240150, interval 10, pending count: 1
[DRAM_CYCLE_ERROR] Cycle-based error applied! address=0x2e2ed7508 additional_latency=2459910500 cycles
Simulation CPU 0 panic: IPC 0 < 0.01
Simulation CPU 0 warning: IPC 0.030084 < 0.05
Simulation CPU 0 warning: IPC 0.026732 < 0.05
Simulation CPU 0 warning: IPC 0.025816 < 0.05
Heartbeat CPU 0 instructions: 940000173 cycles: 7120859867 heartbeat IPC: 0.1093 cumulative IPC: 0.132 (Simulation time: 12 hr 23 min 42 sec)
Simulation CPU 0 warning: IPC 0.027615 < 0.05
Simulation CPU 0 warning: IPC 0.029558 < 0.05
Simulation CPU 0 panic: IPC 0.0005477 < 0.01
Heartbeat CPU 0 instructions: 950000174 cycles: 7174761476 heartbeat IPC: 0.1855 cumulative IPC: 0.1324 (Simulation time: 12 hr 29 min 16 sec)
Simulation CPU 0 warning: IPC 0.030096 < 0.05
Simulation CPU 0 warning: IPC 0.030105 < 0.05
Simulation CPU 0 warning: IPC 0.030321 < 0.05
Simulation CPU 0 warning: IPC 0.030105 < 0.05
Simulation CPU 0 critical: IPC 0.014682 < 0.02
Heartbeat CPU 0 instructions: 960000177 cycles: 7265728951 heartbeat IPC: 0.1099 cumulative IPC: 0.1321 (Simulation time: 12 hr 38 min 15 sec)
Simulation CPU 0 warning: IPC 0.027613 < 0.05
Simulation CPU 0 warning: IPC 0.030096 < 0.05
Simulation CPU 0 critical: IPC 0.017508 < 0.02
Heartbeat CPU 0 instructions: 970000177 cycles: 7328910378 heartbeat IPC: 0.1583 cumulative IPC: 0.1324 (Simulation time: 12 hr 45 min 49 sec)
Simulation CPU 0 warning: IPC 0.030105 < 0.05
Simulation CPU 0 warning: IPC 0.030096 < 0.05
Simulation CPU 0 panic: IPC 0.0069438 < 0.01
Heartbeat CPU 0 instructions: 980000178 cycles: 7410497499 heartbeat IPC: 0.1226 cumulative IPC: 0.1322 (Simulation time: 12 hr 55 min 06 sec)
Simulation CPU 0 warning: IPC 0.027624 < 0.05
Simulation CPU 0 warning: IPC 0.025969 < 0.05
Heartbeat CPU 0 instructions: 990000178 cycles: 7473779939 heartbeat IPC: 0.158 cumulative IPC: 0.1325 (Simulation time: 13 hr 02 min 29 sec)
Simulation CPU 0 warning: IPC 0.030094 < 0.05
Simulation CPU 0 warning: IPC 0.030104 < 0.05
Simulation CPU 0 warning: IPC 0.030105 < 0.05
Simulation CPU 0 critical: IPC 0.011103 < 0.02
Heartbeat CPU 0 instructions: 1000000180 cycles: 7537321801 heartbeat IPC: 0.1574 cumulative IPC: 0.1327 (Simulation time: 13 hr 10 min 07 sec)
Simulation CPU 0 warning: IPC 0.027613 < 0.05
Simulation CPU 0 warning: IPC 0.030096 < 0.05
Simulation CPU 0 critical: IPC 0.013919 < 0.02
Simulation CPU 0 warning: IPC 0.030096 < 0.05
Simulation CPU 0 warning: IPC 0.030105 < 0.05
Heartbeat CPU 0 instructions: 1010000180 cycles: 7637609860 heartbeat IPC: 0.09971 cumulative IPC: 0.1322 (Simulation time: 13 hr 21 min 28 sec)
Simulation CPU 0 panic: IPC 0 < 0.01
Simulation CPU 0 warning: IPC 0.029147 < 0.05
Heartbeat CPU 0 instructions: 1020000183 cycles: 7696231722 heartbeat IPC: 0.1706 cumulative IPC: 0.1325 (Simulation time: 13 hr 28 min 34 sec)
Simulation CPU 0 warning: IPC 0.027634 < 0.05
Simulation CPU 0 warning: IPC 0.02238 < 0.05
Simulation CPU 0 panic: IPC 0.0077261 < 0.01
[ERROR_CYCLE] Error added at CPU cycle 7758564165, interval 11, pending count: 1
[DRAM_CYCLE_ERROR] Cycle-based error applied! address=0x1ae01d5b0 additional_latency=2459910500 cycles
Simulation CPU 0 panic: IPC 0 < 0.01
Simulation CPU 0 warning: IPC 0.030094 < 0.05
Simulation CPU 0 warning: IPC 0.030096 < 0.05
Heartbeat CPU 0 instructions: 1030000184 cycles: 7806324107 heartbeat IPC: 0.09083 cumulative IPC: 0.1319 (Simulation time: 13 hr 40 min 58 sec)
Simulation CPU 0 warning: IPC 0.030332 < 0.05
Simulation CPU 0 warning: IPC 0.030084 < 0.05
Simulation CPU 0 panic: IPC 0.0075235 < 0.01
Heartbeat CPU 0 instructions: 1040000185 cycles: 7851069653 heartbeat IPC: 0.2235 cumulative IPC: 0.1325 (Simulation time: 13 hr 46 min 24 sec)
Simulation CPU 0 critical: IPC 0.01034 < 0.02
Simulation CPU 0 warning: IPC 0.030096 < 0.05
Simulation CPU 0 warning: IPC 0.030105 < 0.05
Heartbeat CPU 0 instructions: 1050000186 cycles: 7942153458 heartbeat IPC: 0.1098 cumulative IPC: 0.1322 (Simulation time: 13 hr 57 min 02 sec)
Simulation CPU 0 warning: IPC 0.030105 < 0.05
Simulation CPU 0 warning: IPC 0.025558 < 0.05
Simulation CPU 0 warning: IPC 0.02997 < 0.05
Simulation CPU 0 critical: IPC 0.018592 < 0.02
Simulation CPU 0 critical: IPC 0.014343 < 0.02
Heartbeat CPU 0 instructions: 1060000190 cycles: 8014650877 heartbeat IPC: 0.1379 cumulative IPC: 0.1323 (Simulation time: 14 hr 04 min 56 sec)
Simulation CPU 0 warning: IPC 0.027624 < 0.05
Simulation CPU 0 warning: IPC 0.030096 < 0.05
Simulation CPU 0 warning: IPC 0.028385 < 0.05
Simulation CPU 0 warning: IPC 0.030094 < 0.05
Simulation CPU 0 warning: IPC 0.030086 < 0.05
Heartbeat CPU 0 instructions: 1070000194 cycles: 8096684803 heartbeat IPC: 0.1219 cumulative IPC: 0.1322 (Simulation time: 14 hr 13 min 08 sec)
Simulation CPU 0 warning: IPC 0.030342 < 0.05
Simulation CPU 0 warning: IPC 0.030085 < 0.05
Simulation CPU 0 panic: IPC 0.0039342 < 0.01
Simulation CPU 0 warning: IPC 0.030094 < 0.05
Simulation CPU 0 panic: IPC 0.006751 < 0.01
Heartbeat CPU 0 instructions: 1080000194 cycles: 8188017876 heartbeat IPC: 0.1095 cumulative IPC: 0.1319 (Simulation time: 14 hr 23 min 06 sec)
Simulation CPU 0 warning: IPC 0.030106 < 0.05
Simulation CPU 0 warning: IPC 0.030105 < 0.05
Heartbeat CPU 0 instructions: 1090000194 cycles: 8241910531 heartbeat IPC: 0.1856 cumulative IPC: 0.1323 (Simulation time: 14 hr 29 min 11 sec)
Simulation CPU 0 warning: IPC 0.030105 < 0.05
Simulation CPU 0 warning: IPC 0.021969 < 0.05
Simulation CPU 0 warning: IPC 0.027624 < 0.05
Simulation CPU 0 warning: IPC 0.030096 < 0.05
Simulation CPU 0 warning: IPC 0.024795 < 0.05
Heartbeat CPU 0 instructions: 1100000194 cycles: 8323582536 heartbeat IPC: 0.1224 cumulative IPC: 0.1322 (Simulation time: 14 hr 37 min 41 sec)
Simulation CPU 0 warning: IPC 0.030096 < 0.05
Simulation CPU 0 warning: IPC 0.030094 < 0.05
Heartbeat CPU 0 instructions: 1110000196 cycles: 8368379836 heartbeat IPC: 0.2232 cumulative IPC: 0.1326 (Simulation time: 14 hr 43 min 06 sec)
Simulation CPU 0 panic: IPC 0.0092442 < 0.01
Simulation CPU 0 warning: IPC 0.030094 < 0.05
Simulation CPU 0 panic: IPC 0.0003452 < 0.01
Simulation CPU 0 panic: IPC 0.003162 < 0.01
Heartbeat CPU 0 instructions: 1120000200 cycles: 8459474256 heartbeat IPC: 0.1098 cumulative IPC: 0.1324 (Simulation time: 14 hr 53 min 35 sec)
[ERROR_CYCLE] Error added at CPU cycle 8463888181, interval 12, pending count: 1
[DRAM_CYCLE_ERROR] Cycle-based error applied! address=0x1ae062658 additional_latency=2459910500 cycles
Simulation CPU 0 panic: IPC 0 < 0.01
Simulation CPU 0 warning: IPC 0.030105 < 0.05
Simulation CPU 0 warning: IPC 0.030096 < 0.05
Heartbeat CPU 0 instructions: 1130000201 cycles: 8523673768 heartbeat IPC: 0.1558 cumulative IPC: 0.1326 (Simulation time: 15 hr 00 min 07 sec)
Simulation CPU 0 warning: IPC 0.03033 < 0.05
Simulation CPU 0 warning: IPC 0.030086 < 0.05
Simulation CPU 0 critical: IPC 0.018399 < 0.02
Simulation CPU 0 warning: IPC 0.027603 < 0.05
Simulation CPU 0 warning: IPC 0.030106 < 0.05
Simulation CPU 0 warning: IPC 0.021206 < 0.05
Heartbeat CPU 0 instructions: 1140000204 cycles: 8614528302 heartbeat IPC: 0.1101 cumulative IPC: 0.1323 (Simulation time: 15 hr 10 min 17 sec)
Simulation CPU 0 warning: IPC 0.030096 < 0.05
Simulation CPU 0 warning: IPC 0.030093 < 0.05
Heartbeat CPU 0 instructions: 1150000204 cycles: 8668480583 heartbeat IPC: 0.1853 cumulative IPC: 0.1327 (Simulation time: 15 hr 16 min 23 sec)
Simulation CPU 0 warning: IPC 0.02686 < 0.05
Simulation CPU 0 panic: IPC 0.0032458 < 0.01
Simulation CPU 0 warning: IPC 0.029667 < 0.05
Simulation CPU 0 panic: IPC 0.0004295 < 0.01
Heartbeat CPU 0 instructions: 1160000206 cycles: 8750290337 heartbeat IPC: 0.1222 cumulative IPC: 0.1326 (Simulation time: 15 hr 25 min 49 sec)
Simulation CPU 0 warning: IPC 0.030106 < 0.05
Simulation CPU 0 critical: IPC 0.011984 < 0.02
Simulation CPU 0 critical: IPC 0.018118 < 0.02
Simulation CPU 0 warning: IPC 0.03032 < 0.05
Simulation CPU 0 warning: IPC 0.030096 < 0.05
Simulation CPU 0 critical: IPC 0.01481 < 0.02
Heartbeat CPU 0 instructions: 1170000207 cycles: 8841169509 heartbeat IPC: 0.11 cumulative IPC: 0.1323 (Simulation time: 15 hr 36 min 05 sec)
Simulation CPU 0 warning: IPC 0.027622 < 0.05
Simulation CPU 0 warning: IPC 0.030105 < 0.05
Simulation CPU 0 critical: IPC 0.017617 < 0.02
Heartbeat CPU 0 instructions: 1180000209 cycles: 8895106900 heartbeat IPC: 0.1854 cumulative IPC: 0.1327 (Simulation time: 15 hr 41 min 59 sec)
Simulation CPU 0 warning: IPC 0.030106 < 0.05
Simulation CPU 0 warning: IPC 0.030105 < 0.05
Simulation CPU 0 warning: IPC 0.030332 < 0.05
Simulation CPU 0 warning: IPC 0.023271 < 0.05
Simulation CPU 0 panic: IPC 0.0068348 < 0.01
Heartbeat CPU 0 instructions: 1190000210 cycles: 8986308641 heartbeat IPC: 0.1096 cumulative IPC: 0.1324 (Simulation time: 15 hr 52 min 13 sec)
Simulation CPU 0 warning: IPC 0.027634 < 0.05
Simulation CPU 0 warning: IPC 0.026077 < 0.05
Simulation CPU 0 panic: IPC 0.004009 < 0.01
Heartbeat CPU 0 instructions: 1200000211 cycles: 9040566303 heartbeat IPC: 0.1843 cumulative IPC: 0.1327 (Simulation time: 15 hr 58 min 25 sec)
Simulation CPU 0 warning: IPC 0.030084 < 0.05
Simulation CPU 0 warning: IPC 0.030105 < 0.05
Simulation CPU 0 warning: IPC 0.030106 < 0.05
Simulation CPU 0 critical: IPC 0.011221 < 0.02
Heartbeat CPU 0 instructions: 1210000211 cycles: 9112986069 heartbeat IPC: 0.1381 cumulative IPC: 0.1328 (Simulation time: 16 hr 06 min 57 sec)
Simulation CPU 0 warning: IPC 0.027613 < 0.05
Simulation CPU 0 warning: IPC 0.030106 < 0.05
Simulation CPU 0 critical: IPC 0.014038 < 0.02
[ERROR_CYCLE] Error added at CPU cycle 9169212196, interval 13, pending count: 1
[DRAM_CYCLE_ERROR] Cycle-based error applied! address=0x367915fd0 additional_latency=2459910500 cycles
Simulation CPU 0 panic: IPC 0 < 0.01
Heartbeat CPU 0 instructions: 1220000214 cycles: 9186235938 heartbeat IPC: 0.1365 cumulative IPC: 0.1328 (Simulation time: 16 hr 15 min 20 sec)
Simulation CPU 0 warning: IPC 0.030105 < 0.05
Simulation CPU 0 warning: IPC 0.030086 < 0.05
Simulation CPU 0 warning: IPC 0.030342 < 0.05
Simulation CPU 0 warning: IPC 0.030096 < 0.05
Simulation CPU 0 warning: IPC 0.029266 < 0.05
Heartbeat CPU 0 instructions: 1230000215 cycles: 9277343651 heartbeat IPC: 0.1098 cumulative IPC: 0.1326 (Simulation time: 16 hr 25 min 35 sec)
Simulation CPU 0 warning: IPC 0.027615 < 0.05
Simulation CPU 0 warning: IPC 0.022508 < 0.05
Simulation CPU 0 panic: IPC 0.0075979 < 0.01
Heartbeat CPU 0 instructions: 1240000215 cycles: 9340684190 heartbeat IPC: 0.1579 cumulative IPC: 0.1328 (Simulation time: 16 hr 32 min 06 sec)
Simulation CPU 0 warning: IPC 0.030333 < 0.05
Simulation CPU 0 warning: IPC 0.030094 < 0.05
Simulation CPU 0 critical: IPC 0.013675 < 0.02
Heartbeat CPU 0 instructions: 1250000219 cycles: 9422299969 heartbeat IPC: 0.1225 cumulative IPC: 0.1327 (Simulation time: 16 hr 39 min 39 sec)
Simulation CPU 0 warning: IPC 0.027613 < 0.05
Simulation CPU 0 warning: IPC 0.030096 < 0.05
Simulation CPU 0 critical: IPC 0.010458 < 0.02
Simulation CPU 0 warning: IPC 0.030105 < 0.05
Heartbeat CPU 0 instructions: 1260000220 cycles: 9494957734 heartbeat IPC: 0.1376 cumulative IPC: 0.1327 (Simulation time: 16 hr 47 min 22 sec)
Simulation CPU 0 warning: IPC 0.030096 < 0.05
Simulation CPU 0 warning: IPC 0.030096 < 0.05
Simulation CPU 0 warning: IPC 0.025676 < 0.05
Heartbeat CPU 0 instructions: 1270000220 cycles: 9558441362 heartbeat IPC: 0.1575 cumulative IPC: 0.1329 (Simulation time: 16 hr 54 min 27 sec)
Simulation CPU 0 warning: IPC 0.027624 < 0.05
Simulation CPU 0 warning: IPC 0.030105 < 0.05
Simulation CPU 0 warning: IPC 0.028493 < 0.05
Heartbeat CPU 0 instructions: 1280000221 cycles: 9649498235 heartbeat IPC: 0.1098 cumulative IPC: 0.1326 (Simulation time: 17 hr 04 min 07 sec)
Simulation CPU 0 warning: IPC 0.030342 < 0.05
Simulation CPU 0 warning: IPC 0.030094 < 0.05
Simulation CPU 0 critical: IPC 0.017741 < 0.02
Heartbeat CPU 0 instructions: 1290000222 cycles: 9703424913 heartbeat IPC: 0.1854 cumulative IPC: 0.1329 (Simulation time: 17 hr 09 min 54 sec)
Simulation CPU 0 warning: IPC 0.027624 < 0.05
Simulation CPU 0 warning: IPC 0.030085 < 0.05
Simulation CPU 0 panic: IPC 0.006869 < 0.01
Simulation CPU 0 warning: IPC 0.030096 < 0.05
Simulation CPU 0 warning: IPC 0.030105 < 0.05
Heartbeat CPU 0 instructions: 1300000223 cycles: 9803459238 heartbeat IPC: 0.09997 cumulative IPC: 0.1326 (Simulation time: 17 hr 19 min 29 sec)
Simulation CPU 0 warning: IPC 0.030106 < 0.05
Simulation CPU 0 warning: IPC 0.022097 < 0.05
Heartbeat CPU 0 instructions: 1310000223 cycles: 9848188675 heartbeat IPC: 0.2236 cumulative IPC: 0.133 (Simulation time: 17 hr 24 min 26 sec)
Simulation CPU 0 warning: IPC 0.027624 < 0.05
Simulation CPU 0 warning: IPC 0.030105 < 0.05
[ERROR_CYCLE] Error added at CPU cycle 9874536211, interval 14, pending count: 1
[DRAM_CYCLE_ERROR] Cycle-based error applied! address=0x2ff00000 additional_latency=2459910500 cycles
Simulation CPU 0 panic: IPC 0.0003546 < 0.01
Simulation CPU 0 warning: IPC 0.02455 < 0.05
Simulation CPU 0 warning: IPC 0.041694 < 0.05
Heartbeat CPU 0 instructions: 1320000226 cycles: 9948963380 heartbeat IPC: 0.09923 cumulative IPC: 0.1327 (Simulation time: 17 hr 35 min 58 sec)
Simulation CPU 0 warning: IPC 0.030332 < 0.05
Simulation CPU 0 warning: IPC 0.030558 < 0.05
Simulation CPU 0 panic: IPC 0 < 0.01
Simulation CPU 0 warning: IPC 0.027615 < 0.05
Heartbeat CPU 0 instructions: 1330000226 cycles: 10026090851 heartbeat IPC: 0.1297 cumulative IPC: 0.1327 (Simulation time: 17 hr 44 min 46 sec)
Simulation CPU 0 warning: IPC 0.030094 < 0.05
Simulation CPU 0 panic: IPC 0.00328 < 0.01
Simulation CPU 0 warning: IPC 0.030096 < 0.05
Simulation CPU 0 warning: IPC 0.030105 < 0.05
Heartbeat CPU 0 instructions: 1340000226 cycles: 10098455028 heartbeat IPC: 0.1382 cumulative IPC: 0.1327 (Simulation time: 17 hr 52 min 21 sec)
Simulation CPU 0 warning: IPC 0.030105 < 0.05
Simulation CPU 0 critical: IPC 0.018508 < 0.02
Simulation CPU 0 warning: IPC 0.027622 < 0.05
Heartbeat CPU 0 instructions: 1350000226 cycles: 10189229705 heartbeat IPC: 0.1102 cumulative IPC: 0.1325 (Simulation time: 18 hr 00 min 35 sec)
Simulation CPU 0 warning: IPC 0.030106 < 0.05
Simulation CPU 0 warning: IPC 0.030084 < 0.05
Heartbeat CPU 0 instructions: 1360000227 cycles: 10233987056 heartbeat IPC: 0.2234 cumulative IPC: 0.1329 (Simulation time: 18 hr 04 min 47 sec)
Simulation CPU 0 warning: IPC 0.026969 < 0.05
Simulation CPU 0 panic: IPC 0.0031278 < 0.01
Simulation CPU 0 warning: IPC 0.027624 < 0.05
Simulation CPU 0 warning: IPC 0.029794 < 0.05
Simulation CPU 0 panic: IPC 0.000311 < 0.01
Heartbeat CPU 0 instructions: 1370000228 cycles: 10315727083 heartbeat IPC: 0.1223 cumulative IPC: 0.1328 (Simulation time: 18 hr 12 min 32 sec)
Simulation CPU 0 warning: IPC 0.030106 < 0.05
Simulation CPU 0 warning: IPC 0.030105 < 0.05
Heartbeat CPU 0 instructions: 1380000231 cycles: 10378982176 heartbeat IPC: 0.1581 cumulative IPC: 0.133 (Simulation time: 18 hr 19 min 37 sec)
Simulation CPU 0 warning: IPC 0.03033 < 0.05
Simulation CPU 0 warning: IPC 0.030106 < 0.05
Simulation CPU 0 critical: IPC 0.014919 < 0.02
Simulation CPU 0 critical: IPC 0.017745 < 0.02
Heartbeat CPU 0 instructions: 1390000231 cycles: 10470041258 heartbeat IPC: 0.1098 cumulative IPC: 0.1328 (Simulation time: 18 hr 28 min 59 sec)
Simulation CPU 0 warning: IPC 0.030086 < 0.05
Simulation CPU 0 warning: IPC 0.030094 < 0.05
Heartbeat CPU 0 instructions: 1400000232 cycles: 10524356395 heartbeat IPC: 0.1841 cumulative IPC: 0.133 (Simulation time: 18 hr 34 min 37 sec)
Simulation CPU 0 warning: IPC 0.030332 < 0.05
Simulation CPU 0 warning: IPC 0.023389 < 0.05
Simulation CPU 0 panic: IPC 0.0067168 < 0.01
[ERROR_CYCLE] Error added at CPU cycle 10579860225, interval 15, pending count: 1
[DRAM_CYCLE_ERROR] Cycle-based error applied! address=0x411c31c78 additional_latency=2459910500 cycles
Simulation CPU 0 panic: IPC 0 < 0.01
Simulation CPU 0 warning: IPC 0.027624 < 0.05
Simulation CPU 0 warning: IPC 0.026206 < 0.05
Simulation CPU 0 panic: IPC 0.0039 < 0.01
Heartbeat CPU 0 instructions: 1410000233 cycles: 10625452371 heartbeat IPC: 0.09892 cumulative IPC: 0.1327 (Simulation time: 18 hr 46 min 10 sec)
Simulation CPU 0 warning: IPC 0.030094 < 0.05
Simulation CPU 0 warning: IPC 0.030096 < 0.05
Heartbeat CPU 0 instructions: 1420000237 cycles: 10679585037 heartbeat IPC: 0.1847 cumulative IPC: 0.133 (Simulation time: 18 hr 51 min 58 sec)
Simulation CPU 0 critical: IPC 0.01134 < 0.02
Simulation CPU 0 warning: IPC 0.03942 < 0.05
Simulation CPU 0 warning: IPC 0.032445 < 0.05
Heartbeat CPU 0 instructions: 1430000239 cycles: 10761285359 heartbeat IPC: 0.1224 cumulative IPC: 0.1329 (Simulation time: 19 hr 01 min 03 sec)
Simulation CPU 0 warning: IPC 0.030096 < 0.05
Simulation CPU 0 warning: IPC 0.030105 < 0.05
Simulation CPU 0 warning: IPC 0.030333 < 0.05
Simulation CPU 0 warning: IPC 0.030105 < 0.05
Simulation CPU 0 warning: IPC 0.029374 < 0.05
Heartbeat CPU 0 instructions: 1440000242 cycles: 10852301834 heartbeat IPC: 0.1099 cumulative IPC: 0.1327 (Simulation time: 19 hr 09 min 32 sec)
Simulation CPU 0 warning: IPC 0.027624 < 0.05
Simulation CPU 0 warning: IPC 0.022616 < 0.05
Simulation CPU 0 panic: IPC 0.0074797 < 0.01
Heartbeat CPU 0 instructions: 1450000243 cycles: 10906285957 heartbeat IPC: 0.1852 cumulative IPC: 0.133 (Simulation time: 19 hr 15 min 00 sec)
Simulation CPU 0 warning: IPC 0.030094 < 0.05
Simulation CPU 0 warning: IPC 0.030096 < 0.05
Simulation CPU 0 warning: IPC 0.030075 < 0.05
Simulation CPU 0 panic: IPC 0.00776 < 0.01
Heartbeat CPU 0 instructions: 1460000243 cycles: 10988225870 heartbeat IPC: 0.122 cumulative IPC: 0.1329 (Simulation time: 19 hr 22 min 32 sec)
Simulation CPU 0 warning: IPC 0.0456 < 0.05
Simulation CPU 0 warning: IPC 0.022685 < 0.05
Heartbeat CPU 0 instructions: 1470000245 cycles: 11042489529 heartbeat IPC: 0.1843 cumulative IPC: 0.1331 (Simulation time: 19 hr 28 min 45 sec)
Simulation CPU 0 warning: IPC 0.030106 < 0.05
Simulation CPU 0 warning: IPC 0.030105 < 0.05
Simulation CPU 0 warning: IPC 0.030332 < 0.05
Simulation CPU 0 warning: IPC 0.030105 < 0.05
Simulation CPU 0 warning: IPC 0.025795 < 0.05
Heartbeat CPU 0 instructions: 1480000245 cycles: 11133526634 heartbeat IPC: 0.1098 cumulative IPC: 0.1329 (Simulation time: 19 hr 39 min 07 sec)
Simulation CPU 0 warning: IPC 0.027624 < 0.05
Simulation CPU 0 warning: IPC 0.030096 < 0.05
Simulation CPU 0 warning: IPC 0.028611 < 0.05
Heartbeat CPU 0 instructions: 1490000248 cycles: 11196692624 heartbeat IPC: 0.1583 cumulative IPC: 0.1331 (Simulation time: 19 hr 45 min 05 sec)
Simulation CPU 0 warning: IPC 0.030084 < 0.05
Simulation CPU 0 warning: IPC 0.030105 < 0.05
Simulation CPU 0 warning: IPC 0.030323 < 0.05
Simulation CPU 0 warning: IPC 0.030094 < 0.05
Simulation CPU 0 panic: IPC 0.0041712 < 0.01
Heartbeat CPU 0 instructions: 1500000249 cycles: 11278535491 heartbeat IPC: 0.1222 cumulative IPC: 0.133 (Simulation time: 19 hr 54 min 33 sec)
[ERROR_CYCLE] Error added at CPU cycle 11285184240, interval 16, pending count: 1
[DRAM_CYCLE_ERROR] Cycle-based error applied! address=0x51ec00000 additional_latency=2459910500 cycles
Simulation CPU 0 warning: IPC 0.034775 < 0.05
Simulation CPU 0 warning: IPC 0.030094 < 0.05
Simulation CPU 0 panic: IPC 0.0069777 < 0.01
Heartbeat CPU 0 instructions: 1510000252 cycles: 11351779574 heartbeat IPC: 0.1365 cumulative IPC: 0.133 (Simulation time: 20 hr 02 min 44 sec)
Simulation CPU 0 warning: IPC 0.030105 < 0.05
Simulation CPU 0 warning: IPC 0.030096 < 0.05
Simulation CPU 0 warning: IPC 0.030096 < 0.05
Simulation CPU 0 warning: IPC 0.022215 < 0.05
Heartbeat CPU 0 instructions: 1520000256 cycles: 11415208154 heartbeat IPC: 0.1577 cumulative IPC: 0.1332 (Simulation time: 20 hr 08 min 45 sec)
Simulation CPU 0 warning: IPC 0.027615 < 0.05
Simulation CPU 0 warning: IPC 0.030106 < 0.05
Simulation CPU 0 warning: IPC 0.025032 < 0.05
Simulation CPU 0 warning: IPC 0.030096 < 0.05
Simulation CPU 0 warning: IPC 0.030093 < 0.05
Heartbeat CPU 0 instructions: 1530000258 cycles: 11515726794 heartbeat IPC: 0.09948 cumulative IPC: 0.1329 (Simulation time: 20 hr 18 min 28 sec)
Simulation CPU 0 warning: IPC 0.030323 < 0.05
Simulation CPU 0 warning: IPC 0.030094 < 0.05
Simulation CPU 0 panic: IPC 0.000582 < 0.01
Heartbeat CPU 0 instructions: 1540000259 cycles: 11569758847 heartbeat IPC: 0.1851 cumulative IPC: 0.1331 (Simulation time: 20 hr 24 min 20 sec)
Simulation CPU 0 warning: IPC 0.030084 < 0.05
Simulation CPU 0 panic: IPC 0.0034081 < 0.01
Simulation CPU 0 warning: IPC 0.030105 < 0.05
Simulation CPU 0 warning: IPC 0.031689 < 0.05
Heartbeat CPU 0 instructions: 1550000260 cycles: 11669945637 heartbeat IPC: 0.09981 cumulative IPC: 0.1328 (Simulation time: 20 hr 34 min 44 sec)
Simulation CPU 0 warning: IPC 0.03033 < 0.05
Simulation CPU 0 warning: IPC 0.030096 < 0.05
Simulation CPU 0 critical: IPC 0.018626 < 0.02
Heartbeat CPU 0 instructions: 1560000263 cycles: 11714676363 heartbeat IPC: 0.2236 cumulative IPC: 0.1332 (Simulation time: 20 hr 40 min 08 sec)
Simulation CPU 0 warning: IPC 0.027613 < 0.05
Simulation CPU 0 warning: IPC 0.030105 < 0.05
Simulation CPU 0 warning: IPC 0.021443 < 0.05
Simulation CPU 0 warning: IPC 0.030106 < 0.05
Simulation CPU 0 warning: IPC 0.030093 < 0.05
Heartbeat CPU 0 instructions: 1570000264 cycles: 11805548028 heartbeat IPC: 0.11 cumulative IPC: 0.133 (Simulation time: 20 hr 49 min 22 sec)
Simulation CPU 0 warning: IPC 0.027087 < 0.05
Simulation CPU 0 panic: IPC 0.0030188 < 0.01
Heartbeat CPU 0 instructions: 1580000264 cycles: 11859582952 heartbeat IPC: 0.1851 cumulative IPC: 0.1332 (Simulation time: 20 hr 55 min 40 sec)
Simulation CPU 0 warning: IPC 0.027624 < 0.05
Simulation CPU 0 warning: IPC 0.029903 < 0.05
Simulation CPU 0 warning: IPC 0.030096 < 0.05
Simulation CPU 0 warning: IPC 0.030105 < 0.05
Heartbeat CPU 0 instructions: 1590000267 cycles: 11941207156 heartbeat IPC: 0.1225 cumulative IPC: 0.1332 (Simulation time: 21 hr 04 min 00 sec)
Simulation CPU 0 warning: IPC 0.030321 < 0.05
Simulation CPU 0 warning: IPC 0.030106 < 0.05
Simulation CPU 0 critical: IPC 0.015037 < 0.02
[ERROR_CYCLE] Error added at CPU cycle 11990508255, interval 17, pending count: 1
[DRAM_CYCLE_ERROR] Cycle-based error applied! address=0x73900000 additional_latency=2459910500 cycles
Simulation CPU 0 panic: IPC 0 < 0.01
Simulation CPU 0 warning: IPC 0.027613 < 0.05
Simulation CPU 0 warning: IPC 0.030106 < 0.05
Heartbeat CPU 0 instructions: 1600000268 cycles: 12033060567 heartbeat IPC: 0.1089 cumulative IPC: 0.133 (Simulation time: 21 hr 13 min 36 sec)
Simulation CPU 0 critical: IPC 0.017854 < 0.02
Simulation CPU 0 warning: IPC 0.030105 < 0.05
Simulation CPU 0 warning: IPC 0.030084 < 0.05
Heartbeat CPU 0 instructions: 1610000269 cycles: 12096181921 heartbeat IPC: 0.1584 cumulative IPC: 0.1331 (Simulation time: 21 hr 20 min 49 sec)
Simulation CPU 0 warning: IPC 0.023498 < 0.05
Simulation CPU 0 panic: IPC 0.0065887 < 0.01
Simulation CPU 0 warning: IPC 0.027615 < 0.05
Simulation CPU 0 warning: IPC 0.026324 < 0.05
Simulation CPU 0 panic: IPC 0.0037819 < 0.01
Heartbeat CPU 0 instructions: 1620000270 cycles: 12177904372 heartbeat IPC: 0.1224 cumulative IPC: 0.133 (Simulation time: 21 hr 29 min 39 sec)
Simulation CPU 0 warning: IPC 0.030085 < 0.05
Simulation CPU 0 warning: IPC 0.030105 < 0.05
Heartbeat CPU 0 instructions: 1630000271 cycles: 12222624488 heartbeat IPC: 0.2236 cumulative IPC: 0.1334 (Simulation time: 21 hr 34 min 07 sec)
Simulation CPU 0 panic: IPC 0.0074889 < 0.01
Simulation CPU 0 warning: IPC 0.030311 < 0.05
Simulation CPU 0 warning: IPC 0.030105 < 0.05
Simulation CPU 0 critical: IPC 0.011458 < 0.02
Simulation CPU 0 warning: IPC 0.027613 < 0.05
Simulation CPU 0 warning: IPC 0.030096 < 0.05
Simulation CPU 0 critical: IPC 0.014274 < 0.02
Heartbeat CPU 0 instructions: 1640000271 cycles: 12322758220 heartbeat IPC: 0.09987 cumulative IPC: 0.1331 (Simulation time: 21 hr 45 min 25 sec)
Simulation CPU 0 warning: IPC 0.030106 < 0.05
Simulation CPU 0 warning: IPC 0.030096 < 0.05
Heartbeat CPU 0 instructions: 1650000274 cycles: 12376628199 heartbeat IPC: 0.1856 cumulative IPC: 0.1333 (Simulation time: 21 hr 51 min 30 sec)
Simulation CPU 0 warning: IPC 0.030332 < 0.05
Simulation CPU 0 warning: IPC 0.030096 < 0.05
Simulation CPU 0 warning: IPC 0.029502 < 0.05
Simulation CPU 0 warning: IPC 0.027634 < 0.05
Simulation CPU 0 warning: IPC 0.022734 < 0.05
Simulation CPU 0 panic: IPC 0.007371 < 0.01
Heartbeat CPU 0 instructions: 1660000275 cycles: 12467497672 heartbeat IPC: 0.11 cumulative IPC: 0.1331 (Simulation time: 22 hr 01 min 29 sec)
Simulation CPU 0 warning: IPC 0.030094 < 0.05
Simulation CPU 0 warning: IPC 0.030105 < 0.05
Heartbeat CPU 0 instructions: 1670000275 cycles: 12521354218 heartbeat IPC: 0.1857 cumulative IPC: 0.1334 (Simulation time: 22 hr 06 min 38 sec)
Simulation CPU 0 warning: IPC 0.030094 < 0.05
Simulation CPU 0 warning: IPC 0.027623 < 0.05
Simulation CPU 0 warning: IPC 0.030086 < 0.05
Simulation CPU 0 critical: IPC 0.010695 < 0.02
Heartbeat CPU 0 instructions: 1680000276 cycles: 12602922490 heartbeat IPC: 0.1226 cumulative IPC: 0.1333 (Simulation time: 22 hr 13 min 59 sec)
Simulation CPU 0 critical: IPC 0.013513 < 0.02
Simulation CPU 0 critical: IPC 0.01659 < 0.02
Simulation CPU 0 warning: IPC 0.030105 < 0.05
Simulation CPU 0 warning: IPC 0.030323 < 0.05
Simulation CPU 0 warning: IPC 0.030106 < 0.05
Heartbeat CPU 0 instructions: 1690000279 cycles: 12684981618 heartbeat IPC: 0.1219 cumulative IPC: 0.1332 (Simulation time: 22 hr 22 min 39 sec)
Simulation CPU 0 warning: IPC 0.025913 < 0.05
[ERROR_CYCLE] Error added at CPU cycle 12695832271, interval 18, pending count: 1
[DRAM_CYCLE_ERROR] Cycle-based error applied! address=0x735d24f00 additional_latency=2459910500 cycles
Simulation CPU 0 warning: IPC 0.027624 < 0.05
Simulation CPU 0 warning: IPC 0.030106 < 0.05
Simulation CPU 0 warning: IPC 0.02873 < 0.05
Heartbeat CPU 0 instructions: 1700000280 cycles: 12757959490 heartbeat IPC: 0.137 cumulative IPC: 0.1333 (Simulation time: 22 hr 31 min 08 sec)
Simulation CPU 0 warning: IPC 0.030094 < 0.05
Simulation CPU 0 warning: IPC 0.030086 < 0.05
Simulation CPU 0 panic: IPC 0.0042893 < 0.01
Heartbeat CPU 0 instructions: 1710000281 cycles: 12848907662 heartbeat IPC: 0.11 cumulative IPC: 0.1331 (Simulation time: 22 hr 41 min 41 sec)
Simulation CPU 0 warning: IPC 0.027615 < 0.05
Simulation CPU 0 warning: IPC 0.030094 < 0.05
Heartbeat CPU 0 instructions: 1720000282 cycles: 12903302105 heartbeat IPC: 0.1838 cumulative IPC: 0.1333 (Simulation time: 22 hr 48 min 22 sec)
Simulation CPU 0 warning: IPC 0.030086 < 0.05
Simulation CPU 0 warning: IPC 0.030105 < 0.05
Simulation CPU 0 warning: IPC 0.030105 < 0.05
Simulation CPU 0 warning: IPC 0.022324 < 0.05
Heartbeat CPU 0 instructions: 1730000283 cycles: 12976522320 heartbeat IPC: 0.1366 cumulative IPC: 0.1333 (Simulation time: 22 hr 56 min 59 sec)
Simulation CPU 0 warning: IPC 0.027624 < 0.05
Simulation CPU 0 warning: IPC 0.030096 < 0.05
Simulation CPU 0 warning: IPC 0.02515 < 0.05
Simulation CPU 0 warning: IPC 0.039687 < 0.05
Heartbeat CPU 0 instructions: 1740000283 cycles: 13040314686 heartbeat IPC: 0.1568 cumulative IPC: 0.1334 (Simulation time: 23 hr 04 min 43 sec)
Simulation CPU 0 warning: IPC 0.030084 < 0.05
Simulation CPU 0 warning: IPC 0.030342 < 0.05
Simulation CPU 0 warning: IPC 0.030085 < 0.05
Heartbeat CPU 0 instructions: 1750000286 cycles: 13131328710 heartbeat IPC: 0.1099 cumulative IPC: 0.1333 (Simulation time: 23 hr 15 min 15 sec)
Simulation CPU 0 warning: IPC 0.027624 < 0.05
Simulation CPU 0 warning: IPC 0.030094 < 0.05
Simulation CPU 0 panic: IPC 0.0035168 < 0.01
Heartbeat CPU 0 instructions: 1760000289 cycles: 13194591041 heartbeat IPC: 0.1581 cumulative IPC: 0.1334 (Simulation time: 23 hr 22 min 36 sec)
Simulation CPU 0 warning: IPC 0.030106 < 0.05
Simulation CPU 0 warning: IPC 0.030105 < 0.05
Simulation CPU 0 warning: IPC 0.03033 < 0.05
Simulation CPU 0 warning: IPC 0.030106 < 0.05
Simulation CPU 0 critical: IPC 0.018735 < 0.02
Heartbeat CPU 0 instructions: 1770000291 cycles: 13276517213 heartbeat IPC: 0.1221 cumulative IPC: 0.1333 (Simulation time: 23 hr 31 min 40 sec)
Simulation CPU 0 warning: IPC 0.027613 < 0.05
Simulation CPU 0 warning: IPC 0.030096 < 0.05
Simulation CPU 0 warning: IPC 0.021561 < 0.05
Heartbeat CPU 0 instructions: 1780000291 cycles: 13349349379 heartbeat IPC: 0.1373 cumulative IPC: 0.1333 (Simulation time: 23 hr 39 min 33 sec)
Simulation CPU 0 warning: IPC 0.035034 < 0.05
Simulation CPU 0 warning: IPC 0.027215 < 0.05
Simulation CPU 0 panic: IPC 0.0028908 < 0.01
[ERROR_CYCLE] Error added at CPU cycle 13401156286, interval 19, pending count: 1
[DRAM_CYCLE_ERROR] Cycle-based error applied! address=0x6bc5097c0 additional_latency=2459910500 cycles
Heartbeat CPU 0 instructions: 1790000291 cycles: 13412917459 heartbeat IPC: 0.1573 cumulative IPC: 0.1335 (Simulation time: 23 hr 46 min 59 sec)
Simulation CPU 0 warning: IPC 0.027624 < 0.05
Simulation CPU 0 warning: IPC 0.030021 < 0.05
Simulation CPU 0 warning: IPC 0.030105 < 0.05
Simulation CPU 0 warning: IPC 0.030096 < 0.05
Heartbeat CPU 0 instructions: 1800000291 cycles: 13494535208 heartbeat IPC: 0.1225 cumulative IPC: 0.1334 (Simulation time: 23 hr 56 min 12 sec)
Simulation CPU 0 warning: IPC 0.03032 < 0.05
Simulation CPU 0 warning: IPC 0.030096 < 0.05
Simulation CPU 0 critical: IPC 0.015165 < 0.02
Heartbeat CPU 0 instructions: 1810000292 cycles: 13548395887 heartbeat IPC: 0.1857 cumulative IPC: 0.1336 (Simulation time: 00 hr 02 min 25 sec)
Simulation CPU 0 warning: IPC 0.027603 < 0.05
Simulation CPU 0 warning: IPC 0.030106 < 0.05
Simulation CPU 0 critical: IPC 0.017972 < 0.02
Simulation CPU 0 warning: IPC 0.030094 < 0.05
Heartbeat CPU 0 instructions: 1820000294 cycles: 13648616077 heartbeat IPC: 0.09978 cumulative IPC: 0.1333 (Simulation time: 00 hr 14 min 06 sec)
Simulation CPU 0 warning: IPC 0.023625 < 0.05
Simulation CPU 0 panic: IPC 0.00648 < 0.01
Heartbeat CPU 0 instructions: 1830000295 cycles: 13693357985 heartbeat IPC: 0.2235 cumulative IPC: 0.1336 (Simulation time: 00 hr 19 min 23 sec)
Simulation CPU 0 warning: IPC 0.027634 < 0.05
Simulation CPU 0 warning: IPC 0.026432 < 0.05
Simulation CPU 0 panic: IPC 0.0036539 < 0.01
Simulation CPU 0 warning: IPC 0.030094 < 0.05
Simulation CPU 0 warning: IPC 0.030096 < 0.05
Heartbeat CPU 0 instructions: 1840000298 cycles: 13784294052 heartbeat IPC: 0.11 cumulative IPC: 0.1335 (Simulation time: 00 hr 29 min 46 sec)
Simulation CPU 0 warning: IPC 0.03032 < 0.05
Simulation CPU 0 warning: IPC 0.030096 < 0.05
Simulation CPU 0 critical: IPC 0.011576 < 0.02
Heartbeat CPU 0 instructions: 1850000300 cycles: 13847560212 heartbeat IPC: 0.1581 cumulative IPC: 0.1336 (Simulation time: 00 hr 37 min 02 sec)
Simulation CPU 0 warning: IPC 0.027613 < 0.05
Simulation CPU 0 warning: IPC 0.030105 < 0.05
Simulation CPU 0 critical: IPC 0.014393 < 0.02
Simulation CPU 0 warning: IPC 0.030106 < 0.05
Simulation CPU 0 warning: IPC 0.030105 < 0.05
Heartbeat CPU 0 instructions: 1860000302 cycles: 13929594598 heartbeat IPC: 0.1219 cumulative IPC: 0.1335 (Simulation time: 00 hr 46 min 39 sec)
Simulation CPU 0 warning: IPC 0.030342 < 0.05
Simulation CPU 0 warning: IPC 0.041995 < 0.05
Simulation CPU 0 warning: IPC 0.027624 < 0.05
Simulation CPU 0 warning: IPC 0.022853 < 0.05
Simulation CPU 0 panic: IPC 0.0072432 < 0.01
Heartbeat CPU 0 instructions: 1870000303 cycles: 14020711198 heartbeat IPC: 0.1097 cumulative IPC: 0.1334 (Simulation time: 00 hr 57 min 06 sec)
Simulation CPU 0 warning: IPC 0.030075 < 0.05
Simulation CPU 0 warning: IPC 0.030105 < 0.05
Heartbeat CPU 0 instructions: 1880000303 cycles: 14065340606 heartbeat IPC: 0.2241 cumulative IPC: 0.1337 (Simulation time: 01 hr 02 min 23 sec)
Simulation CPU 0 warning: IPC 0.030094 < 0.05
Simulation CPU 0 panic: IPC 0.007987 < 0.01
[ERROR_CYCLE] Error added at CPU cycle 14106480301, interval 20, pending count: 1
[DRAM_CYCLE_ERROR] Cycle-based error applied! address=0x1ee000000 additional_latency=2459910500 cycles
Simulation CPU 0 panic: IPC 0 < 0.01
Simulation CPU 0 warning: IPC 0.027613 < 0.05
Simulation CPU 0 warning: IPC 0.030106 < 0.05
Simulation CPU 0 critical: IPC 0.010804 < 0.02
Heartbeat CPU 0 instructions: 1890000304 cycles: 14156777883 heartbeat IPC: 0.1094 cumulative IPC: 0.1335 (Simulation time: 01 hr 11 min 20 sec)
Simulation CPU 0 warning: IPC 0.030105 < 0.05
Simulation CPU 0 warning: IPC 0.030096 < 0.05
Heartbeat CPU 0 instructions: 1900000307 cycles: 14219958375 heartbeat IPC: 0.1583 cumulative IPC: 0.1336 (Simulation time: 01 hr 18 min 23 sec)
Simulation CPU 0 warning: IPC 0.026031 < 0.05
Simulation CPU 0 warning: IPC 0.027615 < 0.05
Simulation CPU 0 warning: IPC 0.030106 < 0.05
Heartbeat CPU 0 instructions: 1910000307 cycles: 14310792450 heartbeat IPC: 0.1101 cumulative IPC: 0.1335 (Simulation time: 01 hr 28 min 12 sec)
Simulation CPU 0 warning: IPC 0.030085 < 0.05
Simulation CPU 0 warning: IPC 0.030105 < 0.05
Heartbeat CPU 0 instructions: 1920000308 cycles: 14364747376 heartbeat IPC: 0.1853 cumulative IPC: 0.1337 (Simulation time: 01 hr 34 min 02 sec)
Simulation CPU 0 warning: IPC 0.030333 < 0.05
Simulation CPU 0 warning: IPC 0.030094 < 0.05
Simulation CPU 0 panic: IPC 0.004398 < 0.01
Simulation CPU 0 warning: IPC 0.027624 < 0.05
Simulation CPU 0 warning: IPC 0.030085 < 0.05
Simulation CPU 0 panic: IPC 0.0072241 < 0.01
Heartbeat CPU 0 instructions: 1930000308 cycles: 14455990993 heartbeat IPC: 0.1096 cumulative IPC: 0.1335 (Simulation time: 01 hr 43 min 06 sec)
Simulation CPU 0 warning: IPC 0.030105 < 0.05
Simulation CPU 0 warning: IPC 0.030096 < 0.05
Heartbeat CPU 0 instructions: 1940000308 cycles: 14500847568 heartbeat IPC: 0.2229 cumulative IPC: 0.1338 (Simulation time: 01 hr 47 min 40 sec)
Simulation CPU 0 warning: IPC 0.027624 < 0.05
Simulation CPU 0 warning: IPC 0.036692 < 0.05
Heartbeat CPU 0 instructions: 1950000310 cycles: 14591768955 heartbeat IPC: 0.11 cumulative IPC: 0.1336 (Simulation time: 01 hr 57 min 15 sec)
Simulation CPU 0 warning: IPC 0.030106 < 0.05
Simulation CPU 0 warning: IPC 0.030093 < 0.05
Simulation CPU 0 warning: IPC 0.030332 < 0.05
Simulation CPU 0 warning: IPC 0.030094 < 0.05
Simulation CPU 0 panic: IPC 0.0008188 < 0.01
Heartbeat CPU 0 instructions: 1960000310 cycles: 14682742279 heartbeat IPC: 0.1099 cumulative IPC: 0.1335 (Simulation time: 02 hr 07 min 51 sec)
Simulation CPU 0 warning: IPC 0.027624 < 0.05
Simulation CPU 0 warning: IPC 0.030085 < 0.05
Simulation CPU 0 panic: IPC 0.0036348 < 0.01
Heartbeat CPU 0 instructions: 1970000314 cycles: 14737014542 heartbeat IPC: 0.1843 cumulative IPC: 0.1337 (Simulation time: 02 hr 13 min 44 sec)
Simulation CPU 0 warning: IPC 0.030096 < 0.05
Simulation CPU 0 warning: IPC 0.030105 < 0.05
Simulation CPU 0 warning: IPC 0.030106 < 0.05
Simulation CPU 0 critical: IPC 0.018863 < 0.02
[ERROR_CYCLE] Error added at CPU cycle 14811804315, interval 21, pending count: 1
[DRAM_CYCLE_ERROR] Cycle-based error applied! address=0x6699d2110 additional_latency=2459910500 cycles
Simulation CPU 0 panic: IPC 0 < 0.01
Heartbeat CPU 0 instructions: 1980000315 cycles: 14828406037 heartbeat IPC: 0.1094 cumulative IPC: 0.1335 (Simulation time: 02 hr 23 min 16 sec)
Simulation CPU 0 warning: IPC 0.049067 < 0.05
Simulation CPU 0 warning: IPC 0.030342 < 0.05
Heartbeat CPU 0 instructions: 1990000316 cycles: 14882188980 heartbeat IPC: 0.1859 cumulative IPC: 0.1337 (Simulation time: 02 hr 29 min 21 sec)
Simulation CPU 0 warning: IPC 0.030105 < 0.05
Simulation CPU 0 warning: IPC 0.030084 < 0.05
Simulation CPU 0 warning: IPC 0.030332 < 0.05
Simulation CPU 0 warning: IPC 0.027323 < 0.05
Simulation CPU 0 panic: IPC 0.0027727 < 0.01

=== ERROR PAGE STATISTICS ===
Mode: CYCLE
Error Cycle Interval: 705324015 CPU cycles
Total Error Accesses: 21
==============================
Simulation finished CPU 0 instructions: 1999999656 cycles: 14973004476 cumulative IPC: 0.1336 (Simulation time: 02 hr 38 min 50 sec)
Simulation complete CPU 0 instructions: 1999999656 cycles: 14973004476 cumulative IPC: 0.1336 (Simulation time: 02 hr 38 min 50 sec)

ChampSim completed all CPUs

=== Simulation ===
CPU 0 runs test_traces/603.bwaves_s-2931B.champsimtrace.xz

Region of Interest Statistics

CPU 0 cumulative IPC: 0.1336 instructions: 1999999656 cycles: 14973004476
CPU 0 Branch Prediction Accuracy: 80.62% MPKI: 1.636 Average ROB Occupancy at Mispredict: 300.1
Branch type MPKI
BRANCH_DIRECT_JUMP: 0
BRANCH_INDIRECT: 0
BRANCH_CONDITIONAL: 1.636
BRANCH_DIRECT_CALL: 0
BRANCH_INDIRECT_CALL: 0
BRANCH_RETURN: 0

cpu0->cpu0_STLB TOTAL        ACCESS:   71420127 HIT:   71418645 MISS:       1482 MSHR_MERGE:          0
cpu0->cpu0_STLB LOAD         ACCESS:   71420127 HIT:   71418645 MISS:       1482 MSHR_MERGE:          0
cpu0->cpu0_STLB RFO          ACCESS:          0 HIT:          0 MISS:          0 MSHR_MERGE:          0
cpu0->cpu0_STLB PREFETCH     ACCESS:          0 HIT:          0 MISS:          0 MSHR_MERGE:          0
cpu0->cpu0_STLB WRITE        ACCESS:          0 HIT:          0 MISS:          0 MSHR_MERGE:          0
cpu0->cpu0_STLB TRANSLATION  ACCESS:          0 HIT:          0 MISS:          0 MSHR_MERGE:          0
cpu0->cpu0_STLB PREFETCH REQUESTED:          0 ISSUED:          0 USEFUL:          0 USELESS:          0
cpu0->cpu0_STLB AVERAGE MISS LATENCY: 9.39e+06 cycles
cpu0->cpu0_L2C TOTAL        ACCESS:   46727389 HIT:   16991265 MISS:   29736124 MSHR_MERGE:          0
cpu0->cpu0_L2C LOAD         ACCESS:   20716907 HIT:    2888807 MISS:   17828100 MSHR_MERGE:          0
cpu0->cpu0_L2C RFO          ACCESS:   12917043 HIT:    1009350 MISS:   11907693 MSHR_MERGE:          0
cpu0->cpu0_L2C PREFETCH     ACCESS:          0 HIT:          0 MISS:          0 MSHR_MERGE:          0
cpu0->cpu0_L2C WRITE        ACCESS:   13093439 HIT:   13093108 MISS:        331 MSHR_MERGE:          0
cpu0->cpu0_L2C TRANSLATION  ACCESS:          0 HIT:          0 MISS:          0 MSHR_MERGE:          0
cpu0->cpu0_L2C PREFETCH REQUESTED:          0 ISSUED:          0 USEFUL:          0 USELESS:          0
cpu0->cpu0_L2C AVERAGE MISS LATENCY: 119.7 cycles
cpu0->cpu0_L1I TOTAL        ACCESS:  226636721 HIT:  226636648 MISS:         73 MSHR_MERGE:         24
cpu0->cpu0_L1I LOAD         ACCESS:  226636721 HIT:  226636648 MISS:         73 MSHR_MERGE:         24
cpu0->cpu0_L1I RFO          ACCESS:          0 HIT:          0 MISS:          0 MSHR_MERGE:          0
cpu0->cpu0_L1I PREFETCH     ACCESS:          0 HIT:          0 MISS:          0 MSHR_MERGE:          0
cpu0->cpu0_L1I WRITE        ACCESS:          0 HIT:          0 MISS:          0 MSHR_MERGE:          0
cpu0->cpu0_L1I TRANSLATION  ACCESS:          0 HIT:          0 MISS:          0 MSHR_MERGE:          0
cpu0->cpu0_L1I PREFETCH REQUESTED:          0 ISSUED:          0 USEFUL:          0 USELESS:          0
cpu0->cpu0_L1I AVERAGE MISS LATENCY: 135.2 cycles
cpu0->cpu0_L1D TOTAL        ACCESS:  661155574 HIT:  609635909 MISS:   51519665 MSHR_MERGE:   17851002
cpu0->cpu0_L1D LOAD         ACCESS:  295244336 HIT:  274302509 MISS:   20941827 MSHR_MERGE:     224726
cpu0->cpu0_L1D RFO          ACCESS:          0 HIT:          0 MISS:          0 MSHR_MERGE:          0
cpu0->cpu0_L1D PREFETCH     ACCESS:          0 HIT:          0 MISS:          0 MSHR_MERGE:          0
cpu0->cpu0_L1D WRITE        ACCESS:  365911238 HIT:  335333400 MISS:   30577838 MSHR_MERGE:   17626276
cpu0->cpu0_L1D TRANSLATION  ACCESS:          0 HIT:          0 MISS:          0 MSHR_MERGE:          0
cpu0->cpu0_L1D PREFETCH REQUESTED:          0 ISSUED:          0 USEFUL:          0 USELESS:          0
cpu0->cpu0_L1D AVERAGE MISS LATENCY: 114.7 cycles
cpu0->cpu0_ITLB TOTAL        ACCESS:  180947069 HIT:  180947062 MISS:          7 MSHR_MERGE:          6
cpu0->cpu0_ITLB LOAD         ACCESS:  180947069 HIT:  180947062 MISS:          7 MSHR_MERGE:          6
cpu0->cpu0_ITLB RFO          ACCESS:          0 HIT:          0 MISS:          0 MSHR_MERGE:          0
cpu0->cpu0_ITLB PREFETCH     ACCESS:          0 HIT:          0 MISS:          0 MSHR_MERGE:          0
cpu0->cpu0_ITLB WRITE        ACCESS:          0 HIT:          0 MISS:          0 MSHR_MERGE:          0
cpu0->cpu0_ITLB TRANSLATION  ACCESS:          0 HIT:          0 MISS:          0 MSHR_MERGE:          0
cpu0->cpu0_ITLB PREFETCH REQUESTED:          0 ISSUED:          0 USEFUL:          0 USELESS:          0
cpu0->cpu0_ITLB AVERAGE MISS LATENCY: 1.848e+07 cycles
cpu0->cpu0_DTLB TOTAL        ACCESS:  562632599 HIT:  484865993 MISS:   77766606 MSHR_MERGE:    6346479
cpu0->cpu0_DTLB LOAD         ACCESS:  562632599 HIT:  484865993 MISS:   77766606 MSHR_MERGE:    6346479
cpu0->cpu0_DTLB RFO          ACCESS:          0 HIT:          0 MISS:          0 MSHR_MERGE:          0
cpu0->cpu0_DTLB PREFETCH     ACCESS:          0 HIT:          0 MISS:          0 MSHR_MERGE:          0
cpu0->cpu0_DTLB WRITE        ACCESS:          0 HIT:          0 MISS:          0 MSHR_MERGE:          0
cpu0->cpu0_DTLB TRANSLATION  ACCESS:          0 HIT:          0 MISS:          0 MSHR_MERGE:          0
cpu0->cpu0_DTLB PREFETCH REQUESTED:          0 ISSUED:          0 USEFUL:          0 USELESS:          0
cpu0->cpu0_DTLB AVERAGE MISS LATENCY: 199.6 cycles
cpu0->LLC TOTAL        ACCESS:   41641349 HIT:   14382120 MISS:   27259229 MSHR_MERGE:          0
cpu0->LLC LOAD         ACCESS:   17828100 HIT:    2476877 MISS:   15351223 MSHR_MERGE:          0
cpu0->LLC RFO          ACCESS:   11907693 HIT:          0 MISS:   11907693 MSHR_MERGE:          0
cpu0->LLC PREFETCH     ACCESS:          0 HIT:          0 MISS:          0 MSHR_MERGE:          0
cpu0->LLC WRITE        ACCESS:   11905556 HIT:   11905243 MISS:        313 MSHR_MERGE:          0
cpu0->LLC TRANSLATION  ACCESS:          0 HIT:          0 MISS:          0 MSHR_MERGE:          0
cpu0->LLC PREFETCH REQUESTED:          0 ISSUED:          0 USEFUL:          0 USELESS:          0
cpu0->LLC AVERAGE MISS LATENCY: 113.2 cycles

DRAM Statistics

Channel 0 RQ ROW_BUFFER_HIT:     297114
  ROW_BUFFER_MISS:   13333908
  AVG DBUS CONGESTED CYCLE: 10.99
Channel 0 WQ ROW_BUFFER_HIT:    2776660
  ROW_BUFFER_MISS:    3170350
  FULL:          0
Channel 0 REFRESHES ISSUED:    1247670

Channel 1 RQ ROW_BUFFER_HIT:     294449
  ROW_BUFFER_MISS:   13336425
  AVG DBUS CONGESTED CYCLE: 10.98
Channel 1 WQ ROW_BUFFER_HIT:    2781890
  ROW_BUFFER_MISS:    3165291
  FULL:          0
Channel 1 REFRESHES ISSUED:    1247670
