[VMEM] WARNING: physical memory size is smaller than virtual memory size.

*** ChampSim Multicore Out-of-Order Simulator ***
Warmup Instructions: 0
Simulation Instructions: 9223372036854775807
Number of CPUs: 1
Page size: 4096

Off-chip DRAM Size: 32 GiB Channels: 2 Width: 32-bit Data Rate: 4807 MT/s
[ERROR_PAGE_MANAGER] Error latency: 173500 
[ERROR_PAGE_MANAGER] Random seed: 54321 (fixed for preload reproducibility)
[ERROR_PAGE_MANAGER] Cycle-based error modeling enabled
[ERROR_PAGE_MANAGER] Errors per interval: 1
[ERROR_PAGE_MANAGER] Error cycle interval: 705324015 cycles

=== ERROR PAGE STATISTICS ===
Mode: CYCLE
Error Cycle Interval: 705324015 CPU cycles
Total Error Accesses: 0
==============================
Warmup finished CPU 0 instructions: 0 cycles: 1 cumulative IPC: 0 (Simulation time: 00 hr 00 min 00 sec)
Warmup complete CPU 0 instructions: 0 cycles: 1 cumulative IPC: 0 (Simulation time: 00 hr 00 min 00 sec)
Heartbeat CPU 0 instructions: 10000001 cycles: 15855523 heartbeat IPC: 0.6307 cumulative IPC: 0.6307 (Simulation time: 00 hr 01 min 55 sec)
Heartbeat CPU 0 instructions: 20000004 cycles: 31664391 heartbeat IPC: 0.6326 cumulative IPC: 0.6316 (Simulation time: 00 hr 03 min 54 sec)
Heartbeat CPU 0 instructions: 30000005 cycles: 47452987 heartbeat IPC: 0.6334 cumulative IPC: 0.6322 (Simulation time: 00 hr 05 min 53 sec)
Heartbeat CPU 0 instructions: 40000008 cycles: 63254407 heartbeat IPC: 0.6329 cumulative IPC: 0.6324 (Simulation time: 00 hr 08 min 14 sec)
Heartbeat CPU 0 instructions: 50000010 cycles: 79043485 heartbeat IPC: 0.6333 cumulative IPC: 0.6326 (Simulation time: 00 hr 10 min 34 sec)
Heartbeat CPU 0 instructions: 60000010 cycles: 94831504 heartbeat IPC: 0.6334 cumulative IPC: 0.6327 (Simulation time: 00 hr 12 min 54 sec)
Heartbeat CPU 0 instructions: 70000011 cycles: 110606188 heartbeat IPC: 0.6339 cumulative IPC: 0.6329 (Simulation time: 00 hr 15 min 15 sec)
Heartbeat CPU 0 instructions: 80000015 cycles: 126348005 heartbeat IPC: 0.6353 cumulative IPC: 0.6332 (Simulation time: 00 hr 17 min 35 sec)
Heartbeat CPU 0 instructions: 90000016 cycles: 142142248 heartbeat IPC: 0.6331 cumulative IPC: 0.6332 (Simulation time: 00 hr 19 min 47 sec)
Heartbeat CPU 0 instructions: 100000016 cycles: 157925850 heartbeat IPC: 0.6336 cumulative IPC: 0.6332 (Simulation time: 00 hr 21 min 41 sec)
Heartbeat CPU 0 instructions: 110000017 cycles: 173681571 heartbeat IPC: 0.6347 cumulative IPC: 0.6333 (Simulation time: 00 hr 23 min 45 sec)
Heartbeat CPU 0 instructions: 120000017 cycles: 189476072 heartbeat IPC: 0.6331 cumulative IPC: 0.6333 (Simulation time: 00 hr 26 min 04 sec)
Heartbeat CPU 0 instructions: 130000019 cycles: 205263952 heartbeat IPC: 0.6334 cumulative IPC: 0.6333 (Simulation time: 00 hr 28 min 22 sec)
Heartbeat CPU 0 instructions: 140000021 cycles: 221023543 heartbeat IPC: 0.6345 cumulative IPC: 0.6334 (Simulation time: 00 hr 30 min 41 sec)
Heartbeat CPU 0 instructions: 150000025 cycles: 236816276 heartbeat IPC: 0.6332 cumulative IPC: 0.6334 (Simulation time: 00 hr 33 min 00 sec)
Heartbeat CPU 0 instructions: 160000025 cycles: 252587199 heartbeat IPC: 0.6341 cumulative IPC: 0.6334 (Simulation time: 00 hr 35 min 19 sec)
Heartbeat CPU 0 instructions: 170000026 cycles: 268351792 heartbeat IPC: 0.6343 cumulative IPC: 0.6335 (Simulation time: 00 hr 37 min 38 sec)
Heartbeat CPU 0 instructions: 180000027 cycles: 284114152 heartbeat IPC: 0.6344 cumulative IPC: 0.6335 (Simulation time: 00 hr 39 min 56 sec)
Heartbeat CPU 0 instructions: 190000028 cycles: 299903348 heartbeat IPC: 0.6333 cumulative IPC: 0.6335 (Simulation time: 00 hr 42 min 15 sec)
Heartbeat CPU 0 instructions: 200000030 cycles: 315658143 heartbeat IPC: 0.6347 cumulative IPC: 0.6336 (Simulation time: 00 hr 44 min 10 sec)
Heartbeat CPU 0 instructions: 210000032 cycles: 331433570 heartbeat IPC: 0.6339 cumulative IPC: 0.6336 (Simulation time: 00 hr 46 min 27 sec)
Heartbeat CPU 0 instructions: 220000034 cycles: 347194306 heartbeat IPC: 0.6345 cumulative IPC: 0.6337 (Simulation time: 00 hr 48 min 44 sec)
Heartbeat CPU 0 instructions: 230000034 cycles: 362961192 heartbeat IPC: 0.6342 cumulative IPC: 0.6337 (Simulation time: 00 hr 51 min 01 sec)
Heartbeat CPU 0 instructions: 240000034 cycles: 378734454 heartbeat IPC: 0.634 cumulative IPC: 0.6337 (Simulation time: 00 hr 53 min 18 sec)
Heartbeat CPU 0 instructions: 250000038 cycles: 394506144 heartbeat IPC: 0.634 cumulative IPC: 0.6337 (Simulation time: 00 hr 55 min 34 sec)
Heartbeat CPU 0 instructions: 260000040 cycles: 410292763 heartbeat IPC: 0.6334 cumulative IPC: 0.6337 (Simulation time: 00 hr 57 min 25 sec)
Heartbeat CPU 0 instructions: 270000041 cycles: 426072829 heartbeat IPC: 0.6337 cumulative IPC: 0.6337 (Simulation time: 00 hr 59 min 03 sec)
Heartbeat CPU 0 instructions: 280000041 cycles: 457676466 heartbeat IPC: 0.3164 cumulative IPC: 0.6118 (Simulation time: 01 hr 02 min 53 sec)
Heartbeat CPU 0 instructions: 290000043 cycles: 489154203 heartbeat IPC: 0.3177 cumulative IPC: 0.5929 (Simulation time: 01 hr 07 min 23 sec)
Heartbeat CPU 0 instructions: 300000045 cycles: 505554494 heartbeat IPC: 0.6097 cumulative IPC: 0.5934 (Simulation time: 01 hr 09 min 21 sec)
Heartbeat CPU 0 instructions: 310000049 cycles: 521265518 heartbeat IPC: 0.6365 cumulative IPC: 0.5947 (Simulation time: 01 hr 11 min 35 sec)
Heartbeat CPU 0 instructions: 320000049 cycles: 536968145 heartbeat IPC: 0.6368 cumulative IPC: 0.5959 (Simulation time: 01 hr 13 min 20 sec)
Heartbeat CPU 0 instructions: 330000049 cycles: 551814793 heartbeat IPC: 0.6736 cumulative IPC: 0.598 (Simulation time: 01 hr 15 min 21 sec)
Heartbeat CPU 0 instructions: 340000051 cycles: 564807421 heartbeat IPC: 0.7697 cumulative IPC: 0.602 (Simulation time: 01 hr 16 min 56 sec)
Heartbeat CPU 0 instructions: 350000052 cycles: 577816891 heartbeat IPC: 0.7687 cumulative IPC: 0.6057 (Simulation time: 01 hr 18 min 25 sec)
Heartbeat CPU 0 instructions: 360000053 cycles: 590815463 heartbeat IPC: 0.7693 cumulative IPC: 0.6093 (Simulation time: 01 hr 19 min 50 sec)
Heartbeat CPU 0 instructions: 370000054 cycles: 603827248 heartbeat IPC: 0.7685 cumulative IPC: 0.6128 (Simulation time: 01 hr 21 min 32 sec)
Heartbeat CPU 0 instructions: 380000058 cycles: 616812049 heartbeat IPC: 0.7701 cumulative IPC: 0.6161 (Simulation time: 01 hr 23 min 09 sec)
Heartbeat CPU 0 instructions: 390000059 cycles: 629810936 heartbeat IPC: 0.7693 cumulative IPC: 0.6192 (Simulation time: 01 hr 25 min 08 sec)
Heartbeat CPU 0 instructions: 400000059 cycles: 642800732 heartbeat IPC: 0.7698 cumulative IPC: 0.6223 (Simulation time: 01 hr 27 min 08 sec)
Heartbeat CPU 0 instructions: 410000061 cycles: 655787207 heartbeat IPC: 0.77 cumulative IPC: 0.6252 (Simulation time: 01 hr 28 min 52 sec)
Heartbeat CPU 0 instructions: 420000062 cycles: 668774315 heartbeat IPC: 0.77 cumulative IPC: 0.628 (Simulation time: 01 hr 30 min 38 sec)
Heartbeat CPU 0 instructions: 430000062 cycles: 681758970 heartbeat IPC: 0.7701 cumulative IPC: 0.6307 (Simulation time: 01 hr 32 min 21 sec)
Heartbeat CPU 0 instructions: 440000063 cycles: 694753467 heartbeat IPC: 0.7696 cumulative IPC: 0.6333 (Simulation time: 01 hr 34 min 11 sec)
[ERROR_CYCLE] Error added at CPU cycle 705324016, interval 1, pending count: 1
[DRAM_CYCLE_ERROR] Cycle-based error applied! address=0x37739efc0 additional_latency=173500 cycles
Heartbeat CPU 0 instructions: 450000066 cycles: 707740337 heartbeat IPC: 0.77 cumulative IPC: 0.6358 (Simulation time: 01 hr 36 min 07 sec)
Heartbeat CPU 0 instructions: 460000067 cycles: 720737296 heartbeat IPC: 0.7694 cumulative IPC: 0.6382 (Simulation time: 01 hr 38 min 04 sec)
Heartbeat CPU 0 instructions: 470000069 cycles: 733729840 heartbeat IPC: 0.7697 cumulative IPC: 0.6406 (Simulation time: 01 hr 40 min 00 sec)
Heartbeat CPU 0 instructions: 480000069 cycles: 746698801 heartbeat IPC: 0.7711 cumulative IPC: 0.6428 (Simulation time: 01 hr 41 min 40 sec)
Heartbeat CPU 0 instructions: 490000071 cycles: 759690948 heartbeat IPC: 0.7697 cumulative IPC: 0.645 (Simulation time: 01 hr 43 min 35 sec)
Heartbeat CPU 0 instructions: 500000074 cycles: 772691174 heartbeat IPC: 0.7692 cumulative IPC: 0.6471 (Simulation time: 01 hr 45 min 20 sec)
Heartbeat CPU 0 instructions: 510000078 cycles: 785677759 heartbeat IPC: 0.77 cumulative IPC: 0.6491 (Simulation time: 01 hr 47 min 18 sec)
Heartbeat CPU 0 instructions: 520000082 cycles: 798672623 heartbeat IPC: 0.7695 cumulative IPC: 0.6511 (Simulation time: 01 hr 49 min 16 sec)
Heartbeat CPU 0 instructions: 530000083 cycles: 811662931 heartbeat IPC: 0.7698 cumulative IPC: 0.653 (Simulation time: 01 hr 51 min 14 sec)
Heartbeat CPU 0 instructions: 540000083 cycles: 824662912 heartbeat IPC: 0.7692 cumulative IPC: 0.6548 (Simulation time: 01 hr 52 min 59 sec)
Heartbeat CPU 0 instructions: 550000084 cycles: 837663745 heartbeat IPC: 0.7692 cumulative IPC: 0.6566 (Simulation time: 01 hr 54 min 31 sec)
Heartbeat CPU 0 instructions: 560000086 cycles: 850647733 heartbeat IPC: 0.7702 cumulative IPC: 0.6583 (Simulation time: 01 hr 56 min 00 sec)
Heartbeat CPU 0 instructions: 570000086 cycles: 863649653 heartbeat IPC: 0.7691 cumulative IPC: 0.66 (Simulation time: 01 hr 57 min 44 sec)
Heartbeat CPU 0 instructions: 580000086 cycles: 876649647 heartbeat IPC: 0.7692 cumulative IPC: 0.6616 (Simulation time: 01 hr 59 min 21 sec)
Heartbeat CPU 0 instructions: 590000088 cycles: 889640803 heartbeat IPC: 0.7698 cumulative IPC: 0.6632 (Simulation time: 02 hr 01 min 03 sec)
Heartbeat CPU 0 instructions: 600000089 cycles: 902633066 heartbeat IPC: 0.7697 cumulative IPC: 0.6647 (Simulation time: 02 hr 02 min 58 sec)
Heartbeat CPU 0 instructions: 610000091 cycles: 915224000 heartbeat IPC: 0.7942 cumulative IPC: 0.6665 (Simulation time: 02 hr 04 min 51 sec)
Heartbeat CPU 0 instructions: 620000092 cycles: 926815091 heartbeat IPC: 0.8627 cumulative IPC: 0.669 (Simulation time: 02 hr 06 min 41 sec)
Heartbeat CPU 0 instructions: 630000095 cycles: 938404545 heartbeat IPC: 0.8629 cumulative IPC: 0.6714 (Simulation time: 02 hr 08 min 32 sec)
Heartbeat CPU 0 instructions: 640000096 cycles: 949960259 heartbeat IPC: 0.8654 cumulative IPC: 0.6737 (Simulation time: 02 hr 10 min 20 sec)
Heartbeat CPU 0 instructions: 650000096 cycles: 961554286 heartbeat IPC: 0.8625 cumulative IPC: 0.676 (Simulation time: 02 hr 12 min 13 sec)
Heartbeat CPU 0 instructions: 660000097 cycles: 973114121 heartbeat IPC: 0.8651 cumulative IPC: 0.6782 (Simulation time: 02 hr 14 min 05 sec)
Heartbeat CPU 0 instructions: 670000097 cycles: 984708564 heartbeat IPC: 0.8625 cumulative IPC: 0.6804 (Simulation time: 02 hr 15 min 55 sec)
Heartbeat CPU 0 instructions: 680000100 cycles: 996420009 heartbeat IPC: 0.8539 cumulative IPC: 0.6824 (Simulation time: 02 hr 17 min 31 sec)
Heartbeat CPU 0 instructions: 690000100 cycles: 1008379639 heartbeat IPC: 0.8361 cumulative IPC: 0.6843 (Simulation time: 02 hr 19 min 09 sec)
Heartbeat CPU 0 instructions: 700000104 cycles: 1019671814 heartbeat IPC: 0.8856 cumulative IPC: 0.6865 (Simulation time: 02 hr 20 min 28 sec)
Heartbeat CPU 0 instructions: 710000107 cycles: 1030948490 heartbeat IPC: 0.8868 cumulative IPC: 0.6887 (Simulation time: 02 hr 22 min 12 sec)
Heartbeat CPU 0 instructions: 720000111 cycles: 1042240251 heartbeat IPC: 0.8856 cumulative IPC: 0.6908 (Simulation time: 02 hr 24 min 01 sec)
Heartbeat CPU 0 instructions: 730000111 cycles: 1053514823 heartbeat IPC: 0.887 cumulative IPC: 0.6929 (Simulation time: 02 hr 25 min 49 sec)
Heartbeat CPU 0 instructions: 740000113 cycles: 1064759446 heartbeat IPC: 0.8893 cumulative IPC: 0.695 (Simulation time: 02 hr 27 min 38 sec)
Heartbeat CPU 0 instructions: 750000113 cycles: 1076024072 heartbeat IPC: 0.8877 cumulative IPC: 0.697 (Simulation time: 02 hr 29 min 26 sec)
Heartbeat CPU 0 instructions: 760000117 cycles: 1087328469 heartbeat IPC: 0.8846 cumulative IPC: 0.699 (Simulation time: 02 hr 31 min 15 sec)
Heartbeat CPU 0 instructions: 770000118 cycles: 1098721201 heartbeat IPC: 0.8778 cumulative IPC: 0.7008 (Simulation time: 02 hr 33 min 05 sec)
Heartbeat CPU 0 instructions: 780000121 cycles: 1111363593 heartbeat IPC: 0.791 cumulative IPC: 0.7018 (Simulation time: 02 hr 35 min 03 sec)
Heartbeat CPU 0 instructions: 790000123 cycles: 1124030198 heartbeat IPC: 0.7895 cumulative IPC: 0.7028 (Simulation time: 02 hr 37 min 00 sec)
Heartbeat CPU 0 instructions: 800000124 cycles: 1136599456 heartbeat IPC: 0.7956 cumulative IPC: 0.7039 (Simulation time: 02 hr 38 min 57 sec)
Heartbeat CPU 0 instructions: 810000126 cycles: 1149183641 heartbeat IPC: 0.7946 cumulative IPC: 0.7048 (Simulation time: 02 hr 40 min 58 sec)
Heartbeat CPU 0 instructions: 820000129 cycles: 1161347042 heartbeat IPC: 0.8221 cumulative IPC: 0.7061 (Simulation time: 02 hr 42 min 26 sec)
Heartbeat CPU 0 instructions: 830000130 cycles: 1173437521 heartbeat IPC: 0.8271 cumulative IPC: 0.7073 (Simulation time: 02 hr 44 min 06 sec)
Heartbeat CPU 0 instructions: 840000132 cycles: 1185530525 heartbeat IPC: 0.8269 cumulative IPC: 0.7085 (Simulation time: 02 hr 46 min 04 sec)
Heartbeat CPU 0 instructions: 850000133 cycles: 1197645760 heartbeat IPC: 0.8254 cumulative IPC: 0.7097 (Simulation time: 02 hr 48 min 03 sec)
Heartbeat CPU 0 instructions: 860000134 cycles: 1209997950 heartbeat IPC: 0.8096 cumulative IPC: 0.7107 (Simulation time: 02 hr 50 min 03 sec)
Heartbeat CPU 0 instructions: 870000135 cycles: 1222544860 heartbeat IPC: 0.797 cumulative IPC: 0.7116 (Simulation time: 02 hr 52 min 04 sec)
Heartbeat CPU 0 instructions: 880000136 cycles: 1235090989 heartbeat IPC: 0.7971 cumulative IPC: 0.7125 (Simulation time: 02 hr 54 min 05 sec)
Heartbeat CPU 0 instructions: 890000140 cycles: 1247650963 heartbeat IPC: 0.7962 cumulative IPC: 0.7133 (Simulation time: 02 hr 56 min 06 sec)
Heartbeat CPU 0 instructions: 900000140 cycles: 1260093521 heartbeat IPC: 0.8037 cumulative IPC: 0.7142 (Simulation time: 02 hr 58 min 06 sec)
Heartbeat CPU 0 instructions: 910000141 cycles: 1272312888 heartbeat IPC: 0.8184 cumulative IPC: 0.7152 (Simulation time: 03 hr 00 min 05 sec)
Heartbeat CPU 0 instructions: 920000141 cycles: 1284487064 heartbeat IPC: 0.8214 cumulative IPC: 0.7162 (Simulation time: 03 hr 02 min 03 sec)
Heartbeat CPU 0 instructions: 930000142 cycles: 1296555424 heartbeat IPC: 0.8286 cumulative IPC: 0.7173 (Simulation time: 03 hr 04 min 01 sec)
Heartbeat CPU 0 instructions: 940000143 cycles: 1308647186 heartbeat IPC: 0.827 cumulative IPC: 0.7183 (Simulation time: 03 hr 05 min 59 sec)
Heartbeat CPU 0 instructions: 950000146 cycles: 1321282013 heartbeat IPC: 0.7915 cumulative IPC: 0.719 (Simulation time: 03 hr 07 min 55 sec)
Heartbeat CPU 0 instructions: 960000150 cycles: 1333922939 heartbeat IPC: 0.7911 cumulative IPC: 0.7197 (Simulation time: 03 hr 09 min 39 sec)
Heartbeat CPU 0 instructions: 970000150 cycles: 1346502119 heartbeat IPC: 0.795 cumulative IPC: 0.7204 (Simulation time: 03 hr 11 min 39 sec)
Heartbeat CPU 0 instructions: 980000151 cycles: 1359079911 heartbeat IPC: 0.7951 cumulative IPC: 0.7211 (Simulation time: 03 hr 13 min 30 sec)
Heartbeat CPU 0 instructions: 990000155 cycles: 1371273716 heartbeat IPC: 0.8201 cumulative IPC: 0.722 (Simulation time: 03 hr 14 min 51 sec)
Heartbeat CPU 0 instructions: 1000000155 cycles: 1383382029 heartbeat IPC: 0.8259 cumulative IPC: 0.7229 (Simulation time: 03 hr 16 min 42 sec)
Heartbeat CPU 0 instructions: 1010000155 cycles: 1395516571 heartbeat IPC: 0.8241 cumulative IPC: 0.7237 (Simulation time: 03 hr 18 min 28 sec)
Heartbeat CPU 0 instructions: 1020000157 cycles: 1407617522 heartbeat IPC: 0.8264 cumulative IPC: 0.7246 (Simulation time: 03 hr 20 min 02 sec)
[ERROR_CYCLE] Error added at CPU cycle 1410648031, interval 2, pending count: 1
[DRAM_CYCLE_ERROR] Cycle-based error applied! address=0x4daf72000 additional_latency=173500 cycles
Heartbeat CPU 0 instructions: 1030000158 cycles: 1421637842 heartbeat IPC: 0.7133 cumulative IPC: 0.7245 (Simulation time: 03 hr 21 min 57 sec)
Heartbeat CPU 0 instructions: 1040000158 cycles: 1434252461 heartbeat IPC: 0.7927 cumulative IPC: 0.7251 (Simulation time: 03 hr 23 min 41 sec)
Heartbeat CPU 0 instructions: 1050000160 cycles: 1446494423 heartbeat IPC: 0.8169 cumulative IPC: 0.7259 (Simulation time: 03 hr 25 min 39 sec)
Heartbeat CPU 0 instructions: 1060000160 cycles: 1458749188 heartbeat IPC: 0.816 cumulative IPC: 0.7267 (Simulation time: 03 hr 27 min 37 sec)
Heartbeat CPU 0 instructions: 1070000162 cycles: 1471012293 heartbeat IPC: 0.8155 cumulative IPC: 0.7274 (Simulation time: 03 hr 29 min 35 sec)
Heartbeat CPU 0 instructions: 1080000166 cycles: 1483117980 heartbeat IPC: 0.8261 cumulative IPC: 0.7282 (Simulation time: 03 hr 31 min 33 sec)
Heartbeat CPU 0 instructions: 1090000170 cycles: 1495052259 heartbeat IPC: 0.8379 cumulative IPC: 0.7291 (Simulation time: 03 hr 33 min 28 sec)
Heartbeat CPU 0 instructions: 1100000171 cycles: 1506947000 heartbeat IPC: 0.8407 cumulative IPC: 0.73 (Simulation time: 03 hr 35 min 26 sec)
Heartbeat CPU 0 instructions: 1110000173 cycles: 1518763773 heartbeat IPC: 0.8463 cumulative IPC: 0.7309 (Simulation time: 03 hr 37 min 22 sec)
Heartbeat CPU 0 instructions: 1120000174 cycles: 1530590453 heartbeat IPC: 0.8455 cumulative IPC: 0.7317 (Simulation time: 03 hr 39 min 19 sec)
Heartbeat CPU 0 instructions: 1130000174 cycles: 1542887213 heartbeat IPC: 0.8132 cumulative IPC: 0.7324 (Simulation time: 03 hr 41 min 19 sec)
Heartbeat CPU 0 instructions: 1140000174 cycles: 1555177868 heartbeat IPC: 0.8136 cumulative IPC: 0.733 (Simulation time: 03 hr 43 min 18 sec)
Heartbeat CPU 0 instructions: 1150000178 cycles: 1567453276 heartbeat IPC: 0.8146 cumulative IPC: 0.7337 (Simulation time: 03 hr 45 min 18 sec)
Heartbeat CPU 0 instructions: 1160000178 cycles: 1579700490 heartbeat IPC: 0.8165 cumulative IPC: 0.7343 (Simulation time: 03 hr 47 min 18 sec)
Heartbeat CPU 0 instructions: 1170000179 cycles: 1591643753 heartbeat IPC: 0.8373 cumulative IPC: 0.7351 (Simulation time: 03 hr 48 min 53 sec)
Heartbeat CPU 0 instructions: 1180000179 cycles: 1603455136 heartbeat IPC: 0.8466 cumulative IPC: 0.7359 (Simulation time: 03 hr 50 min 41 sec)
Heartbeat CPU 0 instructions: 1190000180 cycles: 1615313131 heartbeat IPC: 0.8433 cumulative IPC: 0.7367 (Simulation time: 03 hr 52 min 36 sec)
Heartbeat CPU 0 instructions: 1200000181 cycles: 1627123560 heartbeat IPC: 0.8467 cumulative IPC: 0.7375 (Simulation time: 03 hr 54 min 31 sec)
Heartbeat CPU 0 instructions: 1210000183 cycles: 1639073595 heartbeat IPC: 0.8368 cumulative IPC: 0.7382 (Simulation time: 03 hr 56 min 26 sec)
Heartbeat CPU 0 instructions: 1220000183 cycles: 1651304192 heartbeat IPC: 0.8176 cumulative IPC: 0.7388 (Simulation time: 03 hr 58 min 23 sec)
Heartbeat CPU 0 instructions: 1230000183 cycles: 1663539336 heartbeat IPC: 0.8173 cumulative IPC: 0.7394 (Simulation time: 04 hr 00 min 21 sec)
Heartbeat CPU 0 instructions: 1240000183 cycles: 1675788901 heartbeat IPC: 0.8164 cumulative IPC: 0.74 (Simulation time: 04 hr 02 min 20 sec)
Heartbeat CPU 0 instructions: 1250000185 cycles: 1688049146 heartbeat IPC: 0.8156 cumulative IPC: 0.7405 (Simulation time: 04 hr 04 min 19 sec)
Heartbeat CPU 0 instructions: 1260000187 cycles: 1700022586 heartbeat IPC: 0.8352 cumulative IPC: 0.7412 (Simulation time: 04 hr 06 min 15 sec)
Heartbeat CPU 0 instructions: 1270000189 cycles: 1711951366 heartbeat IPC: 0.8383 cumulative IPC: 0.7418 (Simulation time: 04 hr 08 min 12 sec)
Heartbeat CPU 0 instructions: 1280000189 cycles: 1723785217 heartbeat IPC: 0.845 cumulative IPC: 0.7426 (Simulation time: 04 hr 10 min 07 sec)
Heartbeat CPU 0 instructions: 1290000192 cycles: 1735583044 heartbeat IPC: 0.8476 cumulative IPC: 0.7433 (Simulation time: 04 hr 11 min 49 sec)
Heartbeat CPU 0 instructions: 1300000192 cycles: 1795731430 heartbeat IPC: 0.1663 cumulative IPC: 0.7239 (Simulation time: 04 hr 19 min 12 sec)
Heartbeat CPU 0 instructions: 1310000196 cycles: 1808664068 heartbeat IPC: 0.7732 cumulative IPC: 0.7243 (Simulation time: 04 hr 21 min 04 sec)
Heartbeat CPU 0 instructions: 1320000200 cycles: 1820885705 heartbeat IPC: 0.8182 cumulative IPC: 0.7249 (Simulation time: 04 hr 22 min 51 sec)
Heartbeat CPU 0 instructions: 1330000204 cycles: 1833097620 heartbeat IPC: 0.8189 cumulative IPC: 0.7255 (Simulation time: 04 hr 24 min 18 sec)
Heartbeat CPU 0 instructions: 1340000204 cycles: 1845316310 heartbeat IPC: 0.8184 cumulative IPC: 0.7262 (Simulation time: 04 hr 26 min 02 sec)
Heartbeat CPU 0 instructions: 1350000205 cycles: 1857570652 heartbeat IPC: 0.816 cumulative IPC: 0.7268 (Simulation time: 04 hr 27 min 53 sec)
Heartbeat CPU 0 instructions: 1360000207 cycles: 1869595958 heartbeat IPC: 0.8316 cumulative IPC: 0.7274 (Simulation time: 04 hr 29 min 41 sec)
Heartbeat CPU 0 instructions: 1370000207 cycles: 1881430585 heartbeat IPC: 0.845 cumulative IPC: 0.7282 (Simulation time: 04 hr 30 min 59 sec)
Heartbeat CPU 0 instructions: 1380000208 cycles: 1893571460 heartbeat IPC: 0.8237 cumulative IPC: 0.7288 (Simulation time: 04 hr 32 min 19 sec)
Heartbeat CPU 0 instructions: 1390000210 cycles: 1905739907 heartbeat IPC: 0.8218 cumulative IPC: 0.7294 (Simulation time: 04 hr 33 min 48 sec)
Heartbeat CPU 0 instructions: 1400000211 cycles: 1917842048 heartbeat IPC: 0.8263 cumulative IPC: 0.73 (Simulation time: 04 hr 35 min 17 sec)
Heartbeat CPU 0 instructions: 1410000211 cycles: 1930272959 heartbeat IPC: 0.8044 cumulative IPC: 0.7305 (Simulation time: 04 hr 37 min 08 sec)
Heartbeat CPU 0 instructions: 1420000212 cycles: 1942972744 heartbeat IPC: 0.7874 cumulative IPC: 0.7308 (Simulation time: 04 hr 39 min 00 sec)
Heartbeat CPU 0 instructions: 1430000214 cycles: 1955552535 heartbeat IPC: 0.7949 cumulative IPC: 0.7313 (Simulation time: 04 hr 40 min 52 sec)
Heartbeat CPU 0 instructions: 1440000214 cycles: 1968044870 heartbeat IPC: 0.8005 cumulative IPC: 0.7317 (Simulation time: 04 hr 42 min 42 sec)
Heartbeat CPU 0 instructions: 1450000215 cycles: 1980261095 heartbeat IPC: 0.8186 cumulative IPC: 0.7322 (Simulation time: 04 hr 44 min 31 sec)
Heartbeat CPU 0 instructions: 1460000217 cycles: 1992476061 heartbeat IPC: 0.8187 cumulative IPC: 0.7328 (Simulation time: 04 hr 46 min 20 sec)
Heartbeat CPU 0 instructions: 1470000217 cycles: 2004670148 heartbeat IPC: 0.8201 cumulative IPC: 0.7333 (Simulation time: 04 hr 48 min 09 sec)
Heartbeat CPU 0 instructions: 1480000218 cycles: 2016921470 heartbeat IPC: 0.8162 cumulative IPC: 0.7338 (Simulation time: 04 hr 49 min 58 sec)
Heartbeat CPU 0 instructions: 1490000220 cycles: 2029086343 heartbeat IPC: 0.822 cumulative IPC: 0.7343 (Simulation time: 04 hr 51 min 47 sec)
Heartbeat CPU 0 instructions: 1500000220 cycles: 2040926267 heartbeat IPC: 0.8446 cumulative IPC: 0.735 (Simulation time: 04 hr 53 min 33 sec)
Heartbeat CPU 0 instructions: 1510000221 cycles: 2052936625 heartbeat IPC: 0.8326 cumulative IPC: 0.7355 (Simulation time: 04 hr 55 min 20 sec)
Heartbeat CPU 0 instructions: 1520000223 cycles: 2065121471 heartbeat IPC: 0.8207 cumulative IPC: 0.736 (Simulation time: 04 hr 57 min 09 sec)
Heartbeat CPU 0 instructions: 1530000224 cycles: 2077236886 heartbeat IPC: 0.8254 cumulative IPC: 0.7366 (Simulation time: 04 hr 58 min 43 sec)
Heartbeat CPU 0 instructions: 1540000226 cycles: 2089404557 heartbeat IPC: 0.8219 cumulative IPC: 0.7371 (Simulation time: 05 hr 00 min 15 sec)
Heartbeat CPU 0 instructions: 1550000228 cycles: 2102125627 heartbeat IPC: 0.7861 cumulative IPC: 0.7373 (Simulation time: 05 hr 01 min 58 sec)
Heartbeat CPU 0 instructions: 1560000232 cycles: 2114762038 heartbeat IPC: 0.7914 cumulative IPC: 0.7377 (Simulation time: 05 hr 03 min 49 sec)
[ERROR_CYCLE] Error added at CPU cycle 2115972045, interval 3, pending count: 1
[DRAM_CYCLE_ERROR] Cycle-based error applied! address=0x6f9b029c8 additional_latency=173500 cycles
Heartbeat CPU 0 instructions: 1570000232 cycles: 2127295225 heartbeat IPC: 0.7979 cumulative IPC: 0.738 (Simulation time: 05 hr 05 min 39 sec)
Heartbeat CPU 0 instructions: 1580000236 cycles: 2139580798 heartbeat IPC: 0.814 cumulative IPC: 0.7385 (Simulation time: 05 hr 07 min 27 sec)
Heartbeat CPU 0 instructions: 1590000239 cycles: 2151797296 heartbeat IPC: 0.8186 cumulative IPC: 0.7389 (Simulation time: 05 hr 09 min 15 sec)
Heartbeat CPU 0 instructions: 1600000240 cycles: 2164010262 heartbeat IPC: 0.8188 cumulative IPC: 0.7394 (Simulation time: 05 hr 11 min 02 sec)
Heartbeat CPU 0 instructions: 1610000242 cycles: 2176234341 heartbeat IPC: 0.8181 cumulative IPC: 0.7398 (Simulation time: 05 hr 12 min 50 sec)
Heartbeat CPU 0 instructions: 1620000244 cycles: 2188496062 heartbeat IPC: 0.8155 cumulative IPC: 0.7402 (Simulation time: 05 hr 14 min 38 sec)
Heartbeat CPU 0 instructions: 1630000248 cycles: 2200415664 heartbeat IPC: 0.839 cumulative IPC: 0.7408 (Simulation time: 05 hr 16 min 13 sec)
Heartbeat CPU 0 instructions: 1640000249 cycles: 2212287802 heartbeat IPC: 0.8423 cumulative IPC: 0.7413 (Simulation time: 05 hr 17 min 46 sec)
Heartbeat CPU 0 instructions: 1650000251 cycles: 2224485072 heartbeat IPC: 0.8199 cumulative IPC: 0.7417 (Simulation time: 05 hr 19 min 34 sec)
Heartbeat CPU 0 instructions: 1660000252 cycles: 2236641987 heartbeat IPC: 0.8226 cumulative IPC: 0.7422 (Simulation time: 05 hr 20 min 59 sec)
Heartbeat CPU 0 instructions: 1670000256 cycles: 2248747373 heartbeat IPC: 0.8261 cumulative IPC: 0.7426 (Simulation time: 05 hr 22 min 48 sec)
Heartbeat CPU 0 instructions: 1680000259 cycles: 2261316633 heartbeat IPC: 0.7956 cumulative IPC: 0.7429 (Simulation time: 05 hr 24 min 40 sec)
Heartbeat CPU 0 instructions: 1690000259 cycles: 2274007512 heartbeat IPC: 0.788 cumulative IPC: 0.7432 (Simulation time: 05 hr 26 min 06 sec)
Heartbeat CPU 0 instructions: 1700000259 cycles: 2286537372 heartbeat IPC: 0.7981 cumulative IPC: 0.7435 (Simulation time: 05 hr 27 min 54 sec)
Heartbeat CPU 0 instructions: 1710000261 cycles: 2298941867 heartbeat IPC: 0.8062 cumulative IPC: 0.7438 (Simulation time: 05 hr 29 min 20 sec)
Heartbeat CPU 0 instructions: 1720000264 cycles: 2311153066 heartbeat IPC: 0.8189 cumulative IPC: 0.7442 (Simulation time: 05 hr 31 min 09 sec)
Heartbeat CPU 0 instructions: 1730000264 cycles: 2323367317 heartbeat IPC: 0.8187 cumulative IPC: 0.7446 (Simulation time: 05 hr 32 min 41 sec)
Heartbeat CPU 0 instructions: 1740000265 cycles: 2335591391 heartbeat IPC: 0.8181 cumulative IPC: 0.745 (Simulation time: 05 hr 34 min 23 sec)
Heartbeat CPU 0 instructions: 1750000266 cycles: 2347839836 heartbeat IPC: 0.8164 cumulative IPC: 0.7454 (Simulation time: 05 hr 35 min 52 sec)
Heartbeat CPU 0 instructions: 1760000266 cycles: 2359931197 heartbeat IPC: 0.827 cumulative IPC: 0.7458 (Simulation time: 05 hr 37 min 29 sec)
Heartbeat CPU 0 instructions: 1770000270 cycles: 2371762614 heartbeat IPC: 0.8452 cumulative IPC: 0.7463 (Simulation time: 05 hr 38 min 50 sec)
Heartbeat CPU 0 instructions: 1780000274 cycles: 2383841660 heartbeat IPC: 0.8279 cumulative IPC: 0.7467 (Simulation time: 05 hr 40 min 18 sec)
Heartbeat CPU 0 instructions: 1790000274 cycles: 2396031084 heartbeat IPC: 0.8204 cumulative IPC: 0.7471 (Simulation time: 05 hr 41 min 45 sec)
Heartbeat CPU 0 instructions: 1800000276 cycles: 2408121727 heartbeat IPC: 0.8271 cumulative IPC: 0.7475 (Simulation time: 05 hr 43 min 04 sec)
Heartbeat CPU 0 instructions: 1810000277 cycles: 2420465827 heartbeat IPC: 0.8101 cumulative IPC: 0.7478 (Simulation time: 05 hr 44 min 54 sec)
Heartbeat CPU 0 instructions: 1820000279 cycles: 2433184228 heartbeat IPC: 0.7863 cumulative IPC: 0.748 (Simulation time: 05 hr 46 min 23 sec)
Heartbeat CPU 0 instructions: 1830000283 cycles: 2445769969 heartbeat IPC: 0.7946 cumulative IPC: 0.7482 (Simulation time: 05 hr 48 min 14 sec)
Heartbeat CPU 0 instructions: 1840000284 cycles: 2458298569 heartbeat IPC: 0.7982 cumulative IPC: 0.7485 (Simulation time: 05 hr 49 min 37 sec)
Heartbeat CPU 0 instructions: 1850000287 cycles: 2470528707 heartbeat IPC: 0.8177 cumulative IPC: 0.7488 (Simulation time: 05 hr 51 min 08 sec)
Heartbeat CPU 0 instructions: 1860000291 cycles: 2482748911 heartbeat IPC: 0.8183 cumulative IPC: 0.7492 (Simulation time: 05 hr 52 min 56 sec)
Heartbeat CPU 0 instructions: 1870000291 cycles: 2494960673 heartbeat IPC: 0.8189 cumulative IPC: 0.7495 (Simulation time: 05 hr 54 min 43 sec)
Heartbeat CPU 0 instructions: 1880000295 cycles: 2507203970 heartbeat IPC: 0.8168 cumulative IPC: 0.7498 (Simulation time: 05 hr 56 min 16 sec)
Heartbeat CPU 0 instructions: 1890000295 cycles: 2519446787 heartbeat IPC: 0.8168 cumulative IPC: 0.7502 (Simulation time: 05 hr 57 min 29 sec)
Heartbeat CPU 0 instructions: 1900000298 cycles: 2531275857 heartbeat IPC: 0.8454 cumulative IPC: 0.7506 (Simulation time: 05 hr 58 min 39 sec)
Heartbeat CPU 0 instructions: 1910000299 cycles: 2543242962 heartbeat IPC: 0.8356 cumulative IPC: 0.751 (Simulation time: 05 hr 59 min 55 sec)
Heartbeat CPU 0 instructions: 1920000299 cycles: 2555422354 heartbeat IPC: 0.8211 cumulative IPC: 0.7513 (Simulation time: 06 hr 01 min 42 sec)
Heartbeat CPU 0 instructions: 1930000301 cycles: 2567571161 heartbeat IPC: 0.8231 cumulative IPC: 0.7517 (Simulation time: 06 hr 03 min 29 sec)
Heartbeat CPU 0 instructions: 1940000303 cycles: 2579678755 heartbeat IPC: 0.8259 cumulative IPC: 0.752 (Simulation time: 06 hr 05 min 00 sec)
Heartbeat CPU 0 instructions: 1950000306 cycles: 2592379942 heartbeat IPC: 0.7873 cumulative IPC: 0.7522 (Simulation time: 06 hr 06 min 48 sec)
Heartbeat CPU 0 instructions: 1960000306 cycles: 2605030137 heartbeat IPC: 0.7905 cumulative IPC: 0.7524 (Simulation time: 06 hr 08 min 38 sec)
Heartbeat CPU 0 instructions: 1970000309 cycles: 2617571030 heartbeat IPC: 0.7974 cumulative IPC: 0.7526 (Simulation time: 06 hr 10 min 22 sec)
Heartbeat CPU 0 instructions: 1980000309 cycles: 2629912055 heartbeat IPC: 0.8103 cumulative IPC: 0.7529 (Simulation time: 06 hr 12 min 12 sec)
Heartbeat CPU 0 instructions: 1990000313 cycles: 2642136372 heartbeat IPC: 0.818 cumulative IPC: 0.7532 (Simulation time: 06 hr 13 min 50 sec)

=== ERROR PAGE STATISTICS ===
Mode: CYCLE
Error Cycle Interval: 705324015 CPU cycles
Total Error Accesses: 3
==============================
Simulation finished CPU 0 instructions: 1999999509 cycles: 2654352179 cumulative IPC: 0.7535 (Simulation time: 06 hr 15 min 14 sec)
Simulation complete CPU 0 instructions: 1999999509 cycles: 2654352179 cumulative IPC: 0.7535 (Simulation time: 06 hr 15 min 14 sec)

ChampSim completed all CPUs

=== Simulation ===
CPU 0 runs test_traces/649.fotonik3d_s-10881B.champsimtrace.xz

Region of Interest Statistics

CPU 0 cumulative IPC: 0.7535 instructions: 1999999509 cycles: 2654352179
CPU 0 Branch Prediction Accuracy: 97.24% MPKI: 0.2738 Average ROB Occupancy at Mispredict: 264.6
Branch type MPKI
BRANCH_DIRECT_JUMP: 5.5e-06
BRANCH_INDIRECT: 0
BRANCH_CONDITIONAL: 0.2738
BRANCH_DIRECT_CALL: 5e-07
BRANCH_INDIRECT_CALL: 0
BRANCH_RETURN: 5e-07

cpu0->cpu0_STLB TOTAL        ACCESS:    6979020 HIT:    3617225 MISS:    3361795 MSHR_MERGE:          0
cpu0->cpu0_STLB LOAD         ACCESS:    6979020 HIT:    3617225 MISS:    3361795 MSHR_MERGE:          0
cpu0->cpu0_STLB RFO          ACCESS:          0 HIT:          0 MISS:          0 MSHR_MERGE:          0
cpu0->cpu0_STLB PREFETCH     ACCESS:          0 HIT:          0 MISS:          0 MSHR_MERGE:          0
cpu0->cpu0_STLB WRITE        ACCESS:          0 HIT:          0 MISS:          0 MSHR_MERGE:          0
cpu0->cpu0_STLB TRANSLATION  ACCESS:          0 HIT:          0 MISS:          0 MSHR_MERGE:          0
cpu0->cpu0_STLB PREFETCH REQUESTED:          0 ISSUED:          0 USEFUL:          0 USELESS:          0
cpu0->cpu0_STLB AVERAGE MISS LATENCY: 335.7 cycles
cpu0->cpu0_L2C TOTAL        ACCESS:   51671922 HIT:   16861138 MISS:   34810784 MSHR_MERGE:          0
cpu0->cpu0_L2C LOAD         ACCESS:   36315961 HIT:    1505741 MISS:   34810220 MSHR_MERGE:          0
cpu0->cpu0_L2C RFO          ACCESS:       2025 HIT:       1976 MISS:         49 MSHR_MERGE:          0
cpu0->cpu0_L2C PREFETCH     ACCESS:          0 HIT:          0 MISS:          0 MSHR_MERGE:          0
cpu0->cpu0_L2C WRITE        ACCESS:   15353936 HIT:   15353421 MISS:        515 MSHR_MERGE:          0
cpu0->cpu0_L2C TRANSLATION  ACCESS:          0 HIT:          0 MISS:          0 MSHR_MERGE:          0
cpu0->cpu0_L2C PREFETCH REQUESTED:          0 ISSUED:          0 USEFUL:          0 USELESS:          0
cpu0->cpu0_L2C AVERAGE MISS LATENCY: 112.6 cycles
cpu0->cpu0_L1I TOTAL        ACCESS:  500888444 HIT:  500887502 MISS:        942 MSHR_MERGE:        403
cpu0->cpu0_L1I LOAD         ACCESS:  500888444 HIT:  500887502 MISS:        942 MSHR_MERGE:        403
cpu0->cpu0_L1I RFO          ACCESS:          0 HIT:          0 MISS:          0 MSHR_MERGE:          0
cpu0->cpu0_L1I PREFETCH     ACCESS:          0 HIT:          0 MISS:          0 MSHR_MERGE:          0
cpu0->cpu0_L1I WRITE        ACCESS:          0 HIT:          0 MISS:          0 MSHR_MERGE:          0
cpu0->cpu0_L1I TRANSLATION  ACCESS:          0 HIT:          0 MISS:          0 MSHR_MERGE:          0
cpu0->cpu0_L1I PREFETCH REQUESTED:          0 ISSUED:          0 USEFUL:          0 USELESS:          0
cpu0->cpu0_L1I AVERAGE MISS LATENCY: 130.4 cycles
cpu0->cpu0_L1D TOTAL        ACCESS:  960367576 HIT:  915376866 MISS:   44990710 MSHR_MERGE:    8673247
cpu0->cpu0_L1D LOAD         ACCESS:  842730134 HIT:  797743029 MISS:   44987105 MSHR_MERGE:    8671682
cpu0->cpu0_L1D RFO          ACCESS:          0 HIT:          0 MISS:          0 MSHR_MERGE:          0
cpu0->cpu0_L1D PREFETCH     ACCESS:          0 HIT:          0 MISS:          0 MSHR_MERGE:          0
cpu0->cpu0_L1D WRITE        ACCESS:  117637442 HIT:  117633837 MISS:       3605 MSHR_MERGE:       1565
cpu0->cpu0_L1D TRANSLATION  ACCESS:          0 HIT:          0 MISS:          0 MSHR_MERGE:          0
cpu0->cpu0_L1D PREFETCH REQUESTED:          0 ISSUED:          0 USEFUL:          0 USELESS:          0
cpu0->cpu0_L1D AVERAGE MISS LATENCY: 116.9 cycles
cpu0->cpu0_ITLB TOTAL        ACCESS:  433892863 HIT:  433892804 MISS:         59 MSHR_MERGE:         47
cpu0->cpu0_ITLB LOAD         ACCESS:  433892863 HIT:  433892804 MISS:         59 MSHR_MERGE:         47
cpu0->cpu0_ITLB RFO          ACCESS:          0 HIT:          0 MISS:          0 MSHR_MERGE:          0
cpu0->cpu0_ITLB PREFETCH     ACCESS:          0 HIT:          0 MISS:          0 MSHR_MERGE:          0
cpu0->cpu0_ITLB WRITE        ACCESS:          0 HIT:          0 MISS:          0 MSHR_MERGE:          0
cpu0->cpu0_ITLB TRANSLATION  ACCESS:          0 HIT:          0 MISS:          0 MSHR_MERGE:          0
cpu0->cpu0_ITLB PREFETCH REQUESTED:          0 ISSUED:          0 USEFUL:          0 USELESS:          0
cpu0->cpu0_ITLB AVERAGE MISS LATENCY: 710.4 cycles
cpu0->cpu0_DTLB TOTAL        ACCESS:  901377966 HIT:  892454327 MISS:    8923639 MSHR_MERGE:    1944631
cpu0->cpu0_DTLB LOAD         ACCESS:  901377966 HIT:  892454327 MISS:    8923639 MSHR_MERGE:    1944631
cpu0->cpu0_DTLB RFO          ACCESS:          0 HIT:          0 MISS:          0 MSHR_MERGE:          0
cpu0->cpu0_DTLB PREFETCH     ACCESS:          0 HIT:          0 MISS:          0 MSHR_MERGE:          0
cpu0->cpu0_DTLB WRITE        ACCESS:          0 HIT:          0 MISS:          0 MSHR_MERGE:          0
cpu0->cpu0_DTLB TRANSLATION  ACCESS:          0 HIT:          0 MISS:          0 MSHR_MERGE:          0
cpu0->cpu0_DTLB PREFETCH REQUESTED:          0 ISSUED:          0 USEFUL:          0 USELESS:          0
cpu0->cpu0_DTLB AVERAGE MISS LATENCY: 167.2 cycles
cpu0->LLC TOTAL        ACCESS:   50158344 HIT:   17660197 MISS:   32498147 MSHR_MERGE:          0
cpu0->LLC LOAD         ACCESS:   34810220 HIT:    2312445 MISS:   32497775 MSHR_MERGE:          0
cpu0->LLC RFO          ACCESS:         49 HIT:         22 MISS:         27 MSHR_MERGE:          0
cpu0->LLC PREFETCH     ACCESS:          0 HIT:          0 MISS:          0 MSHR_MERGE:          0
cpu0->LLC WRITE        ACCESS:   15348075 HIT:   15347730 MISS:        345 MSHR_MERGE:          0
cpu0->LLC TRANSLATION  ACCESS:          0 HIT:          0 MISS:          0 MSHR_MERGE:          0
cpu0->LLC PREFETCH REQUESTED:          0 ISSUED:          0 USEFUL:          0 USELESS:          0
cpu0->LLC AVERAGE MISS LATENCY: 103.5 cycles

DRAM Statistics

Channel 0 RQ ROW_BUFFER_HIT:     408397
  ROW_BUFFER_MISS:   19124769
  AVG DBUS CONGESTED CYCLE: 10.98
Channel 0 WQ ROW_BUFFER_HIT:    1368536
  ROW_BUFFER_MISS:    6301421
  FULL:          0
Channel 0 REFRESHES ISSUED:     221181

Channel 1 RQ ROW_BUFFER_HIT:     406891
  ROW_BUFFER_MISS:   19125566
  AVG DBUS CONGESTED CYCLE: 10.98
Channel 1 WQ ROW_BUFFER_HIT:    1368351
  ROW_BUFFER_MISS:    6301405
  FULL:          0
Channel 1 REFRESHES ISSUED:     221181
