
*** ChampSim Multicore Out-of-Order Simulator ***
Warmup Instructions: 0
Simulation Instructions: 9223372036854775807
Number of CPUs: 1
Page size: 2097152

Off-chip DRAM Size: 128 GiB Channels: 2 Width: 32-bit Data Rate: 4807 MT/s
[ERROR_PAGE_MANAGER] Error latency: 1990500 
[ERROR_PAGE_MANAGER] Random seed: 54321 (fixed for preload reproducibility)
[ERROR_PAGE_MANAGER] Cycle-based error modeling enabled
[ERROR_PAGE_MANAGER] Errors per interval: 1
[ERROR_PAGE_MANAGER] Error cycle interval: 25763047 cycles

=== ERROR PAGE STATISTICS ===
Mode: CYCLE
Error Cycle Interval: 25763047 CPU cycles
Total Error Accesses: 0
==============================
Warmup finished CPU 0 instructions: 0 cycles: 1 cumulative IPC: 0 (Simulation time: 00 hr 00 min 00 sec)
Warmup complete CPU 0 instructions: 0 cycles: 1 cumulative IPC: 0 (Simulation time: 00 hr 00 min 00 sec)
Heartbeat CPU 0 instructions: 10000003 cycles: 15744938 heartbeat IPC: 0.6351 cumulative IPC: 0.6351 (Simulation time: 00 hr 01 min 42 sec)
[ERROR_CYCLE] Error added at CPU cycle 25763048, interval 1, pending count: 1
[DRAM_CYCLE_ERROR] Cycle-based error applied! address=0x646169730 additional_latency=1990500 cycles
Heartbeat CPU 0 instructions: 20000007 cycles: 30797016 heartbeat IPC: 0.6644 cumulative IPC: 0.6494 (Simulation time: 00 hr 03 min 11 sec)
Heartbeat CPU 0 instructions: 30000008 cycles: 45806593 heartbeat IPC: 0.6662 cumulative IPC: 0.6549 (Simulation time: 00 hr 04 min 37 sec)
[ERROR_CYCLE] Error added at CPU cycle 51526094, interval 2, pending count: 1
[DRAM_CYCLE_ERROR] Cycle-based error applied! address=0x1b869f6130 additional_latency=1990500 cycles
Heartbeat CPU 0 instructions: 40000008 cycles: 60936069 heartbeat IPC: 0.661 cumulative IPC: 0.6564 (Simulation time: 00 hr 06 min 26 sec)
Heartbeat CPU 0 instructions: 50000008 cycles: 76218683 heartbeat IPC: 0.6543 cumulative IPC: 0.656 (Simulation time: 00 hr 08 min 01 sec)
[ERROR_CYCLE] Error added at CPU cycle 77289142, interval 3, pending count: 1
[DRAM_CYCLE_ERROR] Cycle-based error applied! address=0xcf7dbc5d0 additional_latency=1990500 cycles
Heartbeat CPU 0 instructions: 60000011 cycles: 90953200 heartbeat IPC: 0.6787 cumulative IPC: 0.6597 (Simulation time: 00 hr 09 min 25 sec)
[ERROR_CYCLE] Error added at CPU cycle 103052188, interval 4, pending count: 1
[DRAM_CYCLE_ERROR] Cycle-based error applied! address=0x1e9070ec48 additional_latency=1990500 cycles
Heartbeat CPU 0 instructions: 70000011 cycles: 106011424 heartbeat IPC: 0.6641 cumulative IPC: 0.6603 (Simulation time: 00 hr 10 min 50 sec)
Heartbeat CPU 0 instructions: 80000012 cycles: 121082910 heartbeat IPC: 0.6635 cumulative IPC: 0.6607 (Simulation time: 00 hr 12 min 08 sec)
[ERROR_CYCLE] Error added at CPU cycle 128815235, interval 5, pending count: 1
[DRAM_CYCLE_ERROR] Cycle-based error applied! address=0x19465551e0 additional_latency=1990500 cycles
Heartbeat CPU 0 instructions: 90000013 cycles: 136033396 heartbeat IPC: 0.6689 cumulative IPC: 0.6616 (Simulation time: 00 hr 13 min 47 sec)
Heartbeat CPU 0 instructions: 100000013 cycles: 150990712 heartbeat IPC: 0.6686 cumulative IPC: 0.6623 (Simulation time: 00 hr 15 min 26 sec)
[ERROR_CYCLE] Error added at CPU cycle 154578283, interval 6, pending count: 1
[DRAM_CYCLE_ERROR] Cycle-based error applied! address=0x429477dc8 additional_latency=1990500 cycles
Heartbeat CPU 0 instructions: 110000014 cycles: 165877836 heartbeat IPC: 0.6717 cumulative IPC: 0.6631 (Simulation time: 00 hr 17 min 14 sec)
[ERROR_CYCLE] Error added at CPU cycle 180341329, interval 7, pending count: 1
[DRAM_CYCLE_ERROR] Cycle-based error applied! address=0x1ca5823e90 additional_latency=1990500 cycles
Heartbeat CPU 0 instructions: 120000018 cycles: 180708454 heartbeat IPC: 0.6743 cumulative IPC: 0.6641 (Simulation time: 00 hr 18 min 40 sec)
Heartbeat CPU 0 instructions: 130000018 cycles: 195612008 heartbeat IPC: 0.671 cumulative IPC: 0.6646 (Simulation time: 00 hr 19 min 56 sec)
[ERROR_CYCLE] Error added at CPU cycle 206104376, interval 8, pending count: 1
[DRAM_CYCLE_ERROR] Cycle-based error applied! address=0x1a6722d6b8 additional_latency=1990500 cycles
Heartbeat CPU 0 instructions: 140000020 cycles: 210456178 heartbeat IPC: 0.6737 cumulative IPC: 0.6652 (Simulation time: 00 hr 21 min 21 sec)
Heartbeat CPU 0 instructions: 150000021 cycles: 225430330 heartbeat IPC: 0.6678 cumulative IPC: 0.6654 (Simulation time: 00 hr 23 min 07 sec)
[ERROR_CYCLE] Error added at CPU cycle 231867424, interval 9, pending count: 1
[DRAM_CYCLE_ERROR] Cycle-based error applied! address=0x1ef4ff2d70 additional_latency=1990500 cycles
Heartbeat CPU 0 instructions: 160000021 cycles: 240393363 heartbeat IPC: 0.6683 cumulative IPC: 0.6656 (Simulation time: 00 hr 24 min 52 sec)
Heartbeat CPU 0 instructions: 170000021 cycles: 255199548 heartbeat IPC: 0.6754 cumulative IPC: 0.6661 (Simulation time: 00 hr 26 min 37 sec)
[ERROR_CYCLE] Error added at CPU cycle 257630470, interval 10, pending count: 1
[DRAM_CYCLE_ERROR] Cycle-based error applied! address=0xd86a26b94 additional_latency=1990500 cycles
Heartbeat CPU 0 instructions: 180000024 cycles: 269842697 heartbeat IPC: 0.6829 cumulative IPC: 0.6671 (Simulation time: 00 hr 28 min 20 sec)
[ERROR_CYCLE] Error added at CPU cycle 283393517, interval 11, pending count: 1
[DRAM_CYCLE_ERROR] Cycle-based error applied! address=0x1ef4f57c80 additional_latency=1990500 cycles
Heartbeat CPU 0 instructions: 190000028 cycles: 284609790 heartbeat IPC: 0.6772 cumulative IPC: 0.6676 (Simulation time: 00 hr 30 min 04 sec)
Heartbeat CPU 0 instructions: 200000029 cycles: 299547843 heartbeat IPC: 0.6694 cumulative IPC: 0.6677 (Simulation time: 00 hr 31 min 49 sec)
[ERROR_CYCLE] Error added at CPU cycle 309156565, interval 12, pending count: 1
[DRAM_CYCLE_ERROR] Cycle-based error applied! address=0x186526ff0 additional_latency=1990500 cycles
Heartbeat CPU 0 instructions: 210000033 cycles: 314457115 heartbeat IPC: 0.6707 cumulative IPC: 0.6678 (Simulation time: 00 hr 33 min 35 sec)
Heartbeat CPU 0 instructions: 220000035 cycles: 329291124 heartbeat IPC: 0.6741 cumulative IPC: 0.6681 (Simulation time: 00 hr 35 min 20 sec)
[ERROR_CYCLE] Error added at CPU cycle 334919611, interval 13, pending count: 1
[DRAM_CYCLE_ERROR] Cycle-based error applied! address=0x1ca5858e28 additional_latency=1990500 cycles
Heartbeat CPU 0 instructions: 230000036 cycles: 344326845 heartbeat IPC: 0.6651 cumulative IPC: 0.668 (Simulation time: 00 hr 37 min 05 sec)
Heartbeat CPU 0 instructions: 240000036 cycles: 359226787 heartbeat IPC: 0.6711 cumulative IPC: 0.6681 (Simulation time: 00 hr 38 min 50 sec)
[ERROR_CYCLE] Error added at CPU cycle 360682659, interval 14, pending count: 1
[DRAM_CYCLE_ERROR] Cycle-based error applied! address=0x15ac4228d4 additional_latency=1990500 cycles
Heartbeat CPU 0 instructions: 250000038 cycles: 373681467 heartbeat IPC: 0.6918 cumulative IPC: 0.669 (Simulation time: 00 hr 40 min 36 sec)
[ERROR_CYCLE] Error added at CPU cycle 386445705, interval 15, pending count: 1
[DRAM_CYCLE_ERROR] Cycle-based error applied! address=0x1fed6fe8b8 additional_latency=1990500 cycles
Heartbeat CPU 0 instructions: 260000038 cycles: 388191822 heartbeat IPC: 0.6892 cumulative IPC: 0.6698 (Simulation time: 00 hr 42 min 23 sec)
Heartbeat CPU 0 instructions: 270000038 cycles: 403162586 heartbeat IPC: 0.668 cumulative IPC: 0.6697 (Simulation time: 00 hr 44 min 10 sec)
[ERROR_CYCLE] Error added at CPU cycle 412208752, interval 16, pending count: 1
[DRAM_CYCLE_ERROR] Cycle-based error applied! address=0x3e847c6b0 additional_latency=1990500 cycles
Heartbeat CPU 0 instructions: 280000041 cycles: 418412230 heartbeat IPC: 0.6558 cumulative IPC: 0.6692 (Simulation time: 00 hr 45 min 29 sec)
Heartbeat CPU 0 instructions: 290000043 cycles: 433507377 heartbeat IPC: 0.6625 cumulative IPC: 0.669 (Simulation time: 00 hr 46 min 56 sec)
[ERROR_CYCLE] Error added at CPU cycle 437971800, interval 17, pending count: 1
[DRAM_CYCLE_ERROR] Cycle-based error applied! address=0x83af7c978 additional_latency=1990500 cycles
Heartbeat CPU 0 instructions: 300000044 cycles: 448071226 heartbeat IPC: 0.6866 cumulative IPC: 0.6695 (Simulation time: 00 hr 48 min 20 sec)
Heartbeat CPU 0 instructions: 310000047 cycles: 463209422 heartbeat IPC: 0.6606 cumulative IPC: 0.6692 (Simulation time: 00 hr 49 min 46 sec)
[ERROR_CYCLE] Error added at CPU cycle 463734846, interval 18, pending count: 1
[DRAM_CYCLE_ERROR] Cycle-based error applied! address=0x1f03df2c70 additional_latency=1990500 cycles
Heartbeat CPU 0 instructions: 320000051 cycles: 478137595 heartbeat IPC: 0.6699 cumulative IPC: 0.6693 (Simulation time: 00 hr 51 min 13 sec)
[ERROR_CYCLE] Error added at CPU cycle 489497893, interval 19, pending count: 1
[DRAM_CYCLE_ERROR] Cycle-based error applied! address=0x1556b4fad8 additional_latency=1990500 cycles
Heartbeat CPU 0 instructions: 330000051 cycles: 493007983 heartbeat IPC: 0.6725 cumulative IPC: 0.6694 (Simulation time: 00 hr 52 min 37 sec)
Heartbeat CPU 0 instructions: 340000055 cycles: 506986442 heartbeat IPC: 0.7154 cumulative IPC: 0.6706 (Simulation time: 00 hr 54 min 18 sec)
[ERROR_CYCLE] Error added at CPU cycle 515260941, interval 20, pending count: 1
[DRAM_CYCLE_ERROR] Cycle-based error applied! address=0x1ecf30fd48 additional_latency=1990500 cycles
Heartbeat CPU 0 instructions: 350000055 cycles: 521723443 heartbeat IPC: 0.6786 cumulative IPC: 0.6709 (Simulation time: 00 hr 56 min 03 sec)
Heartbeat CPU 0 instructions: 360000056 cycles: 536187775 heartbeat IPC: 0.6914 cumulative IPC: 0.6714 (Simulation time: 00 hr 57 min 34 sec)
[ERROR_CYCLE] Error added at CPU cycle 541023987, interval 21, pending count: 1
[DRAM_CYCLE_ERROR] Cycle-based error applied! address=0xd0dccfb90 additional_latency=1990500 cycles
Heartbeat CPU 0 instructions: 370000056 cycles: 550755922 heartbeat IPC: 0.6864 cumulative IPC: 0.6718 (Simulation time: 00 hr 59 min 16 sec)
Heartbeat CPU 0 instructions: 380000056 cycles: 565215239 heartbeat IPC: 0.6916 cumulative IPC: 0.6723 (Simulation time: 01 hr 01 min 02 sec)
[ERROR_CYCLE] Error added at CPU cycle 566787034, interval 22, pending count: 1
[DRAM_CYCLE_ERROR] Cycle-based error applied! address=0x1d1a67090 additional_latency=1990500 cycles
Heartbeat CPU 0 instructions: 390000058 cycles: 579710980 heartbeat IPC: 0.6899 cumulative IPC: 0.6727 (Simulation time: 01 hr 02 min 49 sec)
[ERROR_CYCLE] Error added at CPU cycle 592550082, interval 23, pending count: 1
[DRAM_CYCLE_ERROR] Cycle-based error applied! address=0xd1fb366b0 additional_latency=1990500 cycles
Heartbeat CPU 0 instructions: 400000059 cycles: 594331701 heartbeat IPC: 0.684 cumulative IPC: 0.673 (Simulation time: 01 hr 04 min 28 sec)
Heartbeat CPU 0 instructions: 410000059 cycles: 608830952 heartbeat IPC: 0.6897 cumulative IPC: 0.6734 (Simulation time: 01 hr 06 min 02 sec)
[ERROR_CYCLE] Error added at CPU cycle 618313128, interval 24, pending count: 1
[DRAM_CYCLE_ERROR] Cycle-based error applied! address=0x191e6ef038 additional_latency=1990500 cycles
Heartbeat CPU 0 instructions: 420000062 cycles: 623507989 heartbeat IPC: 0.6813 cumulative IPC: 0.6736 (Simulation time: 01 hr 07 min 43 sec)
Heartbeat CPU 0 instructions: 430000065 cycles: 638276123 heartbeat IPC: 0.6771 cumulative IPC: 0.6737 (Simulation time: 01 hr 09 min 15 sec)
[ERROR_CYCLE] Error added at CPU cycle 644076176, interval 25, pending count: 1
[DRAM_CYCLE_ERROR] Cycle-based error applied! address=0x1e907c2108 additional_latency=1990500 cycles
Heartbeat CPU 0 instructions: 440000068 cycles: 653180748 heartbeat IPC: 0.6709 cumulative IPC: 0.6736 (Simulation time: 01 hr 10 min 49 sec)
Heartbeat CPU 0 instructions: 450000068 cycles: 667989186 heartbeat IPC: 0.6753 cumulative IPC: 0.6737 (Simulation time: 01 hr 12 min 37 sec)
[ERROR_CYCLE] Error added at CPU cycle 669839223, interval 26, pending count: 1
[DRAM_CYCLE_ERROR] Cycle-based error applied! address=0x1e906e7b80 additional_latency=1990500 cycles
Heartbeat CPU 0 instructions: 460000068 cycles: 682734850 heartbeat IPC: 0.6782 cumulative IPC: 0.6738 (Simulation time: 01 hr 14 min 13 sec)
[ERROR_CYCLE] Error added at CPU cycle 695602269, interval 27, pending count: 1
[DRAM_CYCLE_ERROR] Cycle-based error applied! address=0xf53bf9630 additional_latency=1990500 cycles
Heartbeat CPU 0 instructions: 470000068 cycles: 697591378 heartbeat IPC: 0.6731 cumulative IPC: 0.6737 (Simulation time: 01 hr 15 min 49 sec)
Heartbeat CPU 0 instructions: 480000068 cycles: 712376352 heartbeat IPC: 0.6764 cumulative IPC: 0.6738 (Simulation time: 01 hr 17 min 37 sec)
[ERROR_CYCLE] Error added at CPU cycle 721365317, interval 28, pending count: 1
[DRAM_CYCLE_ERROR] Cycle-based error applied! address=0x191e7545b0 additional_latency=1990500 cycles
Heartbeat CPU 0 instructions: 490000071 cycles: 727692772 heartbeat IPC: 0.6529 cumulative IPC: 0.6734 (Simulation time: 01 hr 19 min 28 sec)
Heartbeat CPU 0 instructions: 500000072 cycles: 742373330 heartbeat IPC: 0.6812 cumulative IPC: 0.6735 (Simulation time: 01 hr 21 min 16 sec)
[ERROR_CYCLE] Error added at CPU cycle 747128363, interval 29, pending count: 1
[DRAM_CYCLE_ERROR] Cycle-based error applied! address=0x1b92d3d7f8 additional_latency=1990500 cycles
Heartbeat CPU 0 instructions: 510000075 cycles: 757242004 heartbeat IPC: 0.6726 cumulative IPC: 0.6735 (Simulation time: 01 hr 23 min 04 sec)
Heartbeat CPU 0 instructions: 520000079 cycles: 772113864 heartbeat IPC: 0.6724 cumulative IPC: 0.6735 (Simulation time: 01 hr 24 min 52 sec)
[ERROR_CYCLE] Error added at CPU cycle 772891410, interval 30, pending count: 1
[DRAM_CYCLE_ERROR] Cycle-based error applied! address=0x429543e50 additional_latency=1990500 cycles
Heartbeat CPU 0 instructions: 530000080 cycles: 786839292 heartbeat IPC: 0.6791 cumulative IPC: 0.6736 (Simulation time: 01 hr 26 min 40 sec)
[ERROR_CYCLE] Error added at CPU cycle 798654458, interval 31, pending count: 1
[DRAM_CYCLE_ERROR] Cycle-based error applied! address=0x119a7b9778 additional_latency=1990500 cycles
Heartbeat CPU 0 instructions: 540000080 cycles: 801911471 heartbeat IPC: 0.6635 cumulative IPC: 0.6734 (Simulation time: 01 hr 28 min 29 sec)
Heartbeat CPU 0 instructions: 550000080 cycles: 816915739 heartbeat IPC: 0.6665 cumulative IPC: 0.6733 (Simulation time: 01 hr 30 min 16 sec)
[ERROR_CYCLE] Error added at CPU cycle 824417504, interval 32, pending count: 1
[DRAM_CYCLE_ERROR] Cycle-based error applied! address=0x961043c10 additional_latency=1990500 cycles
Heartbeat CPU 0 instructions: 560000082 cycles: 831774358 heartbeat IPC: 0.673 cumulative IPC: 0.6733 (Simulation time: 01 hr 31 min 53 sec)
Heartbeat CPU 0 instructions: 570000082 cycles: 846840261 heartbeat IPC: 0.6638 cumulative IPC: 0.6731 (Simulation time: 01 hr 33 min 43 sec)
[ERROR_CYCLE] Error added at CPU cycle 850180551, interval 33, pending count: 1
[DRAM_CYCLE_ERROR] Cycle-based error applied! address=0x1b61677cc0 additional_latency=1990500 cycles
Heartbeat CPU 0 instructions: 580000085 cycles: 861683764 heartbeat IPC: 0.6737 cumulative IPC: 0.6731 (Simulation time: 01 hr 35 min 32 sec)
[ERROR_CYCLE] Error added at CPU cycle 875943599, interval 34, pending count: 1
[DRAM_CYCLE_ERROR] Cycle-based error applied! address=0x1fed6c8ce8 additional_latency=1990500 cycles
Heartbeat CPU 0 instructions: 590000085 cycles: 876714913 heartbeat IPC: 0.6653 cumulative IPC: 0.673 (Simulation time: 01 hr 37 min 04 sec)
Heartbeat CPU 0 instructions: 600000086 cycles: 891530064 heartbeat IPC: 0.675 cumulative IPC: 0.673 (Simulation time: 01 hr 38 min 24 sec)
[ERROR_CYCLE] Error added at CPU cycle 901706645, interval 35, pending count: 1
[DRAM_CYCLE_ERROR] Cycle-based error applied! address=0x8ba8794a8 additional_latency=1990500 cycles
Heartbeat CPU 0 instructions: 610000086 cycles: 906279761 heartbeat IPC: 0.678 cumulative IPC: 0.6731 (Simulation time: 01 hr 39 min 44 sec)
Heartbeat CPU 0 instructions: 620000090 cycles: 921387016 heartbeat IPC: 0.6619 cumulative IPC: 0.6729 (Simulation time: 01 hr 41 min 27 sec)
[ERROR_CYCLE] Error added at CPU cycle 927469692, interval 36, pending count: 1
[DRAM_CYCLE_ERROR] Cycle-based error applied! address=0x13b4ca0bb8 additional_latency=1990500 cycles
Heartbeat CPU 0 instructions: 630000094 cycles: 936316499 heartbeat IPC: 0.6698 cumulative IPC: 0.6728 (Simulation time: 01 hr 43 min 13 sec)
Heartbeat CPU 0 instructions: 640000095 cycles: 951416961 heartbeat IPC: 0.6622 cumulative IPC: 0.6727 (Simulation time: 01 hr 45 min 01 sec)
[ERROR_CYCLE] Error added at CPU cycle 953232740, interval 37, pending count: 1
[DRAM_CYCLE_ERROR] Cycle-based error applied! address=0x1c789396f0 additional_latency=1990500 cycles
Heartbeat CPU 0 instructions: 650000098 cycles: 966375794 heartbeat IPC: 0.6685 cumulative IPC: 0.6726 (Simulation time: 01 hr 46 min 49 sec)
[ERROR_CYCLE] Error added at CPU cycle 978995786, interval 38, pending count: 1
[DRAM_CYCLE_ERROR] Cycle-based error applied! address=0x13833bc5c8 additional_latency=1990500 cycles
Heartbeat CPU 0 instructions: 660000100 cycles: 981380616 heartbeat IPC: 0.6665 cumulative IPC: 0.6725 (Simulation time: 01 hr 48 min 28 sec)
Heartbeat CPU 0 instructions: 670000101 cycles: 996296609 heartbeat IPC: 0.6704 cumulative IPC: 0.6725 (Simulation time: 01 hr 49 min 56 sec)
[ERROR_CYCLE] Error added at CPU cycle 1004758834, interval 39, pending count: 1
[DRAM_CYCLE_ERROR] Cycle-based error applied! address=0x1b92c4c360 additional_latency=1990500 cycles
Heartbeat CPU 0 instructions: 680000104 cycles: 1011200029 heartbeat IPC: 0.671 cumulative IPC: 0.6725 (Simulation time: 01 hr 51 min 21 sec)
Heartbeat CPU 0 instructions: 690000108 cycles: 1025999128 heartbeat IPC: 0.6757 cumulative IPC: 0.6725 (Simulation time: 01 hr 52 min 49 sec)
[ERROR_CYCLE] Error added at CPU cycle 1030521880, interval 40, pending count: 1
[DRAM_CYCLE_ERROR] Cycle-based error applied! address=0x8ba956ea0 additional_latency=1990500 cycles
Heartbeat CPU 0 instructions: 700000111 cycles: 1040806477 heartbeat IPC: 0.6753 cumulative IPC: 0.6726 (Simulation time: 01 hr 54 min 16 sec)
Heartbeat CPU 0 instructions: 710000111 cycles: 1055776967 heartbeat IPC: 0.668 cumulative IPC: 0.6725 (Simulation time: 01 hr 56 min 01 sec)
[ERROR_CYCLE] Error added at CPU cycle 1056284927, interval 41, pending count: 1
[DRAM_CYCLE_ERROR] Cycle-based error applied! address=0x15ac429610 additional_latency=1990500 cycles
Heartbeat CPU 0 instructions: 720000111 cycles: 1070784968 heartbeat IPC: 0.6663 cumulative IPC: 0.6724 (Simulation time: 01 hr 57 min 49 sec)
[ERROR_CYCLE] Error added at CPU cycle 1082047975, interval 42, pending count: 1
[DRAM_CYCLE_ERROR] Cycle-based error applied! address=0xd86addc90 additional_latency=1990500 cycles
Heartbeat CPU 0 instructions: 730000112 cycles: 1085548402 heartbeat IPC: 0.6773 cumulative IPC: 0.6725 (Simulation time: 01 hr 59 min 24 sec)
Heartbeat CPU 0 instructions: 740000114 cycles: 1100516172 heartbeat IPC: 0.6681 cumulative IPC: 0.6724 (Simulation time: 02 hr 01 min 13 sec)
[ERROR_CYCLE] Error added at CPU cycle 1107811021, interval 43, pending count: 1
[DRAM_CYCLE_ERROR] Cycle-based error applied! address=0xcf7ce1b30 additional_latency=1990500 cycles
Heartbeat CPU 0 instructions: 750000115 cycles: 1115326056 heartbeat IPC: 0.6752 cumulative IPC: 0.6724 (Simulation time: 02 hr 02 min 53 sec)
Heartbeat CPU 0 instructions: 760000117 cycles: 1130277184 heartbeat IPC: 0.6688 cumulative IPC: 0.6724 (Simulation time: 02 hr 04 min 34 sec)
[ERROR_CYCLE] Error added at CPU cycle 1133574068, interval 44, pending count: 1
[DRAM_CYCLE_ERROR] Cycle-based error applied! address=0x1b71da978 additional_latency=1990500 cycles
Heartbeat CPU 0 instructions: 770000119 cycles: 1144860588 heartbeat IPC: 0.6857 cumulative IPC: 0.6726 (Simulation time: 02 hr 06 min 16 sec)
[ERROR_CYCLE] Error added at CPU cycle 1159337116, interval 45, pending count: 1
[DRAM_CYCLE_ERROR] Cycle-based error applied! address=0x9ae67d848 additional_latency=1990500 cycles
Heartbeat CPU 0 instructions: 780000119 cycles: 1159797434 heartbeat IPC: 0.6695 cumulative IPC: 0.6725 (Simulation time: 02 hr 07 min 47 sec)
Heartbeat CPU 0 instructions: 790000119 cycles: 1174686097 heartbeat IPC: 0.6717 cumulative IPC: 0.6725 (Simulation time: 02 hr 09 min 29 sec)
[ERROR_CYCLE] Error added at CPU cycle 1185100162, interval 46, pending count: 1
[DRAM_CYCLE_ERROR] Cycle-based error applied! address=0x1ca590ba60 additional_latency=1990500 cycles
Heartbeat CPU 0 instructions: 800000119 cycles: 1189411267 heartbeat IPC: 0.6791 cumulative IPC: 0.6726 (Simulation time: 02 hr 11 min 04 sec)
Heartbeat CPU 0 instructions: 810000119 cycles: 1204160889 heartbeat IPC: 0.678 cumulative IPC: 0.6727 (Simulation time: 02 hr 12 min 51 sec)
[ERROR_CYCLE] Error added at CPU cycle 1210863209, interval 47, pending count: 1
[DRAM_CYCLE_ERROR] Cycle-based error applied! address=0x5a9887138 additional_latency=1990500 cycles
Heartbeat CPU 0 instructions: 820000120 cycles: 1219020249 heartbeat IPC: 0.673 cumulative IPC: 0.6727 (Simulation time: 02 hr 14 min 16 sec)
Heartbeat CPU 0 instructions: 830000122 cycles: 1233789885 heartbeat IPC: 0.6771 cumulative IPC: 0.6727 (Simulation time: 02 hr 15 min 39 sec)
[ERROR_CYCLE] Error added at CPU cycle 1236626257, interval 48, pending count: 1
[DRAM_CYCLE_ERROR] Cycle-based error applied! address=0x119a6f8440 additional_latency=1990500 cycles
Heartbeat CPU 0 instructions: 840000126 cycles: 1248363534 heartbeat IPC: 0.6862 cumulative IPC: 0.6729 (Simulation time: 02 hr 17 min 05 sec)
[ERROR_CYCLE] Error added at CPU cycle 1262389303, interval 49, pending count: 1
[DRAM_CYCLE_ERROR] Cycle-based error applied! address=0x8ba963dd0 additional_latency=1990500 cycles
Heartbeat CPU 0 instructions: 850000129 cycles: 1263222262 heartbeat IPC: 0.673 cumulative IPC: 0.6729 (Simulation time: 02 hr 18 min 53 sec)
Heartbeat CPU 0 instructions: 860000133 cycles: 1277995546 heartbeat IPC: 0.6769 cumulative IPC: 0.6729 (Simulation time: 02 hr 20 min 40 sec)
[ERROR_CYCLE] Error added at CPU cycle 1288152351, interval 50, pending count: 1
[DRAM_CYCLE_ERROR] Cycle-based error applied! address=0x138fa89db8 additional_latency=1990500 cycles
Heartbeat CPU 0 instructions: 870000136 cycles: 1292717717 heartbeat IPC: 0.6792 cumulative IPC: 0.673 (Simulation time: 02 hr 22 min 27 sec)
Heartbeat CPU 0 instructions: 880000138 cycles: 1307459641 heartbeat IPC: 0.6783 cumulative IPC: 0.6731 (Simulation time: 02 hr 24 min 05 sec)
[ERROR_CYCLE] Error added at CPU cycle 1313915398, interval 51, pending count: 1
[DRAM_CYCLE_ERROR] Cycle-based error applied! address=0x8ba815c00 additional_latency=1990500 cycles
Heartbeat CPU 0 instructions: 890000138 cycles: 1322155853 heartbeat IPC: 0.6804 cumulative IPC: 0.6731 (Simulation time: 02 hr 25 min 49 sec)
Heartbeat CPU 0 instructions: 900000142 cycles: 1336577789 heartbeat IPC: 0.6934 cumulative IPC: 0.6734 (Simulation time: 02 hr 27 min 34 sec)
[ERROR_CYCLE] Error added at CPU cycle 1339678444, interval 52, pending count: 1
[DRAM_CYCLE_ERROR] Cycle-based error applied! address=0x119a6414c8 additional_latency=1990500 cycles
Heartbeat CPU 0 instructions: 910000142 cycles: 1351240189 heartbeat IPC: 0.682 cumulative IPC: 0.6735 (Simulation time: 02 hr 29 min 20 sec)
[ERROR_CYCLE] Error added at CPU cycle 1365441492, interval 53, pending count: 1
[DRAM_CYCLE_ERROR] Cycle-based error applied! address=0xe50ed94b0 additional_latency=1990500 cycles
Heartbeat CPU 0 instructions: 920000143 cycles: 1366018720 heartbeat IPC: 0.6767 cumulative IPC: 0.6735 (Simulation time: 02 hr 30 min 45 sec)
Heartbeat CPU 0 instructions: 930000144 cycles: 1380414875 heartbeat IPC: 0.6946 cumulative IPC: 0.6737 (Simulation time: 02 hr 32 min 24 sec)
[ERROR_CYCLE] Error added at CPU cycle 1391204538, interval 54, pending count: 1
[DRAM_CYCLE_ERROR] Cycle-based error applied! address=0x145ceadc60 additional_latency=1990500 cycles
Heartbeat CPU 0 instructions: 940000145 cycles: 1394835944 heartbeat IPC: 0.6934 cumulative IPC: 0.6739 (Simulation time: 02 hr 33 min 47 sec)
Heartbeat CPU 0 instructions: 950000146 cycles: 1409580753 heartbeat IPC: 0.6782 cumulative IPC: 0.674 (Simulation time: 02 hr 35 min 33 sec)
[ERROR_CYCLE] Error added at CPU cycle 1416967585, interval 55, pending count: 1
[DRAM_CYCLE_ERROR] Cycle-based error applied! address=0x1b61627dc1 additional_latency=1990500 cycles
Heartbeat CPU 0 instructions: 960000149 cycles: 1424260042 heartbeat IPC: 0.6812 cumulative IPC: 0.674 (Simulation time: 02 hr 37 min 13 sec)
Heartbeat CPU 0 instructions: 970000151 cycles: 1439025747 heartbeat IPC: 0.6772 cumulative IPC: 0.6741 (Simulation time: 02 hr 38 min 45 sec)
[ERROR_CYCLE] Error added at CPU cycle 1442730633, interval 56, pending count: 1
[DRAM_CYCLE_ERROR] Cycle-based error applied! address=0x18c8b52638 additional_latency=1990500 cycles
Heartbeat CPU 0 instructions: 980000151 cycles: 1453555204 heartbeat IPC: 0.6883 cumulative IPC: 0.6742 (Simulation time: 02 hr 40 min 31 sec)
Heartbeat CPU 0 instructions: 990000152 cycles: 1468310619 heartbeat IPC: 0.6777 cumulative IPC: 0.6742 (Simulation time: 02 hr 42 min 18 sec)
[ERROR_CYCLE] Error added at CPU cycle 1468493679, interval 57, pending count: 1
[DRAM_CYCLE_ERROR] Cycle-based error applied! address=0xc454b1400 additional_latency=1990500 cycles
Heartbeat CPU 0 instructions: 1000000155 cycles: 1483076448 heartbeat IPC: 0.6772 cumulative IPC: 0.6743 (Simulation time: 02 hr 44 min 06 sec)
[ERROR_CYCLE] Error added at CPU cycle 1494256726, interval 58, pending count: 1
[DRAM_CYCLE_ERROR] Cycle-based error applied! address=0xe50f9ea68 additional_latency=1990500 cycles
Heartbeat CPU 0 instructions: 1010000157 cycles: 1497693535 heartbeat IPC: 0.6841 cumulative IPC: 0.6744 (Simulation time: 02 hr 45 min 53 sec)
Heartbeat CPU 0 instructions: 1020000158 cycles: 1512488095 heartbeat IPC: 0.6759 cumulative IPC: 0.6744 (Simulation time: 02 hr 47 min 18 sec)
[ERROR_CYCLE] Error added at CPU cycle 1520019774, interval 59, pending count: 1
[DRAM_CYCLE_ERROR] Cycle-based error applied! address=0x1a1a1ed928 additional_latency=1990500 cycles
Heartbeat CPU 0 instructions: 1030000159 cycles: 1527193749 heartbeat IPC: 0.68 cumulative IPC: 0.6744 (Simulation time: 02 hr 48 min 54 sec)
Heartbeat CPU 0 instructions: 1040000159 cycles: 1541875866 heartbeat IPC: 0.6811 cumulative IPC: 0.6745 (Simulation time: 02 hr 50 min 39 sec)
[ERROR_CYCLE] Error added at CPU cycle 1545782820, interval 60, pending count: 1
[DRAM_CYCLE_ERROR] Cycle-based error applied! address=0x9611d0bc6 additional_latency=1990500 cycles
Heartbeat CPU 0 instructions: 1050000161 cycles: 1556413667 heartbeat IPC: 0.6879 cumulative IPC: 0.6746 (Simulation time: 02 hr 52 min 11 sec)
Heartbeat CPU 0 instructions: 1060000161 cycles: 1570876384 heartbeat IPC: 0.6914 cumulative IPC: 0.6748 (Simulation time: 02 hr 53 min 24 sec)
[ERROR_CYCLE] Error added at CPU cycle 1571545867, interval 61, pending count: 1
[DRAM_CYCLE_ERROR] Cycle-based error applied! address=0xf662ae158 additional_latency=1990500 cycles
Heartbeat CPU 0 instructions: 1070000165 cycles: 1585394401 heartbeat IPC: 0.6888 cumulative IPC: 0.6749 (Simulation time: 02 hr 54 min 46 sec)
[ERROR_CYCLE] Error added at CPU cycle 1597308915, interval 62, pending count: 1
[DRAM_CYCLE_ERROR] Cycle-based error applied! address=0xe6ff92d30 additional_latency=1990500 cycles
Heartbeat CPU 0 instructions: 1080000166 cycles: 1600212163 heartbeat IPC: 0.6749 cumulative IPC: 0.6749 (Simulation time: 02 hr 56 min 27 sec)
Heartbeat CPU 0 instructions: 1090000166 cycles: 1614864829 heartbeat IPC: 0.6825 cumulative IPC: 0.675 (Simulation time: 02 hr 58 min 14 sec)
[ERROR_CYCLE] Error added at CPU cycle 1623071961, interval 63, pending count: 1
[DRAM_CYCLE_ERROR] Cycle-based error applied! address=0x15b5120250 additional_latency=1990500 cycles
Heartbeat CPU 0 instructions: 1100000166 cycles: 1629215963 heartbeat IPC: 0.6968 cumulative IPC: 0.6752 (Simulation time: 02 hr 59 min 59 sec)
Heartbeat CPU 0 instructions: 1110000166 cycles: 1643918808 heartbeat IPC: 0.6801 cumulative IPC: 0.6752 (Simulation time: 03 hr 01 min 46 sec)
[ERROR_CYCLE] Error added at CPU cycle 1648835009, interval 64, pending count: 1
[DRAM_CYCLE_ERROR] Cycle-based error applied! address=0x1f5dd4f958 additional_latency=1990500 cycles
Heartbeat CPU 0 instructions: 1120000168 cycles: 1658388278 heartbeat IPC: 0.6911 cumulative IPC: 0.6754 (Simulation time: 03 hr 03 min 32 sec)
Heartbeat CPU 0 instructions: 1130000172 cycles: 1673134877 heartbeat IPC: 0.6781 cumulative IPC: 0.6754 (Simulation time: 03 hr 05 min 04 sec)
[ERROR_CYCLE] Error added at CPU cycle 1674598055, interval 65, pending count: 1
[DRAM_CYCLE_ERROR] Cycle-based error applied! address=0x162e3f5848 additional_latency=1990500 cycles
Heartbeat CPU 0 instructions: 1140000176 cycles: 1687606835 heartbeat IPC: 0.691 cumulative IPC: 0.6755 (Simulation time: 03 hr 06 min 39 sec)
[ERROR_CYCLE] Error added at CPU cycle 1700361102, interval 66, pending count: 1
[DRAM_CYCLE_ERROR] Cycle-based error applied! address=0x1b92c8ead6 additional_latency=1990500 cycles
Heartbeat CPU 0 instructions: 1150000177 cycles: 1702053255 heartbeat IPC: 0.6922 cumulative IPC: 0.6757 (Simulation time: 03 hr 08 min 25 sec)
Heartbeat CPU 0 instructions: 1160000181 cycles: 1716568243 heartbeat IPC: 0.6889 cumulative IPC: 0.6758 (Simulation time: 03 hr 09 min 48 sec)
[ERROR_CYCLE] Error added at CPU cycle 1726124150, interval 67, pending count: 1
[DRAM_CYCLE_ERROR] Cycle-based error applied! address=0x119a7fe221 additional_latency=1990500 cycles
Heartbeat CPU 0 instructions: 1170000181 cycles: 1731217946 heartbeat IPC: 0.6826 cumulative IPC: 0.6758 (Simulation time: 03 hr 11 min 35 sec)
Heartbeat CPU 0 instructions: 1180000184 cycles: 1745703509 heartbeat IPC: 0.6903 cumulative IPC: 0.6759 (Simulation time: 03 hr 13 min 22 sec)
[ERROR_CYCLE] Error added at CPU cycle 1751887196, interval 68, pending count: 1
[DRAM_CYCLE_ERROR] Cycle-based error applied! address=0x138324b1f0 additional_latency=1990500 cycles
Heartbeat CPU 0 instructions: 1190000185 cycles: 1760490256 heartbeat IPC: 0.6763 cumulative IPC: 0.6759 (Simulation time: 03 hr 14 min 56 sec)
Heartbeat CPU 0 instructions: 1200000186 cycles: 1775097495 heartbeat IPC: 0.6846 cumulative IPC: 0.676 (Simulation time: 03 hr 16 min 28 sec)
[ERROR_CYCLE] Error added at CPU cycle 1777650243, interval 69, pending count: 1
[DRAM_CYCLE_ERROR] Cycle-based error applied! address=0x119a70ee20 additional_latency=1990500 cycles
Heartbeat CPU 0 instructions: 1210000189 cycles: 1789665173 heartbeat IPC: 0.6865 cumulative IPC: 0.6761 (Simulation time: 03 hr 17 min 52 sec)
[ERROR_CYCLE] Error added at CPU cycle 1803413291, interval 70, pending count: 1
[DRAM_CYCLE_ERROR] Cycle-based error applied! address=0x1a245ce338 additional_latency=1990500 cycles
Heartbeat CPU 0 instructions: 1220000191 cycles: 1804267457 heartbeat IPC: 0.6848 cumulative IPC: 0.6762 (Simulation time: 03 hr 19 min 26 sec)
Heartbeat CPU 0 instructions: 1230000191 cycles: 1818874218 heartbeat IPC: 0.6846 cumulative IPC: 0.6762 (Simulation time: 03 hr 21 min 12 sec)
[ERROR_CYCLE] Error added at CPU cycle 1829176337, interval 71, pending count: 1
[DRAM_CYCLE_ERROR] Cycle-based error applied! address=0x1556a26ea9 additional_latency=1990500 cycles
Heartbeat CPU 0 instructions: 1240000192 cycles: 1833414046 heartbeat IPC: 0.6878 cumulative IPC: 0.6763 (Simulation time: 03 hr 22 min 58 sec)
Heartbeat CPU 0 instructions: 1250000193 cycles: 1848015801 heartbeat IPC: 0.6848 cumulative IPC: 0.6764 (Simulation time: 03 hr 24 min 44 sec)
[ERROR_CYCLE] Error added at CPU cycle 1854939384, interval 72, pending count: 1
[DRAM_CYCLE_ERROR] Cycle-based error applied! address=0x1a6737cb30 additional_latency=1990500 cycles
Heartbeat CPU 0 instructions: 1260000195 cycles: 1862580224 heartbeat IPC: 0.6866 cumulative IPC: 0.6765 (Simulation time: 03 hr 26 min 30 sec)
Heartbeat CPU 0 instructions: 1270000195 cycles: 1877075389 heartbeat IPC: 0.6899 cumulative IPC: 0.6766 (Simulation time: 03 hr 28 min 15 sec)
[ERROR_CYCLE] Error added at CPU cycle 1880702432, interval 73, pending count: 1
[DRAM_CYCLE_ERROR] Cycle-based error applied! address=0x1ecf386f20 additional_latency=1990500 cycles
Heartbeat CPU 0 instructions: 1280000195 cycles: 1891708653 heartbeat IPC: 0.6834 cumulative IPC: 0.6766 (Simulation time: 03 hr 30 min 01 sec)
Heartbeat CPU 0 instructions: 1290000198 cycles: 1906440105 heartbeat IPC: 0.6788 cumulative IPC: 0.6767 (Simulation time: 03 hr 31 min 47 sec)
[ERROR_CYCLE] Error added at CPU cycle 1906465478, interval 74, pending count: 1
[DRAM_CYCLE_ERROR] Cycle-based error applied! address=0x1ca59fa8d8 additional_latency=1990500 cycles
Heartbeat CPU 0 instructions: 1300000199 cycles: 1920949196 heartbeat IPC: 0.6892 cumulative IPC: 0.6767 (Simulation time: 03 hr 33 min 34 sec)
[ERROR_CYCLE] Error added at CPU cycle 1932228526, interval 75, pending count: 1
[DRAM_CYCLE_ERROR] Cycle-based error applied! address=0x1e906d6098 additional_latency=1990500 cycles
Heartbeat CPU 0 instructions: 1310000199 cycles: 1935377846 heartbeat IPC: 0.6931 cumulative IPC: 0.6769 (Simulation time: 03 hr 35 min 19 sec)
Heartbeat CPU 0 instructions: 1320000200 cycles: 1950079028 heartbeat IPC: 0.6802 cumulative IPC: 0.6769 (Simulation time: 03 hr 36 min 58 sec)
[ERROR_CYCLE] Error added at CPU cycle 1957991572, interval 76, pending count: 1
[DRAM_CYCLE_ERROR] Cycle-based error applied! address=0x8ba97c3a8 additional_latency=1990500 cycles
Heartbeat CPU 0 instructions: 1330000200 cycles: 1964576493 heartbeat IPC: 0.6898 cumulative IPC: 0.677 (Simulation time: 03 hr 38 min 18 sec)
Heartbeat CPU 0 instructions: 1340000202 cycles: 1979129474 heartbeat IPC: 0.6871 cumulative IPC: 0.6771 (Simulation time: 03 hr 39 min 26 sec)
[ERROR_CYCLE] Error added at CPU cycle 1983754619, interval 77, pending count: 1
[DRAM_CYCLE_ERROR] Cycle-based error applied! address=0xe50f4fc40 additional_latency=1990500 cycles
Heartbeat CPU 0 instructions: 1350000205 cycles: 1993803797 heartbeat IPC: 0.6815 cumulative IPC: 0.6771 (Simulation time: 03 hr 40 min 56 sec)
Heartbeat CPU 0 instructions: 1360000205 cycles: 2008158430 heartbeat IPC: 0.6966 cumulative IPC: 0.6772 (Simulation time: 03 hr 42 min 42 sec)
[ERROR_CYCLE] Error added at CPU cycle 2009517667, interval 78, pending count: 1
[DRAM_CYCLE_ERROR] Cycle-based error applied! address=0x42949c8d1 additional_latency=1990500 cycles
Heartbeat CPU 0 instructions: 1370000207 cycles: 2022808479 heartbeat IPC: 0.6826 cumulative IPC: 0.6773 (Simulation time: 03 hr 44 min 30 sec)
[ERROR_CYCLE] Error added at CPU cycle 2035280713, interval 79, pending count: 1
[DRAM_CYCLE_ERROR] Cycle-based error applied! address=0x15ac5c87f0 additional_latency=1990500 cycles
Heartbeat CPU 0 instructions: 1380000207 cycles: 2037472535 heartbeat IPC: 0.6819 cumulative IPC: 0.6773 (Simulation time: 03 hr 46 min 18 sec)
Heartbeat CPU 0 instructions: 1390000207 cycles: 2052144806 heartbeat IPC: 0.6816 cumulative IPC: 0.6773 (Simulation time: 03 hr 48 min 05 sec)
[ERROR_CYCLE] Error added at CPU cycle 2061043760, interval 80, pending count: 1
[DRAM_CYCLE_ERROR] Cycle-based error applied! address=0x1b92ca0b08 additional_latency=1990500 cycles
Heartbeat CPU 0 instructions: 1400000207 cycles: 2066672755 heartbeat IPC: 0.6883 cumulative IPC: 0.6774 (Simulation time: 03 hr 49 min 18 sec)
Heartbeat CPU 0 instructions: 1410000207 cycles: 2081340312 heartbeat IPC: 0.6818 cumulative IPC: 0.6774 (Simulation time: 03 hr 50 min 48 sec)
[ERROR_CYCLE] Error added at CPU cycle 2086806808, interval 81, pending count: 1
[DRAM_CYCLE_ERROR] Cycle-based error applied! address=0x18c8b372f6 additional_latency=1990500 cycles
Heartbeat CPU 0 instructions: 1420000207 cycles: 2096122751 heartbeat IPC: 0.6765 cumulative IPC: 0.6774 (Simulation time: 03 hr 52 min 11 sec)
Heartbeat CPU 0 instructions: 1430000211 cycles: 2110815156 heartbeat IPC: 0.6806 cumulative IPC: 0.6775 (Simulation time: 03 hr 53 min 30 sec)
[ERROR_CYCLE] Error added at CPU cycle 2112569854, interval 82, pending count: 1
[DRAM_CYCLE_ERROR] Cycle-based error applied! address=0x119a697481 additional_latency=1990500 cycles
Heartbeat CPU 0 instructions: 1440000213 cycles: 2125632316 heartbeat IPC: 0.6749 cumulative IPC: 0.6774 (Simulation time: 03 hr 54 min 56 sec)
[ERROR_CYCLE] Error added at CPU cycle 2138332901, interval 83, pending count: 1
[DRAM_CYCLE_ERROR] Cycle-based error applied! address=0x1d1ada818 additional_latency=1990500 cycles
Heartbeat CPU 0 instructions: 1450000215 cycles: 2139945393 heartbeat IPC: 0.6987 cumulative IPC: 0.6776 (Simulation time: 03 hr 56 min 26 sec)
Heartbeat CPU 0 instructions: 1460000218 cycles: 2154589444 heartbeat IPC: 0.6829 cumulative IPC: 0.6776 (Simulation time: 03 hr 57 min 58 sec)
[ERROR_CYCLE] Error added at CPU cycle 2164095949, interval 84, pending count: 1
[DRAM_CYCLE_ERROR] Cycle-based error applied! address=0x13b4d50ff0 additional_latency=1990500 cycles
Heartbeat CPU 0 instructions: 1470000218 cycles: 2169103532 heartbeat IPC: 0.689 cumulative IPC: 0.6777 (Simulation time: 03 hr 59 min 40 sec)
Heartbeat CPU 0 instructions: 1480000218 cycles: 2183676107 heartbeat IPC: 0.6862 cumulative IPC: 0.6778 (Simulation time: 04 hr 01 min 07 sec)
[ERROR_CYCLE] Error added at CPU cycle 2189858995, interval 85, pending count: 1
[DRAM_CYCLE_ERROR] Cycle-based error applied! address=0xa439c7340 additional_latency=1990500 cycles
Heartbeat CPU 0 instructions: 1490000222 cycles: 2198202777 heartbeat IPC: 0.6884 cumulative IPC: 0.6778 (Simulation time: 04 hr 02 min 29 sec)
Heartbeat CPU 0 instructions: 1500000226 cycles: 2212825941 heartbeat IPC: 0.6838 cumulative IPC: 0.6779 (Simulation time: 04 hr 03 min 59 sec)
[ERROR_CYCLE] Error added at CPU cycle 2215622043, interval 86, pending count: 1
[DRAM_CYCLE_ERROR] Cycle-based error applied! address=0x1946533bf8 additional_latency=1990500 cycles
Heartbeat CPU 0 instructions: 1510000228 cycles: 2227460632 heartbeat IPC: 0.6833 cumulative IPC: 0.6779 (Simulation time: 04 hr 05 min 45 sec)
[ERROR_CYCLE] Error added at CPU cycle 2241385090, interval 87, pending count: 1
[DRAM_CYCLE_ERROR] Cycle-based error applied! address=0x1525c34038 additional_latency=1990500 cycles
Heartbeat CPU 0 instructions: 1520000228 cycles: 2242074775 heartbeat IPC: 0.6843 cumulative IPC: 0.6779 (Simulation time: 04 hr 07 min 29 sec)
Heartbeat CPU 0 instructions: 1530000229 cycles: 2256846882 heartbeat IPC: 0.677 cumulative IPC: 0.6779 (Simulation time: 04 hr 09 min 16 sec)
[ERROR_CYCLE] Error added at CPU cycle 2267148136, interval 88, pending count: 1
[DRAM_CYCLE_ERROR] Cycle-based error applied! address=0xdafccef70 additional_latency=1990500 cycles
Heartbeat CPU 0 instructions: 1540000230 cycles: 2271567283 heartbeat IPC: 0.6793 cumulative IPC: 0.6779 (Simulation time: 04 hr 11 min 05 sec)
Heartbeat CPU 0 instructions: 1550000233 cycles: 2286508535 heartbeat IPC: 0.6693 cumulative IPC: 0.6779 (Simulation time: 04 hr 12 min 42 sec)
[ERROR_CYCLE] Error added at CPU cycle 2292911184, interval 89, pending count: 1
[DRAM_CYCLE_ERROR] Cycle-based error applied! address=0x1a2444fad0 additional_latency=1990500 cycles
Heartbeat CPU 0 instructions: 1560000236 cycles: 2301309421 heartbeat IPC: 0.6756 cumulative IPC: 0.6779 (Simulation time: 04 hr 14 min 11 sec)
Heartbeat CPU 0 instructions: 1570000239 cycles: 2316164130 heartbeat IPC: 0.6732 cumulative IPC: 0.6778 (Simulation time: 04 hr 15 min 42 sec)
[ERROR_CYCLE] Error added at CPU cycle 2318674230, interval 90, pending count: 1
[DRAM_CYCLE_ERROR] Cycle-based error applied! address=0x13dda2a140 additional_latency=1990500 cycles
Heartbeat CPU 0 instructions: 1580000242 cycles: 2331152557 heartbeat IPC: 0.6672 cumulative IPC: 0.6778 (Simulation time: 04 hr 17 min 09 sec)
[ERROR_CYCLE] Error added at CPU cycle 2344437277, interval 91, pending count: 1
[DRAM_CYCLE_ERROR] Cycle-based error applied! address=0x141377120 additional_latency=1990500 cycles
Heartbeat CPU 0 instructions: 1590000245 cycles: 2346126163 heartbeat IPC: 0.6678 cumulative IPC: 0.6777 (Simulation time: 04 hr 18 min 58 sec)
Heartbeat CPU 0 instructions: 1600000249 cycles: 2360964817 heartbeat IPC: 0.6739 cumulative IPC: 0.6777 (Simulation time: 04 hr 20 min 29 sec)
[ERROR_CYCLE] Error added at CPU cycle 2370200325, interval 92, pending count: 1
[DRAM_CYCLE_ERROR] Cycle-based error applied! address=0x119a76dc28 additional_latency=1990500 cycles
Heartbeat CPU 0 instructions: 1610000250 cycles: 2375780752 heartbeat IPC: 0.6749 cumulative IPC: 0.6777 (Simulation time: 04 hr 22 min 11 sec)
Heartbeat CPU 0 instructions: 1620000253 cycles: 2390618287 heartbeat IPC: 0.674 cumulative IPC: 0.6776 (Simulation time: 04 hr 23 min 58 sec)
[ERROR_CYCLE] Error added at CPU cycle 2395963371, interval 93, pending count: 1
[DRAM_CYCLE_ERROR] Cycle-based error applied! address=0xc39ea61f8 additional_latency=1990500 cycles
Heartbeat CPU 0 instructions: 1630000253 cycles: 2405543749 heartbeat IPC: 0.67 cumulative IPC: 0.6776 (Simulation time: 04 hr 25 min 42 sec)
Heartbeat CPU 0 instructions: 1640000255 cycles: 2420299281 heartbeat IPC: 0.6777 cumulative IPC: 0.6776 (Simulation time: 04 hr 27 min 15 sec)
[ERROR_CYCLE] Error added at CPU cycle 2421726418, interval 94, pending count: 1
[DRAM_CYCLE_ERROR] Cycle-based error applied! address=0x138fa54f80 additional_latency=1990500 cycles
Heartbeat CPU 0 instructions: 1650000258 cycles: 2435109609 heartbeat IPC: 0.6752 cumulative IPC: 0.6776 (Simulation time: 04 hr 28 min 32 sec)
[ERROR_CYCLE] Error added at CPU cycle 2447489466, interval 95, pending count: 1
[DRAM_CYCLE_ERROR] Cycle-based error applied! address=0xe50f1f240 additional_latency=1990500 cycles
Heartbeat CPU 0 instructions: 1660000261 cycles: 2450004875 heartbeat IPC: 0.6714 cumulative IPC: 0.6775 (Simulation time: 04 hr 30 min 04 sec)
Heartbeat CPU 0 instructions: 1670000263 cycles: 2464857260 heartbeat IPC: 0.6733 cumulative IPC: 0.6775 (Simulation time: 04 hr 31 min 32 sec)
[ERROR_CYCLE] Error added at CPU cycle 2473252512, interval 96, pending count: 1
[DRAM_CYCLE_ERROR] Cycle-based error applied! address=0x1d5e2095f8 additional_latency=1990500 cycles
Heartbeat CPU 0 instructions: 1680000266 cycles: 2479859007 heartbeat IPC: 0.6666 cumulative IPC: 0.6775 (Simulation time: 04 hr 33 min 10 sec)
Heartbeat CPU 0 instructions: 1690000270 cycles: 2494736339 heartbeat IPC: 0.6722 cumulative IPC: 0.6774 (Simulation time: 04 hr 34 min 27 sec)
[ERROR_CYCLE] Error added at CPU cycle 2499015559, interval 97, pending count: 1
[DRAM_CYCLE_ERROR] Cycle-based error applied! address=0x162e395a14 additional_latency=1990500 cycles
Heartbeat CPU 0 instructions: 1700000271 cycles: 2509627138 heartbeat IPC: 0.6716 cumulative IPC: 0.6774 (Simulation time: 04 hr 36 min 05 sec)
Heartbeat CPU 0 instructions: 1710000271 cycles: 2524420126 heartbeat IPC: 0.676 cumulative IPC: 0.6774 (Simulation time: 04 hr 37 min 51 sec)
[ERROR_CYCLE] Error added at CPU cycle 2524778607, interval 98, pending count: 1
[DRAM_CYCLE_ERROR] Cycle-based error applied! address=0x1d5e2a2f08 additional_latency=1990500 cycles
Heartbeat CPU 0 instructions: 1720000274 cycles: 2539375848 heartbeat IPC: 0.6686 cumulative IPC: 0.6773 (Simulation time: 04 hr 39 min 39 sec)
[ERROR_CYCLE] Error added at CPU cycle 2550541653, interval 99, pending count: 1
[DRAM_CYCLE_ERROR] Cycle-based error applied! address=0x1a2446d230 additional_latency=1990500 cycles
Heartbeat CPU 0 instructions: 1730000275 cycles: 2554465921 heartbeat IPC: 0.6627 cumulative IPC: 0.6772 (Simulation time: 04 hr 41 min 28 sec)
Heartbeat CPU 0 instructions: 1740000278 cycles: 2569155936 heartbeat IPC: 0.6807 cumulative IPC: 0.6773 (Simulation time: 04 hr 43 min 16 sec)
[ERROR_CYCLE] Error added at CPU cycle 2576304701, interval 100, pending count: 1
[DRAM_CYCLE_ERROR] Cycle-based error applied! address=0x15ac4ba140 additional_latency=1990500 cycles
Heartbeat CPU 0 instructions: 1750000279 cycles: 2583942838 heartbeat IPC: 0.6763 cumulative IPC: 0.6773 (Simulation time: 04 hr 44 min 42 sec)
Heartbeat CPU 0 instructions: 1760000279 cycles: 2598966026 heartbeat IPC: 0.6656 cumulative IPC: 0.6772 (Simulation time: 04 hr 46 min 32 sec)
[ERROR_CYCLE] Error added at CPU cycle 2602067747, interval 101, pending count: 1
[DRAM_CYCLE_ERROR] Cycle-based error applied! address=0x8ba872671 additional_latency=1990500 cycles
Heartbeat CPU 0 instructions: 1770000282 cycles: 2613997941 heartbeat IPC: 0.6653 cumulative IPC: 0.6771 (Simulation time: 04 hr 48 min 14 sec)
[ERROR_CYCLE] Error added at CPU cycle 2627830794, interval 102, pending count: 1
[DRAM_CYCLE_ERROR] Cycle-based error applied! address=0x13832c2230 additional_latency=1990500 cycles
Heartbeat CPU 0 instructions: 1780000282 cycles: 2628828489 heartbeat IPC: 0.6743 cumulative IPC: 0.6771 (Simulation time: 04 hr 49 min 30 sec)
Heartbeat CPU 0 instructions: 1790000283 cycles: 2643623823 heartbeat IPC: 0.6759 cumulative IPC: 0.6771 (Simulation time: 04 hr 51 min 06 sec)
[ERROR_CYCLE] Error added at CPU cycle 2653593842, interval 103, pending count: 1
[DRAM_CYCLE_ERROR] Cycle-based error applied! address=0x8ba8d5f10 additional_latency=1990500 cycles
Heartbeat CPU 0 instructions: 1800000284 cycles: 2658479480 heartbeat IPC: 0.6731 cumulative IPC: 0.6771 (Simulation time: 04 hr 52 min 45 sec)
Heartbeat CPU 0 instructions: 1810000286 cycles: 2673208008 heartbeat IPC: 0.679 cumulative IPC: 0.6771 (Simulation time: 04 hr 54 min 23 sec)
[ERROR_CYCLE] Error added at CPU cycle 2679356888, interval 104, pending count: 1
[DRAM_CYCLE_ERROR] Cycle-based error applied! address=0x1fed716630 additional_latency=1990500 cycles
Heartbeat CPU 0 instructions: 1820000287 cycles: 2688229388 heartbeat IPC: 0.6657 cumulative IPC: 0.677 (Simulation time: 04 hr 56 min 12 sec)
Heartbeat CPU 0 instructions: 1830000289 cycles: 2702956556 heartbeat IPC: 0.679 cumulative IPC: 0.677 (Simulation time: 04 hr 57 min 35 sec)
[ERROR_CYCLE] Error added at CPU cycle 2705119935, interval 105, pending count: 1
[DRAM_CYCLE_ERROR] Cycle-based error applied! address=0x11ea2ce298 additional_latency=1990500 cycles
Heartbeat CPU 0 instructions: 1840000289 cycles: 2717753661 heartbeat IPC: 0.6758 cumulative IPC: 0.677 (Simulation time: 04 hr 59 min 12 sec)
[ERROR_CYCLE] Error added at CPU cycle 2730882983, interval 106, pending count: 1
[DRAM_CYCLE_ERROR] Cycle-based error applied! address=0x1a673ebd50 additional_latency=1990500 cycles
Heartbeat CPU 0 instructions: 1850000292 cycles: 2732626863 heartbeat IPC: 0.6724 cumulative IPC: 0.677 (Simulation time: 05 hr 00 min 48 sec)
Heartbeat CPU 0 instructions: 1860000292 cycles: 2747506298 heartbeat IPC: 0.6721 cumulative IPC: 0.677 (Simulation time: 05 hr 02 min 35 sec)
[ERROR_CYCLE] Error added at CPU cycle 2756646029, interval 107, pending count: 1
[DRAM_CYCLE_ERROR] Cycle-based error applied! address=0x15b5123398 additional_latency=1990500 cycles
Heartbeat CPU 0 instructions: 1870000296 cycles: 2762429141 heartbeat IPC: 0.6701 cumulative IPC: 0.6769 (Simulation time: 05 hr 04 min 20 sec)
Heartbeat CPU 0 instructions: 1880000298 cycles: 2777252634 heartbeat IPC: 0.6746 cumulative IPC: 0.6769 (Simulation time: 05 hr 06 min 06 sec)
[ERROR_CYCLE] Error added at CPU cycle 2782409076, interval 108, pending count: 1
[DRAM_CYCLE_ERROR] Cycle-based error applied! address=0x182e8eb840 additional_latency=1990500 cycles
Heartbeat CPU 0 instructions: 1890000302 cycles: 2791969774 heartbeat IPC: 0.6795 cumulative IPC: 0.6769 (Simulation time: 05 hr 07 min 51 sec)
Heartbeat CPU 0 instructions: 1900000302 cycles: 2806739750 heartbeat IPC: 0.677 cumulative IPC: 0.6769 (Simulation time: 05 hr 09 min 33 sec)
[ERROR_CYCLE] Error added at CPU cycle 2808172124, interval 109, pending count: 1
[DRAM_CYCLE_ERROR] Cycle-based error applied! address=0x1fadbf5058 additional_latency=1990500 cycles
Heartbeat CPU 0 instructions: 1910000305 cycles: 2821411045 heartbeat IPC: 0.6816 cumulative IPC: 0.677 (Simulation time: 05 hr 11 min 15 sec)
[ERROR_CYCLE] Error added at CPU cycle 2833935170, interval 110, pending count: 1
[DRAM_CYCLE_ERROR] Cycle-based error applied! address=0xed65afce8 additional_latency=1990500 cycles
Heartbeat CPU 0 instructions: 1920000307 cycles: 2836426456 heartbeat IPC: 0.666 cumulative IPC: 0.6769 (Simulation time: 05 hr 13 min 05 sec)
Heartbeat CPU 0 instructions: 1930000310 cycles: 2851403307 heartbeat IPC: 0.6677 cumulative IPC: 0.6769 (Simulation time: 05 hr 14 min 52 sec)
[ERROR_CYCLE] Error added at CPU cycle 2859698218, interval 111, pending count: 1
[DRAM_CYCLE_ERROR] Cycle-based error applied! address=0xdafcd6710 additional_latency=1990500 cycles
Heartbeat CPU 0 instructions: 1940000310 cycles: 2866207626 heartbeat IPC: 0.6755 cumulative IPC: 0.6769 (Simulation time: 05 hr 16 min 19 sec)
Heartbeat CPU 0 instructions: 1950000311 cycles: 2881024363 heartbeat IPC: 0.6749 cumulative IPC: 0.6768 (Simulation time: 05 hr 18 min 03 sec)
[ERROR_CYCLE] Error added at CPU cycle 2885461265, interval 112, pending count: 1
[DRAM_CYCLE_ERROR] Cycle-based error applied! address=0x16c408f516 additional_latency=1990500 cycles
Heartbeat CPU 0 instructions: 1960000313 cycles: 2895693370 heartbeat IPC: 0.6817 cumulative IPC: 0.6769 (Simulation time: 05 hr 19 min 51 sec)
Heartbeat CPU 0 instructions: 1970000313 cycles: 2910383930 heartbeat IPC: 0.6807 cumulative IPC: 0.6769 (Simulation time: 05 hr 21 min 40 sec)
[ERROR_CYCLE] Error added at CPU cycle 2911224311, interval 113, pending count: 1
[DRAM_CYCLE_ERROR] Cycle-based error applied! address=0x28dec9bd8 additional_latency=1990500 cycles
Heartbeat CPU 0 instructions: 1980000314 cycles: 2925095754 heartbeat IPC: 0.6797 cumulative IPC: 0.6769 (Simulation time: 05 hr 23 min 08 sec)
[ERROR_CYCLE] Error added at CPU cycle 2936987359, interval 114, pending count: 1
[DRAM_CYCLE_ERROR] Cycle-based error applied! address=0xd86adc5e8 additional_latency=1990500 cycles
Heartbeat CPU 0 instructions: 1990000314 cycles: 2939707587 heartbeat IPC: 0.6844 cumulative IPC: 0.6769 (Simulation time: 05 hr 24 min 19 sec)

=== ERROR PAGE STATISTICS ===
Mode: CYCLE
Error Cycle Interval: 25763047 CPU cycles
Total Error Accesses: 114
==============================
Simulation finished CPU 0 instructions: 1999999986 cycles: 2954296677 cumulative IPC: 0.677 (Simulation time: 05 hr 26 min 04 sec)
Simulation complete CPU 0 instructions: 1999999986 cycles: 2954296677 cumulative IPC: 0.677 (Simulation time: 05 hr 26 min 04 sec)

ChampSim completed all CPUs

=== Simulation ===
CPU 0 runs test_traces/620.omnetpp_s-141B.champsimtrace.xz

Region of Interest Statistics

CPU 0 cumulative IPC: 0.677 instructions: 1999999986 cycles: 2954296677
CPU 0 Branch Prediction Accuracy: 92.96% MPKI: 14.8 Average ROB Occupancy at Mispredict: 42.41
Branch type MPKI
BRANCH_DIRECT_JUMP: 0.8484
BRANCH_INDIRECT: 0.3555
BRANCH_CONDITIONAL: 12.32
BRANCH_DIRECT_CALL: 0.0001295
BRANCH_INDIRECT_CALL: 0.8457
BRANCH_RETURN: 0.4309

cpu0->cpu0_STLB TOTAL        ACCESS:    2805472 HIT:    2805357 MISS:        115 MSHR_MERGE:          0
cpu0->cpu0_STLB LOAD         ACCESS:    2805472 HIT:    2805357 MISS:        115 MSHR_MERGE:          0
cpu0->cpu0_STLB RFO          ACCESS:          0 HIT:          0 MISS:          0 MSHR_MERGE:          0
cpu0->cpu0_STLB PREFETCH     ACCESS:          0 HIT:          0 MISS:          0 MSHR_MERGE:          0
cpu0->cpu0_STLB WRITE        ACCESS:          0 HIT:          0 MISS:          0 MSHR_MERGE:          0
cpu0->cpu0_STLB TRANSLATION  ACCESS:          0 HIT:          0 MISS:          0 MSHR_MERGE:          0
cpu0->cpu0_STLB PREFETCH REQUESTED:          0 ISSUED:          0 USEFUL:          0 USELESS:          0
cpu0->cpu0_STLB AVERAGE MISS LATENCY: 8795 cycles
cpu0->cpu0_L2C TOTAL        ACCESS:   56648126 HIT:   29475872 MISS:   27172254 MSHR_MERGE:          0
cpu0->cpu0_L2C LOAD         ACCESS:   33707389 HIT:   10164052 MISS:   23543337 MSHR_MERGE:          0
cpu0->cpu0_L2C RFO          ACCESS:    4838816 HIT:    1232946 MISS:    3605870 MSHR_MERGE:          0
cpu0->cpu0_L2C PREFETCH     ACCESS:          0 HIT:          0 MISS:          0 MSHR_MERGE:          0
cpu0->cpu0_L2C WRITE        ACCESS:   18101921 HIT:   18078874 MISS:      23047 MSHR_MERGE:          0
cpu0->cpu0_L2C TRANSLATION  ACCESS:          0 HIT:          0 MISS:          0 MSHR_MERGE:          0
cpu0->cpu0_L2C PREFETCH REQUESTED:          0 ISSUED:          0 USEFUL:          0 USELESS:          0
cpu0->cpu0_L2C AVERAGE MISS LATENCY: 90.98 cycles
cpu0->cpu0_L1I TOTAL        ACCESS:  267256022 HIT:  265533171 MISS:    1722851 MSHR_MERGE:     435759
cpu0->cpu0_L1I LOAD         ACCESS:  267256022 HIT:  265533171 MISS:    1722851 MSHR_MERGE:     435759
cpu0->cpu0_L1I RFO          ACCESS:          0 HIT:          0 MISS:          0 MSHR_MERGE:          0
cpu0->cpu0_L1I PREFETCH     ACCESS:          0 HIT:          0 MISS:          0 MSHR_MERGE:          0
cpu0->cpu0_L1I WRITE        ACCESS:          0 HIT:          0 MISS:          0 MSHR_MERGE:          0
cpu0->cpu0_L1I TRANSLATION  ACCESS:          0 HIT:          0 MISS:          0 MSHR_MERGE:          0
cpu0->cpu0_L1I PREFETCH REQUESTED:          0 ISSUED:          0 USEFUL:          0 USELESS:          0
cpu0->cpu0_L1I AVERAGE MISS LATENCY: 12.05 cycles
cpu0->cpu0_L1D TOTAL        ACCESS:  808742728 HIT:  751448173 MISS:   57294555 MSHR_MERGE:   20035295
cpu0->cpu0_L1D LOAD         ACCESS:  441061089 HIT:  397758720 MISS:   43302369 MSHR_MERGE:   10881978
cpu0->cpu0_L1D RFO          ACCESS:          0 HIT:          0 MISS:          0 MSHR_MERGE:          0
cpu0->cpu0_L1D PREFETCH     ACCESS:          0 HIT:          0 MISS:          0 MSHR_MERGE:          0
cpu0->cpu0_L1D WRITE        ACCESS:  367681639 HIT:  353689453 MISS:   13992186 MSHR_MERGE:    9153317
cpu0->cpu0_L1D TRANSLATION  ACCESS:          0 HIT:          0 MISS:          0 MSHR_MERGE:          0
cpu0->cpu0_L1D PREFETCH REQUESTED:          0 ISSUED:          0 USEFUL:          0 USELESS:          0
cpu0->cpu0_L1D AVERAGE MISS LATENCY: 74.99 cycles
cpu0->cpu0_ITLB TOTAL        ACCESS:  234322097 HIT:  234322094 MISS:          3 MSHR_MERGE:          1
cpu0->cpu0_ITLB LOAD         ACCESS:  234322097 HIT:  234322094 MISS:          3 MSHR_MERGE:          1
cpu0->cpu0_ITLB RFO          ACCESS:          0 HIT:          0 MISS:          0 MSHR_MERGE:          0
cpu0->cpu0_ITLB PREFETCH     ACCESS:          0 HIT:          0 MISS:          0 MSHR_MERGE:          0
cpu0->cpu0_ITLB WRITE        ACCESS:          0 HIT:          0 MISS:          0 MSHR_MERGE:          0
cpu0->cpu0_ITLB TRANSLATION  ACCESS:          0 HIT:          0 MISS:          0 MSHR_MERGE:          0
cpu0->cpu0_ITLB PREFETCH REQUESTED:          0 ISSUED:          0 USEFUL:          0 USELESS:          0
cpu0->cpu0_ITLB AVERAGE MISS LATENCY: 1.292e+04 cycles
cpu0->cpu0_DTLB TOTAL        ACCESS:  686931551 HIT:  683471655 MISS:    3459896 MSHR_MERGE:     654426
cpu0->cpu0_DTLB LOAD         ACCESS:  686931551 HIT:  683471655 MISS:    3459896 MSHR_MERGE:     654426
cpu0->cpu0_DTLB RFO          ACCESS:          0 HIT:          0 MISS:          0 MSHR_MERGE:          0
cpu0->cpu0_DTLB PREFETCH     ACCESS:          0 HIT:          0 MISS:          0 MSHR_MERGE:          0
cpu0->cpu0_DTLB WRITE        ACCESS:          0 HIT:          0 MISS:          0 MSHR_MERGE:          0
cpu0->cpu0_DTLB TRANSLATION  ACCESS:          0 HIT:          0 MISS:          0 MSHR_MERGE:          0
cpu0->cpu0_DTLB PREFETCH REQUESTED:          0 ISSUED:          0 USEFUL:          0 USELESS:          0
cpu0->cpu0_DTLB AVERAGE MISS LATENCY: 5.353 cycles
cpu0->LLC TOTAL        ACCESS:   40302977 HIT:   19732288 MISS:   20570689 MSHR_MERGE:          0
cpu0->LLC LOAD         ACCESS:   23543332 HIT:    5180171 MISS:   18363161 MSHR_MERGE:          0
cpu0->LLC RFO          ACCESS:    3605869 HIT:    1446160 MISS:    2159709 MSHR_MERGE:          0
cpu0->LLC PREFETCH     ACCESS:          0 HIT:          0 MISS:          0 MSHR_MERGE:          0
cpu0->LLC WRITE        ACCESS:   13153776 HIT:   13105957 MISS:      47819 MSHR_MERGE:          0
cpu0->LLC TRANSLATION  ACCESS:          0 HIT:          0 MISS:          0 MSHR_MERGE:          0
cpu0->LLC PREFETCH REQUESTED:          0 ISSUED:          0 USEFUL:          0 USELESS:          0
cpu0->LLC AVERAGE MISS LATENCY: 99.39 cycles

DRAM Statistics

Channel 0 RQ ROW_BUFFER_HIT:     359772
  ROW_BUFFER_MISS:    9897451
  AVG DBUS CONGESTED CYCLE: 13.54
Channel 0 WQ ROW_BUFFER_HIT:     750982
  ROW_BUFFER_MISS:    3988069
  FULL:          0
Channel 0 REFRESHES ISSUED:     246175

Channel 1 RQ ROW_BUFFER_HIT:     356957
  ROW_BUFFER_MISS:    9908900
  AVG DBUS CONGESTED CYCLE: 13.57
Channel 1 WQ ROW_BUFFER_HIT:     758019
  ROW_BUFFER_MISS:    4004647
  FULL:          0
Channel 1 REFRESHES ISSUED:     246175
