
*** ChampSim Multicore Out-of-Order Simulator ***
Warmup Instructions: 0
Simulation Instructions: 9223372036854775807
Number of CPUs: 1
Page size: 1048576

Off-chip DRAM Size: 128 GiB Channels: 2 Width: 32-bit Data Rate: 4807 MT/s
[ERROR_PAGE_MANAGER] Error latency: 0 
[ERROR_PAGE_MANAGER] Random seed: 54321 (fixed for preload reproducibility)
[ERROR_PAGE_MANAGER] Error pages off

=== ERROR PAGE STATISTICS ===
Mode: OFF
Total Error Accesses: 0
==============================
Warmup finished CPU 0 instructions: 0 cycles: 1 cumulative IPC: 0 (Simulation time: 00 hr 00 min 00 sec)
Warmup complete CPU 0 instructions: 0 cycles: 1 cumulative IPC: 0 (Simulation time: 00 hr 00 min 00 sec)
Simulation CPU 0 panic: IPC 0 < 0.01
Simulation CPU 0 panic: IPC 0 < 0.01
Simulation CPU 0 panic: IPC 1e-07 < 0.01
Simulation CPU 0 panic: IPC 4e-07 < 0.01
Simulation CPU 0 panic: IPC 8.5e-06 < 0.01
Simulation CPU 0 critical: IPC 0.011513 < 0.02
Simulation CPU 0 warning: IPC 0.026709 < 0.05
Simulation CPU 0 panic: IPC 0.0036166 < 0.01
Simulation CPU 0 panic: IPC 0.0037479 < 0.01
Simulation CPU 0 panic: IPC 0.0029552 < 0.01
Simulation CPU 0 panic: IPC 0.0082779 < 0.01
Simulation CPU 0 panic: IPC 0.0009996 < 0.01
Simulation CPU 0 panic: IPC 0.0022451 < 0.01
Simulation CPU 0 critical: IPC 0.012983 < 0.02
Simulation CPU 0 warning: IPC 0.025955 < 0.05
Simulation CPU 0 panic: IPC 0.0046206 < 0.01
Simulation CPU 0 panic: IPC 0.0031239 < 0.01
Simulation CPU 0 critical: IPC 0.012724 < 0.02
Simulation CPU 0 panic: IPC 0.0022451 < 0.01
Simulation CPU 0 critical: IPC 0.012859 < 0.02
Simulation CPU 0 warning: IPC 0.031074 < 0.05
Simulation CPU 0 panic: IPC 0.0023751 < 0.01
Simulation CPU 0 critical: IPC 0.013106 < 0.02
Simulation CPU 0 panic: IPC 0.0023699 < 0.01
Simulation CPU 0 critical: IPC 0.012484 < 0.02
Simulation CPU 0 warning: IPC 0.02583 < 0.05
Simulation CPU 0 panic: IPC 0.005619 < 0.01
Simulation CPU 0 panic: IPC 0.0017511 < 0.01
Simulation CPU 0 critical: IPC 0.013722 < 0.02
Simulation CPU 0 panic: IPC 0.0022451 < 0.01
Simulation CPU 0 critical: IPC 0.012359 < 0.02
Simulation CPU 0 warning: IPC 0.02583 < 0.05
Simulation CPU 0 panic: IPC 0.0061182 < 0.01
Simulation CPU 0 panic: IPC 0.0010023 < 0.01
Simulation CPU 0 critical: IPC 0.016475 < 0.02
Simulation CPU 0 critical: IPC 0.01211 < 0.02
Simulation CPU 0 warning: IPC 0.025705 < 0.05
Simulation CPU 0 panic: IPC 0.0064926 < 0.01
Simulation CPU 0 panic: IPC 0.0003783 < 0.01
Simulation CPU 0 critical: IPC 0.014596 < 0.02
Simulation CPU 0 panic: IPC 0.0024947 < 0.01
Simulation CPU 0 critical: IPC 0.01186 < 0.02
Simulation CPU 0 warning: IPC 0.025705 < 0.05
Simulation CPU 0 panic: IPC 0.0066021 < 0.01
Simulation CPU 0 panic: IPC 0.0003897 < 0.01
Simulation CPU 0 critical: IPC 0.014579 < 0.02
Simulation CPU 0 panic: IPC 0.0025235 < 0.01
Simulation CPU 0 critical: IPC 0.011611 < 0.02
Simulation CPU 0 warning: IPC 0.02558 < 0.05
Simulation CPU 0 panic: IPC 0.007491 < 0.01
Simulation CPU 0 critical: IPC 0.014475 < 0.02
Simulation CPU 0 panic: IPC 0.0026195 < 0.01
Simulation CPU 0 critical: IPC 0.011361 < 0.02
Simulation CPU 0 warning: IPC 0.02558 < 0.05
Simulation CPU 0 panic: IPC 0.0061221 < 0.01
Simulation CPU 0 panic: IPC 0.0018681 < 0.01
Simulation CPU 0 critical: IPC 0.014109 < 0.02
Simulation CPU 0 panic: IPC 0.0026195 < 0.01
Simulation CPU 0 critical: IPC 0.011236 < 0.02
Simulation CPU 0 warning: IPC 0.025455 < 0.05
Simulation CPU 0 panic: IPC 0.0058725 < 0.01
Simulation CPU 0 panic: IPC 0.0024921 < 0.01
Simulation CPU 0 critical: IPC 0.013976 < 0.02
Simulation CPU 0 critical: IPC 0.013731 < 0.02
Simulation CPU 0 warning: IPC 0.025455 < 0.05
Simulation CPU 0 panic: IPC 0.0056229 < 0.01
Simulation CPU 0 panic: IPC 0.0030572 < 0.01
Simulation CPU 0 critical: IPC 0.013793 < 0.02
Simulation CPU 0 panic: IPC 0.0028691 < 0.01
Simulation CPU 0 critical: IPC 0.010612 < 0.02
Simulation CPU 0 panic: IPC 0.0094131 < 0.01
Simulation CPU 0 critical: IPC 0.015918 < 0.02
Simulation CPU 0 panic: IPC 0.0054981 < 0.01
Simulation CPU 0 panic: IPC 0.0038649 < 0.01
Simulation CPU 0 critical: IPC 0.013601 < 0.02
Simulation CPU 0 panic: IPC 0.0027443 < 0.01
Simulation CPU 0 critical: IPC 0.010487 < 0.02
Simulation CPU 0 warning: IPC 0.030463 < 0.05
Simulation CPU 0 panic: IPC 0.0044889 < 0.01
Simulation CPU 0 critical: IPC 0.013352 < 0.02
Simulation CPU 0 panic: IPC 0.0029939 < 0.01
Simulation CPU 0 critical: IPC 0.010238 < 0.02
Simulation CPU 0 warning: IPC 0.025206 < 0.05
Simulation CPU 0 panic: IPC 0.0049989 < 0.01
Simulation CPU 0 panic: IPC 0.0052377 < 0.01
Simulation CPU 0 critical: IPC 0.013102 < 0.02
Simulation CPU 0 panic: IPC 0.0028691 < 0.01
Simulation CPU 0 critical: IPC 0.010113 < 0.02
Simulation CPU 0 warning: IPC 0.025206 < 0.05
Simulation CPU 0 panic: IPC 0.0046328 < 0.01
Simulation CPU 0 panic: IPC 0.0058617 < 0.01
Simulation CPU 0 critical: IPC 0.015971 < 0.02
Simulation CPU 0 panic: IPC 0.0097386 < 0.01
Simulation CPU 0 warning: IPC 0.025081 < 0.05
Simulation CPU 0 panic: IPC 0.0046245 < 0.01
Simulation CPU 0 panic: IPC 0.0066105 < 0.01
Simulation CPU 0 critical: IPC 0.012603 < 0.02
Simulation CPU 0 panic: IPC 0.0031187 < 0.01
Simulation CPU 0 panic: IPC 0.009489 < 0.01
Heartbeat CPU 0 instructions: 10000001 cycles: 994684949 heartbeat IPC: 0.01005 cumulative IPC: 0.01005 (Simulation time: 01 hr 41 min 31 sec)
Simulation CPU 0 panic: IPC 0.0066513 < 0.01
Simulation CPU 0 critical: IPC 0.018313 < 0.02
Simulation CPU 0 panic: IPC 0.0043749 < 0.01
Simulation CPU 0 panic: IPC 0.0072345 < 0.01
Simulation CPU 0 critical: IPC 0.012478 < 0.02
Simulation CPU 0 panic: IPC 0.0031187 < 0.01
Simulation CPU 0 critical: IPC 0.012075 < 0.02
Simulation CPU 0 warning: IPC 0.026274 < 0.05
Simulation CPU 0 panic: IPC 0.0080793 < 0.01
Simulation CPU 0 critical: IPC 0.012103 < 0.02
Simulation CPU 0 panic: IPC 0.0032435 < 0.01
Simulation CPU 0 panic: IPC 0.0091146 < 0.01
Simulation CPU 0 warning: IPC 0.02484 < 0.05
Simulation CPU 0 panic: IPC 0.0037509 < 0.01
Simulation CPU 0 panic: IPC 0.0087321 < 0.01
Simulation CPU 0 critical: IPC 0.011979 < 0.02
Simulation CPU 0 panic: IPC 0.0033683 < 0.01
Simulation CPU 0 panic: IPC 0.0087402 < 0.01
Simulation CPU 0 warning: IPC 0.024831 < 0.05
Simulation CPU 0 panic: IPC 0.0036261 < 0.01
Simulation CPU 0 panic: IPC 0.0094809 < 0.01
Simulation CPU 0 critical: IPC 0.014973 < 0.02
Simulation CPU 0 panic: IPC 0.0086154 < 0.01
Simulation CPU 0 warning: IPC 0.024715 < 0.05
Simulation CPU 0 panic: IPC 0.0033765 < 0.01
Simulation CPU 0 critical: IPC 0.010105 < 0.02
Simulation CPU 0 critical: IPC 0.01148 < 0.02
Simulation CPU 0 panic: IPC 0.0034931 < 0.01
Simulation CPU 0 panic: IPC 0.0083658 < 0.01
Simulation CPU 0 panic: IPC 0.0038895 < 0.01
Simulation CPU 0 warning: IPC 0.020817 < 0.05
Simulation CPU 0 panic: IPC 0.0031269 < 0.01
Simulation CPU 0 critical: IPC 0.010854 < 0.02
Simulation CPU 0 critical: IPC 0.01123 < 0.02
Simulation CPU 0 panic: IPC 0.0033683 < 0.01
Simulation CPU 0 warning: IPC 0.032831 < 0.05
Simulation CPU 0 panic: IPC 0.0028773 < 0.01
Simulation CPU 0 critical: IPC 0.011478 < 0.02
Simulation CPU 0 critical: IPC 0.01098 < 0.02
Simulation CPU 0 panic: IPC 0.0036179 < 0.01
Simulation CPU 0 panic: IPC 0.0078666 < 0.01
Simulation CPU 0 warning: IPC 0.024582 < 0.05
Simulation CPU 0 panic: IPC 0.0027525 < 0.01
Simulation CPU 0 critical: IPC 0.012226 < 0.02
Simulation CPU 0 critical: IPC 0.010731 < 0.02
Simulation CPU 0 panic: IPC 0.0036179 < 0.01
Simulation CPU 0 panic: IPC 0.007617 < 0.01
Simulation CPU 0 warning: IPC 0.024465 < 0.05
Simulation CPU 0 panic: IPC 0.0025029 < 0.01
Simulation CPU 0 critical: IPC 0.015749 < 0.02
Simulation CPU 0 critical: IPC 0.011326 < 0.02
Simulation CPU 0 panic: IPC 0.0074922 < 0.01
Simulation CPU 0 warning: IPC 0.024457 < 0.05
Simulation CPU 0 panic: IPC 0.0022533 < 0.01
Simulation CPU 0 critical: IPC 0.013599 < 0.02
Simulation CPU 0 critical: IPC 0.010231 < 0.02
Simulation CPU 0 panic: IPC 0.0037427 < 0.01
Simulation CPU 0 panic: IPC 0.0072426 < 0.01
Simulation CPU 0 warning: IPC 0.024341 < 0.05
Simulation CPU 0 panic: IPC 0.0020037 < 0.01
Simulation CPU 0 critical: IPC 0.014223 < 0.02
Simulation CPU 0 critical: IPC 0.010107 < 0.02
Simulation CPU 0 panic: IPC 0.0037427 < 0.01
Simulation CPU 0 panic: IPC 0.006993 < 0.01
Simulation CPU 0 warning: IPC 0.026211 < 0.05
Simulation CPU 0 critical: IPC 0.014972 < 0.02
Simulation CPU 0 panic: IPC 0.0097323 < 0.01
Simulation CPU 0 panic: IPC 0.0038675 < 0.01
Simulation CPU 0 panic: IPC 0.0067434 < 0.01
Simulation CPU 0 warning: IPC 0.024216 < 0.05
Simulation CPU 0 panic: IPC 0.0015045 < 0.01
Simulation CPU 0 critical: IPC 0.015721 < 0.02
Simulation CPU 0 panic: IPC 0.0096075 < 0.01
Simulation CPU 0 panic: IPC 0.0039923 < 0.01
Simulation CPU 0 panic: IPC 0.0064938 < 0.01
Simulation CPU 0 warning: IPC 0.024207 < 0.05
Simulation CPU 0 panic: IPC 0.0012549 < 0.01
Simulation CPU 0 critical: IPC 0.01647 < 0.02
Simulation CPU 0 critical: IPC 0.013225 < 0.02
Simulation CPU 0 panic: IPC 0.006369 < 0.01
Simulation CPU 0 warning: IPC 0.024091 < 0.05
Simulation CPU 0 panic: IPC 0.0010053 < 0.01
Simulation CPU 0 critical: IPC 0.017094 < 0.02
Simulation CPU 0 panic: IPC 0.0091083 < 0.01
Simulation CPU 0 panic: IPC 0.0041171 < 0.01
Simulation CPU 0 panic: IPC 0.0059946 < 0.01
Simulation CPU 0 warning: IPC 0.024083 < 0.05
Simulation CPU 0 panic: IPC 0.0008805 < 0.01
Simulation CPU 0 critical: IPC 0.012847 < 0.02
Simulation CPU 0 panic: IPC 0.0049957 < 0.01
Simulation CPU 0 panic: IPC 0.0088587 < 0.01
Simulation CPU 0 panic: IPC 0.0039923 < 0.01
Simulation CPU 0 warning: IPC 0.023735 < 0.05
Heartbeat CPU 0 instructions: 20000004 cycles: 1920028134 heartbeat IPC: 0.01081 cumulative IPC: 0.01042 (Simulation time: 03 hr 22 min 18 sec)
Simulation CPU 0 panic: IPC 0.0067321 < 0.01
Simulation CPU 0 critical: IPC 0.018467 < 0.02
Simulation CPU 0 panic: IPC 0.0086091 < 0.01
Simulation CPU 0 panic: IPC 0.0042419 < 0.01
Simulation CPU 0 panic: IPC 0.0056202 < 0.01
Simulation CPU 0 warning: IPC 0.023958 < 0.05
Simulation CPU 0 panic: IPC 0.0003813 < 0.01
Simulation CPU 0 critical: IPC 0.019215 < 0.02
Simulation CPU 0 panic: IPC 0.0083595 < 0.01
Simulation CPU 0 panic: IPC 0.0042419 < 0.01
Simulation CPU 0 panic: IPC 0.0053789 < 0.01
Simulation CPU 0 warning: IPC 0.023833 < 0.05
Simulation CPU 0 panic: IPC 0.0001317 < 0.01
Simulation CPU 0 critical: IPC 0.019839 < 0.02
Simulation CPU 0 critical: IPC 0.012477 < 0.02
Simulation CPU 0 panic: IPC 0.005121 < 0.01
Simulation CPU 0 warning: IPC 0.023833 < 0.05
Simulation CPU 0 warning: IPC 0.020595 < 0.05
Simulation CPU 0 panic: IPC 0.0078603 < 0.01
Simulation CPU 0 panic: IPC 0.0043667 < 0.01
Simulation CPU 0 panic: IPC 0.0048797 < 0.01
Simulation CPU 0 warning: IPC 0.023466 < 0.05
Simulation CPU 0 panic: IPC 0.0002427 < 0.01
Simulation CPU 0 critical: IPC 0.01133 < 0.02
Simulation CPU 0 panic: IPC 0.0096391 < 0.01
Simulation CPU 0 panic: IPC 0.0077355 < 0.01
Simulation CPU 0 panic: IPC 0.0044915 < 0.01
Simulation CPU 0 panic: IPC 0.0046218 < 0.01
Simulation CPU 0 warning: IPC 0.023708 < 0.05
Simulation CPU 0 warning: IPC 0.021469 < 0.05
Simulation CPU 0 panic: IPC 0.0073611 < 0.01
Simulation CPU 0 panic: IPC 0.0044998 < 0.01
Simulation CPU 0 panic: IPC 0.004497 < 0.01
Simulation CPU 0 warning: IPC 0.022842 < 0.05
Simulation CPU 0 panic: IPC 0.0007419 < 0.01
Simulation CPU 0 warning: IPC 0.021843 < 0.05
Simulation CPU 0 panic: IPC 0.0072363 < 0.01
Simulation CPU 0 panic: IPC 0.0046163 < 0.01
Simulation CPU 0 panic: IPC 0.0041226 < 0.01
Simulation CPU 0 warning: IPC 0.022592 < 0.05
Simulation CPU 0 panic: IPC 0.0010011 < 0.01
Simulation CPU 0 warning: IPC 0.022457 < 0.05
Simulation CPU 0 critical: IPC 0.011487 < 0.02
Simulation CPU 0 panic: IPC 0.0039978 < 0.01
Simulation CPU 0 warning: IPC 0.022218 < 0.05
Simulation CPU 0 panic: IPC 0.0012411 < 0.01
Simulation CPU 0 warning: IPC 0.022841 < 0.05
Simulation CPU 0 panic: IPC 0.0067371 < 0.01
Simulation CPU 0 panic: IPC 0.0047411 < 0.01
Simulation CPU 0 panic: IPC 0.0037482 < 0.01
Simulation CPU 0 warning: IPC 0.021968 < 0.05
Simulation CPU 0 panic: IPC 0.0014907 < 0.01
Simulation CPU 0 panic: IPC 0.0088181 < 0.01
Simulation CPU 0 critical: IPC 0.014523 < 0.02
Simulation CPU 0 panic: IPC 0.006371 < 0.01
Simulation CPU 0 panic: IPC 0.0048659 < 0.01
Simulation CPU 0 critical: IPC 0.011032 < 0.02
Simulation CPU 0 critical: IPC 0.015801 < 0.02
Simulation CPU 0 warning: IPC 0.023715 < 0.05
Simulation CPU 0 panic: IPC 0.0063627 < 0.01
Simulation CPU 0 panic: IPC 0.0047411 < 0.01
Simulation CPU 0 panic: IPC 0.003249 < 0.01
Simulation CPU 0 warning: IPC 0.021469 < 0.05
Simulation CPU 0 panic: IPC 0.0018939 < 0.01
Simulation CPU 0 warning: IPC 0.024243 < 0.05
Simulation CPU 0 panic: IPC 0.005939 < 0.01
Simulation CPU 0 panic: IPC 0.0049907 < 0.01
Simulation CPU 0 panic: IPC 0.0029994 < 0.01
Simulation CPU 0 warning: IPC 0.021094 < 0.05
Simulation CPU 0 panic: IPC 0.0021147 < 0.01
Simulation CPU 0 warning: IPC 0.024713 < 0.05
Simulation CPU 0 critical: IPC 0.010729 < 0.02
Simulation CPU 0 panic: IPC 0.0028746 < 0.01
Simulation CPU 0 warning: IPC 0.020845 < 0.05
Simulation CPU 0 panic: IPC 0.0023643 < 0.01
Simulation CPU 0 warning: IPC 0.024971 < 0.05
Simulation CPU 0 panic: IPC 0.0056139 < 0.01
Simulation CPU 0 panic: IPC 0.0051155 < 0.01
Simulation CPU 0 panic: IPC 0.002625 < 0.01
Simulation CPU 0 warning: IPC 0.02047 < 0.05
Simulation CPU 0 panic: IPC 0.0026139 < 0.01
Simulation CPU 0 warning: IPC 0.025587 < 0.05
Simulation CPU 0 panic: IPC 0.0053643 < 0.01
Simulation CPU 0 panic: IPC 0.0051155 < 0.01
Simulation CPU 0 panic: IPC 0.0022506 < 0.01
Simulation CPU 0 warning: IPC 0.023132 < 0.05
Simulation CPU 0 warning: IPC 0.025922 < 0.05
Simulation CPU 0 panic: IPC 0.0052395 < 0.01
Simulation CPU 0 panic: IPC 0.0051155 < 0.01
Simulation CPU 0 panic: IPC 0.0021258 < 0.01
Simulation CPU 0 critical: IPC 0.019971 < 0.02
Simulation CPU 0 panic: IPC 0.0029883 < 0.01
Heartbeat CPU 0 instructions: 30000005 cycles: 2845369490 heartbeat IPC: 0.01081 cumulative IPC: 0.01054 (Simulation time: 04 hr 58 min 10 sec)
Simulation CPU 0 warning: IPC 0.026585 < 0.05
Simulation CPU 0 panic: IPC 0.0048651 < 0.01
Simulation CPU 0 panic: IPC 0.0052403 < 0.01
Simulation CPU 0 panic: IPC 0.0018762 < 0.01
Simulation CPU 0 critical: IPC 0.019635 < 0.02
Simulation CPU 0 panic: IPC 0.0033243 < 0.01
Simulation CPU 0 warning: IPC 0.026843 < 0.05
Simulation CPU 0 panic: IPC 0.0047403 < 0.01
Simulation CPU 0 panic: IPC 0.0069917 < 0.01
Simulation CPU 0 critical: IPC 0.019222 < 0.02
Simulation CPU 0 panic: IPC 0.0036123 < 0.01
Simulation CPU 0 warning: IPC 0.027459 < 0.05
Simulation CPU 0 panic: IPC 0.0043659 < 0.01
Simulation CPU 0 panic: IPC 0.0053651 < 0.01
Simulation CPU 0 panic: IPC 0.001377 < 0.01
Simulation CPU 0 critical: IPC 0.019097 < 0.02
Simulation CPU 0 panic: IPC 0.0038043 < 0.01
Simulation CPU 0 warning: IPC 0.027775 < 0.05
Simulation CPU 0 panic: IPC 0.0042411 < 0.01
Simulation CPU 0 panic: IPC 0.0054899 < 0.01
Simulation CPU 0 panic: IPC 0.0011274 < 0.01
Simulation CPU 0 panic: IPC 0.0046611 < 0.01
Simulation CPU 0 critical: IPC 0.018049 < 0.02
Simulation CPU 0 warning: IPC 0.028457 < 0.05
Simulation CPU 0 panic: IPC 0.0039915 < 0.01
Simulation CPU 0 panic: IPC 0.0053651 < 0.01
Simulation CPU 0 panic: IPC 0.0010026 < 0.01
Simulation CPU 0 critical: IPC 0.018474 < 0.02
Simulation CPU 0 panic: IPC 0.0042363 < 0.01
Simulation CPU 0 warning: IPC 0.028715 < 0.05
Simulation CPU 0 panic: IPC 0.0037419 < 0.01
Simulation CPU 0 panic: IPC 0.0056147 < 0.01
Simulation CPU 0 panic: IPC 0.000753 < 0.01
Simulation CPU 0 critical: IPC 0.018099 < 0.02
Simulation CPU 0 panic: IPC 0.0044859 < 0.01
Simulation CPU 0 warning: IPC 0.029331 < 0.05
Simulation CPU 0 panic: IPC 0.009107 < 0.01
Simulation CPU 0 panic: IPC 0.0003786 < 0.01
Simulation CPU 0 critical: IPC 0.017974 < 0.02
Simulation CPU 0 panic: IPC 0.0046971 < 0.01
Simulation CPU 0 warning: IPC 0.029627 < 0.05
Simulation CPU 0 panic: IPC 0.0032427 < 0.01
Simulation CPU 0 panic: IPC 0.0057395 < 0.01
Simulation CPU 0 panic: IPC 0.0002538 < 0.01
Simulation CPU 0 critical: IPC 0.0176 < 0.02
Simulation CPU 0 panic: IPC 0.0048603 < 0.01
Simulation CPU 0 warning: IPC 0.030329 < 0.05
Simulation CPU 0 panic: IPC 0.0029931 < 0.01
Simulation CPU 0 panic: IPC 0.0057395 < 0.01
Simulation CPU 0 panic: IPC 0.0019035 < 0.01
Simulation CPU 0 warning: IPC 0.020561 < 0.05
Simulation CPU 0 warning: IPC 0.030587 < 0.05
Simulation CPU 0 panic: IPC 0.0028683 < 0.01
Simulation CPU 0 panic: IPC 0.0056189 < 0.01
Simulation CPU 0 panic: IPC 0.0001206 < 0.01
Simulation CPU 0 critical: IPC 0.016855 < 0.02
Simulation CPU 0 panic: IPC 0.0053595 < 0.01
Simulation CPU 0 warning: IPC 0.031203 < 0.05
Simulation CPU 0 panic: IPC 0.0024939 < 0.01
Simulation CPU 0 panic: IPC 0.0053693 < 0.01
Simulation CPU 0 panic: IPC 0.000495 < 0.01
Simulation CPU 0 critical: IPC 0.016356 < 0.02
Simulation CPU 0 panic: IPC 0.0055899 < 0.01
Simulation CPU 0 warning: IPC 0.03148 < 0.05
Simulation CPU 0 panic: IPC 0.0023691 < 0.01
Simulation CPU 0 panic: IPC 0.0059891 < 0.01
Simulation CPU 0 critical: IPC 0.015607 < 0.02
Simulation CPU 0 panic: IPC 0.0058587 < 0.01
Simulation CPU 0 warning: IPC 0.032201 < 0.05
Simulation CPU 0 panic: IPC 0.0021195 < 0.01
Simulation CPU 0 panic: IPC 0.0049949 < 0.01
Simulation CPU 0 panic: IPC 0.0008694 < 0.01
Simulation CPU 0 critical: IPC 0.015233 < 0.02
Simulation CPU 0 panic: IPC 0.0061083 < 0.01
Simulation CPU 0 warning: IPC 0.032459 < 0.05
Simulation CPU 0 panic: IPC 0.0018699 < 0.01
Simulation CPU 0 panic: IPC 0.0041324 < 0.01
Simulation CPU 0 panic: IPC 0.0008625 < 0.01
Simulation CPU 0 panic: IPC 0.001119 < 0.01
Simulation CPU 0 warning: IPC 0.020967 < 0.05
Simulation CPU 0 warning: IPC 0.033075 < 0.05
Simulation CPU 0 panic: IPC 0.0016203 < 0.01
Simulation CPU 0 panic: IPC 0.0046205 < 0.01
Simulation CPU 0 panic: IPC 0.0013686 < 0.01
Simulation CPU 0 critical: IPC 0.014235 < 0.02
Simulation CPU 0 panic: IPC 0.006491 < 0.01
Simulation CPU 0 warning: IPC 0.033449 < 0.05
Simulation CPU 0 panic: IPC 0.0013707 < 0.01
Simulation CPU 0 panic: IPC 0.0046205 < 0.01
Simulation CPU 0 panic: IPC 0.0016182 < 0.01
Simulation CPU 0 critical: IPC 0.01361 < 0.02
Simulation CPU 0 panic: IPC 0.0067323 < 0.01
Heartbeat CPU 0 instructions: 40000008 cycles: 3761467372 heartbeat IPC: 0.01092 cumulative IPC: 0.01063 (Simulation time: 06 hr 35 min 08 sec)
Simulation CPU 0 warning: IPC 0.034073 < 0.05
Simulation CPU 0 panic: IPC 0.0015508 < 0.01
Simulation CPU 0 panic: IPC 0.005809 < 0.01
Simulation CPU 0 critical: IPC 0.013111 < 0.02
Simulation CPU 0 panic: IPC 0.0068654 < 0.01
Simulation CPU 0 warning: IPC 0.034448 < 0.05
Simulation CPU 0 panic: IPC 0.0009963 < 0.01
Simulation CPU 0 panic: IPC 0.0042461 < 0.01
Simulation CPU 0 panic: IPC 0.0019926 < 0.01
Simulation CPU 0 critical: IPC 0.012612 < 0.02
Simulation CPU 0 panic: IPC 0.0072315 < 0.01
Simulation CPU 0 warning: IPC 0.034947 < 0.05
Simulation CPU 0 panic: IPC 0.0006219 < 0.01
Simulation CPU 0 panic: IPC 0.0039965 < 0.01
Simulation CPU 0 panic: IPC 0.002367 < 0.01
Simulation CPU 0 critical: IPC 0.012113 < 0.02
Simulation CPU 0 warning: IPC 0.042686 < 0.05
Simulation CPU 0 panic: IPC 0.0004971 < 0.01
Simulation CPU 0 panic: IPC 0.0038717 < 0.01
Simulation CPU 0 panic: IPC 0.002511 < 0.01
Simulation CPU 0 critical: IPC 0.011595 < 0.02
Simulation CPU 0 panic: IPC 0.0076059 < 0.01
Simulation CPU 0 warning: IPC 0.035945 < 0.05
Simulation CPU 0 panic: IPC 0.0001227 < 0.01
Simulation CPU 0 panic: IPC 0.0037469 < 0.01
Simulation CPU 0 panic: IPC 0.0027414 < 0.01
Simulation CPU 0 critical: IPC 0.010998 < 0.02
Simulation CPU 0 panic: IPC 0.0078555 < 0.01
Simulation CPU 0 warning: IPC 0.036318 < 0.05
Simulation CPU 0 panic: IPC 0.0036221 < 0.01
Simulation CPU 0 critical: IPC 0.013482 < 0.02
Simulation CPU 0 panic: IPC 0.0081051 < 0.01
Simulation CPU 0 warning: IPC 0.036567 < 0.05
Simulation CPU 0 panic: IPC 0.0002517 < 0.01
Simulation CPU 0 panic: IPC 0.002996 < 0.01
Simulation CPU 0 panic: IPC 0.0032406 < 0.01
Simulation CPU 0 panic: IPC 0.0098748 < 0.01
Simulation CPU 0 panic: IPC 0.0084795 < 0.01
Simulation CPU 0 warning: IPC 0.036692 < 0.05
Simulation CPU 0 panic: IPC 0.0005013 < 0.01
Simulation CPU 0 panic: IPC 0.0027464 < 0.01
Simulation CPU 0 panic: IPC 0.0034902 < 0.01
Simulation CPU 0 panic: IPC 0.0093673 < 0.01
Simulation CPU 0 panic: IPC 0.0086043 < 0.01
Simulation CPU 0 critical: IPC 0.016568 < 0.02
Simulation CPU 0 warning: IPC 0.021249 < 0.05
Simulation CPU 0 panic: IPC 0.0022472 < 0.01
Simulation CPU 0 panic: IPC 0.0037398 < 0.01
Simulation CPU 0 panic: IPC 0.0087516 < 0.01
Simulation CPU 0 panic: IPC 0.0088539 < 0.01
Simulation CPU 0 warning: IPC 0.037191 < 0.05
Simulation CPU 0 panic: IPC 0.0010005 < 0.01
Simulation CPU 0 panic: IPC 0.0019976 < 0.01
Simulation CPU 0 panic: IPC 0.0038646 < 0.01
Simulation CPU 0 panic: IPC 0.0083689 < 0.01
Simulation CPU 0 panic: IPC 0.0091035 < 0.01
Simulation CPU 0 warning: IPC 0.037441 < 0.05
Simulation CPU 0 panic: IPC 0.0012501 < 0.01
Simulation CPU 0 panic: IPC 0.0013736 < 0.01
Simulation CPU 0 critical: IPC 0.011992 < 0.02
Simulation CPU 0 panic: IPC 0.0093531 < 0.01
Simulation CPU 0 warning: IPC 0.037691 < 0.05
Simulation CPU 0 panic: IPC 0.0013749 < 0.01
Simulation CPU 0 panic: IPC 0.001124 < 0.01
Simulation CPU 0 panic: IPC 0.0043638 < 0.01
Simulation CPU 0 panic: IPC 0.0073705 < 0.01
Simulation CPU 0 panic: IPC 0.0094779 < 0.01
Simulation CPU 0 warning: IPC 0.03794 < 0.05
Simulation CPU 0 panic: IPC 0.0016821 < 0.01
Simulation CPU 0 panic: IPC 0.000692 < 0.01
Simulation CPU 0 panic: IPC 0.0046217 < 0.01
Simulation CPU 0 panic: IPC 0.0067465 < 0.01
Simulation CPU 0 panic: IPC 0.0097275 < 0.01
Simulation CPU 0 warning: IPC 0.03819 < 0.05
Simulation CPU 0 panic: IPC 0.0018741 < 0.01
Simulation CPU 0 panic: IPC 0.0003752 < 0.01
Simulation CPU 0 panic: IPC 0.004863 < 0.01
Simulation CPU 0 panic: IPC 0.0062473 < 0.01
Simulation CPU 0 panic: IPC 0.0099771 < 0.01
Simulation CPU 0 warning: IPC 0.038439 < 0.05
Simulation CPU 0 panic: IPC 0.0018824 < 0.01
Simulation CPU 0 panic: IPC 0.0051134 < 0.01
Simulation CPU 0 panic: IPC 0.0057481 < 0.01
Simulation CPU 0 critical: IPC 0.010227 < 0.02
Simulation CPU 0 warning: IPC 0.038564 < 0.05
Simulation CPU 0 panic: IPC 0.0018749 < 0.01
Simulation CPU 0 panic: IPC 0.0004984 < 0.01
Simulation CPU 0 critical: IPC 0.010113 < 0.02
Simulation CPU 0 critical: IPC 0.010351 < 0.02
Simulation CPU 0 warning: IPC 0.038822 < 0.05
Simulation CPU 0 panic: IPC 0.0017501 < 0.01
Simulation CPU 0 panic: IPC 0.000748 < 0.01
Simulation CPU 0 panic: IPC 0.004739 < 0.01
Heartbeat CPU 0 instructions: 50000010 cycles: 4696046716 heartbeat IPC: 0.0107 cumulative IPC: 0.01065 (Simulation time: 08 hr 15 min 04 sec)
Simulation CPU 0 panic: IPC 0.0046729 < 0.01
Simulation CPU 0 critical: IPC 0.010678 < 0.02
Simulation CPU 0 warning: IPC 0.039063 < 0.05
Simulation CPU 0 panic: IPC 0.0016253 < 0.01
Simulation CPU 0 panic: IPC 0.0012472 < 0.01
Simulation CPU 0 panic: IPC 0.0044894 < 0.01
Simulation CPU 0 panic: IPC 0.0041257 < 0.01
Simulation CPU 0 critical: IPC 0.010975 < 0.02
Simulation CPU 0 panic: IPC 0.0066869 < 0.01
Simulation CPU 0 warning: IPC 0.033885 < 0.05
Simulation CPU 0 panic: IPC 0.0016216 < 0.01
Simulation CPU 0 panic: IPC 0.0044894 < 0.01
Simulation CPU 0 panic: IPC 0.0035017 < 0.01
Simulation CPU 0 critical: IPC 0.011225 < 0.02
Simulation CPU 0 warning: IPC 0.039563 < 0.05
Simulation CPU 0 panic: IPC 0.0011261 < 0.01
Simulation CPU 0 panic: IPC 0.0021208 < 0.01
Simulation CPU 0 panic: IPC 0.004115 < 0.01
Simulation CPU 0 panic: IPC 0.0031273 < 0.01
Simulation CPU 0 critical: IPC 0.01135 < 0.02
Simulation CPU 0 warning: IPC 0.039696 < 0.05
Simulation CPU 0 panic: IPC 0.0011261 < 0.01
Simulation CPU 0 panic: IPC 0.0023704 < 0.01
Simulation CPU 0 panic: IPC 0.0066183 < 0.01
Simulation CPU 0 critical: IPC 0.0116 < 0.02
Simulation CPU 0 warning: IPC 0.040062 < 0.05
Simulation CPU 0 panic: IPC 0.0008765 < 0.01
Simulation CPU 0 panic: IPC 0.0028696 < 0.01
Simulation CPU 0 panic: IPC 0.0037694 < 0.01
Simulation CPU 0 panic: IPC 0.0021001 < 0.01
Simulation CPU 0 critical: IPC 0.011849 < 0.02
Simulation CPU 0 warning: IPC 0.04007 < 0.05
Simulation CPU 0 panic: IPC 0.0007517 < 0.01
Simulation CPU 0 panic: IPC 0.003244 < 0.01
Simulation CPU 0 panic: IPC 0.0037406 < 0.01
Simulation CPU 0 panic: IPC 0.0015049 < 0.01
Simulation CPU 0 critical: IPC 0.012099 < 0.02
Simulation CPU 0 warning: IPC 0.040436 < 0.05
Simulation CPU 0 panic: IPC 0.0042453 < 0.01
Simulation CPU 0 panic: IPC 0.003491 < 0.01
Simulation CPU 0 panic: IPC 0.0010057 < 0.01
Simulation CPU 0 critical: IPC 0.012223 < 0.02
Simulation CPU 0 warning: IPC 0.040694 < 0.05
Simulation CPU 0 panic: IPC 0.0003773 < 0.01
Simulation CPU 0 panic: IPC 0.0039928 < 0.01
Simulation CPU 0 panic: IPC 0.0033662 < 0.01
Simulation CPU 0 panic: IPC 0.0005065 < 0.01
Simulation CPU 0 critical: IPC 0.012473 < 0.02
Simulation CPU 0 warning: IPC 0.040935 < 0.05
Simulation CPU 0 panic: IPC 0.0002525 < 0.01
Simulation CPU 0 panic: IPC 0.004492 < 0.01
Simulation CPU 0 panic: IPC 0.0031166 < 0.01
Simulation CPU 0 panic: IPC 0.0048693 < 0.01
Simulation CPU 0 panic: IPC 0.0024999 < 0.01
Simulation CPU 0 panic: IPC 0.0006167 < 0.01
Simulation CPU 0 critical: IPC 0.012356 < 0.02
Simulation CPU 0 warning: IPC 0.041188 < 0.05
Simulation CPU 0 panic: IPC 0.0001219 < 0.01
Simulation CPU 0 panic: IPC 0.0052437 < 0.01
Simulation CPU 0 panic: IPC 0.0016263 < 0.01
Simulation CPU 0 panic: IPC 0.0011159 < 0.01
Simulation CPU 0 critical: IPC 0.012106 < 0.02
Simulation CPU 0 warning: IPC 0.04123 < 0.05
Simulation CPU 0 panic: IPC 9.09e-05 < 0.01
Simulation CPU 0 panic: IPC 0.0002467 < 0.01
Simulation CPU 0 panic: IPC 0.0063708 < 0.01
Simulation CPU 0 panic: IPC 0.0017399 < 0.01
Simulation CPU 0 critical: IPC 0.011732 < 0.02
Simulation CPU 0 warning: IPC 0.041437 < 0.05
Simulation CPU 0 panic: IPC 0.0004963 < 0.01
Simulation CPU 0 panic: IPC 0.0056181 < 0.01
Simulation CPU 0 panic: IPC 0.0002535 < 0.01
Simulation CPU 0 panic: IPC 0.0021143 < 0.01
Simulation CPU 0 critical: IPC 0.011607 < 0.02
Simulation CPU 0 warning: IPC 0.041321 < 0.05
Simulation CPU 0 panic: IPC 0.0006211 < 0.01
Simulation CPU 0 panic: IPC 0.0054972 < 0.01
Simulation CPU 0 panic: IPC 0.0003705 < 0.01
Simulation CPU 0 panic: IPC 0.0023678 < 0.01
Simulation CPU 0 critical: IPC 0.018831 < 0.02
Simulation CPU 0 warning: IPC 0.034709 < 0.05
Simulation CPU 0 panic: IPC 0.004998 < 0.01
Simulation CPU 0 panic: IPC 0.0011193 < 0.01
Simulation CPU 0 panic: IPC 0.0021182 < 0.01
Simulation CPU 0 critical: IPC 0.010858 < 0.02
Simulation CPU 0 warning: IPC 0.041571 < 0.05
Simulation CPU 0 panic: IPC 0.0009955 < 0.01
Simulation CPU 0 panic: IPC 0.0044988 < 0.01
Simulation CPU 0 panic: IPC 0.0017433 < 0.01
Simulation CPU 0 panic: IPC 0.0019934 < 0.01
Simulation CPU 0 critical: IPC 0.010608 < 0.02
Heartbeat CPU 0 instructions: 60000010 cycles: 5612124722 heartbeat IPC: 0.01092 cumulative IPC: 0.01069 (Simulation time: 09 hr 50 min 35 sec)
Simulation CPU 0 warning: IPC 0.038834 < 0.05
Simulation CPU 0 panic: IPC 0.0028527 < 0.01
Simulation CPU 0 panic: IPC 0.0011203 < 0.01
Simulation CPU 0 panic: IPC 0.0066165 < 0.01
Simulation CPU 0 panic: IPC 0.0017438 < 0.01
Simulation CPU 0 critical: IPC 0.010359 < 0.02
Simulation CPU 0 warning: IPC 0.041571 < 0.05
Simulation CPU 0 panic: IPC 0.0013699 < 0.01
Simulation CPU 0 panic: IPC 0.0036252 < 0.01
Simulation CPU 0 panic: IPC 0.0031161 < 0.01
Simulation CPU 0 panic: IPC 0.001619 < 0.01
Simulation CPU 0 critical: IPC 0.010109 < 0.02
Simulation CPU 0 warning: IPC 0.041687 < 0.05
Simulation CPU 0 panic: IPC 0.0014947 < 0.01
Simulation CPU 0 panic: IPC 0.0032508 < 0.01
Simulation CPU 0 panic: IPC 0.0038649 < 0.01
Simulation CPU 0 panic: IPC 0.0013694 < 0.01
Simulation CPU 0 warning: IPC 0.048604 < 0.05
Simulation CPU 0 panic: IPC 0.0045705 < 0.01
Simulation CPU 0 panic: IPC 0.0027516 < 0.01
Simulation CPU 0 panic: IPC 0.0044889 < 0.01
Simulation CPU 0 panic: IPC 0.0013694 < 0.01
Simulation CPU 0 panic: IPC 0.0093604 < 0.01
Simulation CPU 0 warning: IPC 0.041937 < 0.05
Simulation CPU 0 panic: IPC 0.0018691 < 0.01
Simulation CPU 0 panic: IPC 0.0022524 < 0.01
Simulation CPU 0 panic: IPC 0.0052377 < 0.01
Simulation CPU 0 panic: IPC 0.000995 < 0.01
Simulation CPU 0 panic: IPC 0.0092356 < 0.01
Simulation CPU 0 warning: IPC 0.03633 < 0.05
Simulation CPU 0 panic: IPC 0.0054993 < 0.01
Simulation CPU 0 panic: IPC 0.0037375 < 0.01
Simulation CPU 0 panic: IPC 0.0059865 < 0.01
Simulation CPU 0 panic: IPC 0.000995 < 0.01
Simulation CPU 0 panic: IPC 0.0088612 < 0.01
Simulation CPU 0 warning: IPC 0.041937 < 0.05
Simulation CPU 0 panic: IPC 0.0022435 < 0.01
Simulation CPU 0 panic: IPC 0.001254 < 0.01
Simulation CPU 0 panic: IPC 0.0067353 < 0.01
Simulation CPU 0 panic: IPC 0.000659 < 0.01
Simulation CPU 0 panic: IPC 0.0085732 < 0.01
Simulation CPU 0 warning: IPC 0.04207 < 0.05
Simulation CPU 0 panic: IPC 0.0022435 < 0.01
Simulation CPU 0 panic: IPC 0.0008796 < 0.01
Simulation CPU 0 panic: IPC 0.0073593 < 0.01
Simulation CPU 0 panic: IPC 0.0009716 < 0.01
Simulation CPU 0 panic: IPC 0.0024931 < 0.01
Simulation CPU 0 panic: IPC 0.0003804 < 0.01
Simulation CPU 0 panic: IPC 0.0081081 < 0.01
Simulation CPU 0 panic: IPC 0.000371 < 0.01
Simulation CPU 0 panic: IPC 0.0079876 < 0.01
Simulation CPU 0 warning: IPC 0.042098 < 0.05
Simulation CPU 0 panic: IPC 0.0025951 < 0.01
Simulation CPU 0 panic: IPC 0.0001188 < 0.01
Simulation CPU 0 panic: IPC 0.0086133 < 0.01
Simulation CPU 0 panic: IPC 0.0002462 < 0.01
Simulation CPU 0 panic: IPC 0.007738 < 0.01
Simulation CPU 0 warning: IPC 0.042186 < 0.05
Simulation CPU 0 panic: IPC 0.0023743 < 0.01
Simulation CPU 0 panic: IPC 0.0094775 < 0.01
Simulation CPU 0 panic: IPC 0.0073636 < 0.01
Simulation CPU 0 warning: IPC 0.042319 < 0.05
Simulation CPU 0 panic: IPC 0.0019999 < 0.01
Simulation CPU 0 panic: IPC 0.0009924 < 0.01
Simulation CPU 0 panic: IPC 0.0091091 < 0.01
Simulation CPU 0 panic: IPC 0.0069892 < 0.01
Simulation CPU 0 warning: IPC 0.042436 < 0.05
Simulation CPU 0 panic: IPC 0.0017503 < 0.01
Simulation CPU 0 panic: IPC 0.0013764 < 0.01
Simulation CPU 0 panic: IPC 0.0090995 < 0.01
Simulation CPU 0 panic: IPC 0.0003106 < 0.01
Simulation CPU 0 panic: IPC 0.0064373 < 0.01
Simulation CPU 0 warning: IPC 0.042484 < 0.05
Simulation CPU 0 panic: IPC 0.0014527 < 0.01
Simulation CPU 0 critical: IPC 0.0111 < 0.02
Simulation CPU 0 panic: IPC 0.0003778 < 0.01
Simulation CPU 0 panic: IPC 0.0061122 < 0.01
Simulation CPU 0 warning: IPC 0.042436 < 0.05
Simulation CPU 0 panic: IPC 0.0012511 < 0.01
Simulation CPU 0 panic: IPC 0.0023652 < 0.01
Simulation CPU 0 panic: IPC 0.0091091 < 0.01
Simulation CPU 0 panic: IPC 0.0006274 < 0.01
Simulation CPU 0 panic: IPC 0.0054965 < 0.01
Simulation CPU 0 warning: IPC 0.042685 < 0.05
Simulation CPU 0 panic: IPC 0.0008095 < 0.01
Simulation CPU 0 panic: IPC 0.0028068 < 0.01
Simulation CPU 0 panic: IPC 0.0093587 < 0.01
Simulation CPU 0 panic: IPC 0.0007522 < 0.01
Simulation CPU 0 critical: IPC 0.014569 < 0.02
Heartbeat CPU 0 instructions: 70000011 cycles: 6519131495 heartbeat IPC: 0.01103 cumulative IPC: 0.01074 (Simulation time: 11 hr 28 min 50 sec)
Simulation CPU 0 warning: IPC 0.03323 < 0.05
Simulation CPU 0 panic: IPC 0.0005023 < 0.01
Simulation CPU 0 panic: IPC 0.0033636 < 0.01
Simulation CPU 0 panic: IPC 0.009367 < 0.01
Simulation CPU 0 panic: IPC 0.0007522 < 0.01
Simulation CPU 0 panic: IPC 0.0047394 < 0.01
Simulation CPU 0 warning: IPC 0.042753 < 0.05
Simulation CPU 0 panic: IPC 0.0001855 < 0.01
Simulation CPU 0 panic: IPC 0.0038628 < 0.01
Simulation CPU 0 panic: IPC 0.0093587 < 0.01
Simulation CPU 0 panic: IPC 0.0011266 < 0.01
Simulation CPU 0 panic: IPC 0.0042402 < 0.01
Simulation CPU 0 warning: IPC 0.042685 < 0.05
Simulation CPU 0 panic: IPC 0.0042403 < 0.01
Simulation CPU 0 critical: IPC 0.010618 < 0.02
Simulation CPU 0 panic: IPC 0.003741 < 0.01
Simulation CPU 0 warning: IPC 0.042564 < 0.05
Simulation CPU 0 panic: IPC 0.0003713 < 0.01
Simulation CPU 0 panic: IPC 0.0043651 < 0.01
Simulation CPU 0 panic: IPC 0.0094835 < 0.01
Simulation CPU 0 panic: IPC 0.001501 < 0.01
Simulation CPU 0 panic: IPC 0.0032418 < 0.01
Simulation CPU 0 warning: IPC 0.042314 < 0.05
Simulation CPU 0 panic: IPC 0.0006209 < 0.01
Simulation CPU 0 panic: IPC 0.0044899 < 0.01
Simulation CPU 0 panic: IPC 0.0096166 < 0.01
Simulation CPU 0 panic: IPC 0.001501 < 0.01
Simulation CPU 0 panic: IPC 0.0028674 < 0.01
Simulation CPU 0 warning: IPC 0.042064 < 0.05
Simulation CPU 0 panic: IPC 0.0009569 < 0.01
Simulation CPU 0 panic: IPC 0.0046531 < 0.01
Simulation CPU 0 panic: IPC 0.0097331 < 0.01
Simulation CPU 0 panic: IPC 0.0017506 < 0.01
Simulation CPU 0 panic: IPC 0.0023682 < 0.01
Simulation CPU 0 warning: IPC 0.041815 < 0.05
Simulation CPU 0 panic: IPC 0.0011201 < 0.01
Simulation CPU 0 panic: IPC 0.0048726 < 0.01
Simulation CPU 0 panic: IPC 0.0097331 < 0.01
Simulation CPU 0 panic: IPC 0.0018754 < 0.01
Simulation CPU 0 panic: IPC 0.001869 < 0.01
Simulation CPU 0 warning: IPC 0.04169 < 0.05
Simulation CPU 0 panic: IPC 0.0014945 < 0.01
Simulation CPU 0 critical: IPC 0.010353 < 0.02
Simulation CPU 0 panic: IPC 0.0066193 < 0.01
Simulation CPU 0 panic: IPC 0.0013698 < 0.01
Simulation CPU 0 warning: IPC 0.04144 < 0.05
Simulation CPU 0 panic: IPC 0.0017441 < 0.01
Simulation CPU 0 panic: IPC 0.0051222 < 0.01
Simulation CPU 0 panic: IPC 0.0099059 < 0.01
Simulation CPU 0 panic: IPC 0.0022018 < 0.01
Simulation CPU 0 panic: IPC 0.0009954 < 0.01
Simulation CPU 0 warning: IPC 0.041191 < 0.05
Simulation CPU 0 panic: IPC 0.0020993 < 0.01
Simulation CPU 0 panic: IPC 0.0052579 < 0.01
Simulation CPU 0 panic: IPC 0.0099827 < 0.01
Simulation CPU 0 panic: IPC 0.0024994 < 0.01
Simulation CPU 0 panic: IPC 0.0004962 < 0.01
Simulation CPU 0 warning: IPC 0.040816 < 0.05
Simulation CPU 0 panic: IPC 0.0023764 < 0.01
Simulation CPU 0 panic: IPC 0.0054883 < 0.01
Simulation CPU 0 critical: IPC 0.010108 < 0.02
Simulation CPU 0 panic: IPC 0.0024964 < 0.01
Simulation CPU 0 warning: IPC 0.040692 < 0.05
Simulation CPU 0 panic: IPC 0.0027425 < 0.01
Simulation CPU 0 panic: IPC 0.0057379 < 0.01
Simulation CPU 0 panic: IPC 0.0099827 < 0.01
Simulation CPU 0 panic: IPC 0.0023716 < 0.01
Simulation CPU 0 panic: IPC 0.0005022 < 0.01
Simulation CPU 0 warning: IPC 0.039823 < 0.05
Simulation CPU 0 panic: IPC 0.0031169 < 0.01
Simulation CPU 0 panic: IPC 0.0057379 < 0.01
Simulation CPU 0 critical: IPC 0.01223 < 0.02
Simulation CPU 0 panic: IPC 0.0008766 < 0.01
Simulation CPU 0 warning: IPC 0.039316 < 0.05
Simulation CPU 0 panic: IPC 0.0033665 < 0.01
Simulation CPU 0 panic: IPC 0.0059875 < 0.01
Simulation CPU 0 critical: IPC 0.010232 < 0.02
Simulation CPU 0 panic: IPC 0.0017476 < 0.01
Simulation CPU 0 panic: IPC 0.0013758 < 0.01
Simulation CPU 0 warning: IPC 0.038451 < 0.05
Simulation CPU 0 panic: IPC 0.0036161 < 0.01
Simulation CPU 0 panic: IPC 0.0061315 < 0.01
Simulation CPU 0 critical: IPC 0.010338 < 0.02
Simulation CPU 0 panic: IPC 0.0013732 < 0.01
Simulation CPU 0 panic: IPC 0.001875 < 0.01
Simulation CPU 0 warning: IPC 0.037943 < 0.05
Simulation CPU 0 critical: IPC 0.010228 < 0.02
Simulation CPU 0 critical: IPC 0.010357 < 0.02
Simulation CPU 0 panic: IPC 0.0011236 < 0.01
Simulation CPU 0 panic: IPC 0.0023742 < 0.01
Heartbeat CPU 0 instructions: 80000015 cycles: 7417046923 heartbeat IPC: 0.01114 cumulative IPC: 0.01079 (Simulation time: 13 hr 03 min 06 sec)
Simulation CPU 0 warning: IPC 0.037078 < 0.05
Simulation CPU 0 panic: IPC 0.0042401 < 0.01
Simulation CPU 0 panic: IPC 0.0064867 < 0.01
Simulation CPU 0 critical: IPC 0.010357 < 0.02
Simulation CPU 0 panic: IPC 0.000874 < 0.01
Simulation CPU 0 panic: IPC 0.0027486 < 0.01
Simulation CPU 0 warning: IPC 0.03657 < 0.05
Simulation CPU 0 panic: IPC 0.0044897 < 0.01
Simulation CPU 0 panic: IPC 0.0066115 < 0.01
Simulation CPU 0 critical: IPC 0.010482 < 0.02
Simulation CPU 0 panic: IPC 0.0038722 < 0.01
Simulation CPU 0 warning: IPC 0.035705 < 0.05
Simulation CPU 0 panic: IPC 0.0047393 < 0.01
Simulation CPU 0 panic: IPC 0.0068611 < 0.01
Simulation CPU 0 critical: IPC 0.010607 < 0.02
Simulation CPU 0 panic: IPC 0.0001252 < 0.01
Simulation CPU 0 panic: IPC 0.003747 < 0.01
Simulation CPU 0 warning: IPC 0.035197 < 0.05
Simulation CPU 0 panic: IPC 0.0049889 < 0.01
Simulation CPU 0 panic: IPC 0.0071107 < 0.01
Simulation CPU 0 critical: IPC 0.010482 < 0.02
Simulation CPU 0 panic: IPC 0.0042466 < 0.01
Simulation CPU 0 warning: IPC 0.034332 < 0.05
Simulation CPU 0 panic: IPC 0.0005204 < 0.01
Simulation CPU 0 panic: IPC 0.0048429 < 0.01
Simulation CPU 0 critical: IPC 0.017468 < 0.02
Simulation CPU 0 panic: IPC 0.000374 < 0.01
Simulation CPU 0 panic: IPC 0.0042466 < 0.01
Simulation CPU 0 warning: IPC 0.0337 < 0.05
Simulation CPU 0 panic: IPC 0.0057377 < 0.01
Simulation CPU 0 panic: IPC 0.0073603 < 0.01
Simulation CPU 0 critical: IPC 0.010108 < 0.02
Simulation CPU 0 panic: IPC 0.0004988 < 0.01
Simulation CPU 0 panic: IPC 0.004621 < 0.01
Simulation CPU 0 warning: IPC 0.032835 < 0.05
Simulation CPU 0 panic: IPC 0.0059873 < 0.01
Simulation CPU 0 panic: IPC 0.0074851 < 0.01
Simulation CPU 0 panic: IPC 0.0098583 < 0.01
Simulation CPU 0 panic: IPC 0.000998 < 0.01
Simulation CPU 0 warning: IPC 0.036948 < 0.05
Simulation CPU 0 panic: IPC 0.0062369 < 0.01
Simulation CPU 0 panic: IPC 0.0077347 < 0.01
Simulation CPU 0 panic: IPC 0.0096087 < 0.01
Simulation CPU 0 panic: IPC 0.0012476 < 0.01
Simulation CPU 0 panic: IPC 0.0048706 < 0.01
Simulation CPU 0 warning: IPC 0.031462 < 0.05
Simulation CPU 0 panic: IPC 0.0066113 < 0.01
Simulation CPU 0 panic: IPC 0.0078595 < 0.01
Simulation CPU 0 panic: IPC 0.0093591 < 0.01
Simulation CPU 0 panic: IPC 0.0014972 < 0.01
Simulation CPU 0 panic: IPC 0.0049954 < 0.01
Simulation CPU 0 warning: IPC 0.030211 < 0.05
Simulation CPU 0 panic: IPC 0.0007438 < 0.01
Simulation CPU 0 critical: IPC 0.014845 < 0.02
Simulation CPU 0 panic: IPC 0.0092343 < 0.01
Simulation CPU 0 panic: IPC 0.0017468 < 0.01
Simulation CPU 0 panic: IPC 0.005245 < 0.01
Simulation CPU 0 warning: IPC 0.030089 < 0.05
Simulation CPU 0 panic: IPC 0.0071105 < 0.01
Simulation CPU 0 panic: IPC 0.0082339 < 0.01
Simulation CPU 0 panic: IPC 0.0088599 < 0.01
Simulation CPU 0 panic: IPC 0.0021788 < 0.01
Simulation CPU 0 panic: IPC 0.0053122 < 0.01
Simulation CPU 0 warning: IPC 0.029582 < 0.05
Simulation CPU 0 panic: IPC 0.0073601 < 0.01
Simulation CPU 0 panic: IPC 0.0083587 < 0.01
Simulation CPU 0 panic: IPC 0.0087351 < 0.01
Simulation CPU 0 panic: IPC 0.0079902 < 0.01
Simulation CPU 0 warning: IPC 0.028716 < 0.05
Simulation CPU 0 panic: IPC 0.0077345 < 0.01
Simulation CPU 0 panic: IPC 0.0084835 < 0.01
Simulation CPU 0 panic: IPC 0.0084855 < 0.01
Simulation CPU 0 panic: IPC 0.0027452 < 0.01
Simulation CPU 0 panic: IPC 0.0056194 < 0.01
Simulation CPU 0 warning: IPC 0.028209 < 0.05
Simulation CPU 0 panic: IPC 0.0079841 < 0.01
Simulation CPU 0 panic: IPC 0.0087331 < 0.01
Simulation CPU 0 panic: IPC 0.0082359 < 0.01
Simulation CPU 0 panic: IPC 0.00287 < 0.01
Simulation CPU 0 panic: IPC 0.0059266 < 0.01
Simulation CPU 0 warning: IPC 0.025412 < 0.05
Simulation CPU 0 panic: IPC 0.0019984 < 0.01
Simulation CPU 0 critical: IPC 0.017092 < 0.02
Simulation CPU 0 panic: IPC 0.0079863 < 0.01
Simulation CPU 0 panic: IPC 0.0033692 < 0.01
Simulation CPU 0 panic: IPC 0.0059938 < 0.01
Simulation CPU 0 warning: IPC 0.026778 < 0.05
Simulation CPU 0 panic: IPC 0.0085409 < 0.01
Simulation CPU 0 panic: IPC 0.0091075 < 0.01
Simulation CPU 0 panic: IPC 0.0077367 < 0.01
Simulation CPU 0 panic: IPC 0.0036188 < 0.01
Simulation CPU 0 panic: IPC 0.0061186 < 0.01
Simulation CPU 0 warning: IPC 0.025971 < 0.05
Simulation CPU 0 panic: IPC 0.0089825 < 0.01
Simulation CPU 0 panic: IPC 0.0091363 < 0.01
Heartbeat CPU 0 instructions: 90000016 cycles: 8360961057 heartbeat IPC: 0.01059 cumulative IPC: 0.01076 (Simulation time: 14 hr 48 min 55 sec)
Simulation CPU 0 panic: IPC 0.0075831 < 0.01
Simulation CPU 0 critical: IPC 0.010237 < 0.02
Simulation CPU 0 warning: IPC 0.025338 < 0.05
Simulation CPU 0 panic: IPC 0.0092321 < 0.01
Simulation CPU 0 panic: IPC 0.0093571 < 0.01
Simulation CPU 0 panic: IPC 0.0073623 < 0.01
Simulation CPU 0 panic: IPC 0.004118 < 0.01
Simulation CPU 0 panic: IPC 0.006493 < 0.01
Simulation CPU 0 warning: IPC 0.024598 < 0.05
Simulation CPU 0 panic: IPC 0.0094817 < 0.01
Simulation CPU 0 panic: IPC 0.0096067 < 0.01
Simulation CPU 0 panic: IPC 0.0069879 < 0.01
Simulation CPU 0 panic: IPC 0.0044924 < 0.01
Simulation CPU 0 panic: IPC 0.0067426 < 0.01
Simulation CPU 0 warning: IPC 0.023966 < 0.05
Simulation CPU 0 critical: IPC 0.019463 < 0.02
Simulation CPU 0 panic: IPC 0.0068631 < 0.01
Simulation CPU 0 panic: IPC 0.004742 < 0.01
Simulation CPU 0 panic: IPC 0.0067509 < 0.01
Simulation CPU 0 warning: IPC 0.023342 < 0.05
Simulation CPU 0 critical: IPC 0.010106 < 0.02
Simulation CPU 0 panic: IPC 0.0098563 < 0.01
Simulation CPU 0 panic: IPC 0.0066135 < 0.01
Simulation CPU 0 panic: IPC 0.0051164 < 0.01
Simulation CPU 0 panic: IPC 0.0069922 < 0.01
Simulation CPU 0 warning: IPC 0.022593 < 0.05
Simulation CPU 0 critical: IPC 0.010355 < 0.02
Simulation CPU 0 critical: IPC 0.010106 < 0.02
Simulation CPU 0 panic: IPC 0.0063639 < 0.01
Simulation CPU 0 panic: IPC 0.0055004 < 0.01
Simulation CPU 0 warning: IPC 0.028835 < 0.05
Simulation CPU 0 critical: IPC 0.010605 < 0.02
Simulation CPU 0 critical: IPC 0.010231 < 0.02
Simulation CPU 0 panic: IPC 0.0061143 < 0.01
Simulation CPU 0 panic: IPC 0.0057404 < 0.01
Simulation CPU 0 panic: IPC 0.0073666 < 0.01
Simulation CPU 0 warning: IPC 0.02122 < 0.05
Simulation CPU 0 critical: IPC 0.010854 < 0.02
Simulation CPU 0 critical: IPC 0.01048 < 0.02
Simulation CPU 0 panic: IPC 0.0058647 < 0.01
Simulation CPU 0 panic: IPC 0.0058735 < 0.01
Simulation CPU 0 panic: IPC 0.0074914 < 0.01
Simulation CPU 0 warning: IPC 0.020596 < 0.05
Simulation CPU 0 critical: IPC 0.011229 < 0.02
Simulation CPU 0 critical: IPC 0.01622 < 0.02
Simulation CPU 0 panic: IPC 0.0062396 < 0.01
Simulation CPU 0 panic: IPC 0.0010845 < 0.01
Simulation CPU 0 panic: IPC 0.0066565 < 0.01
Simulation CPU 0 critical: IPC 0.019847 < 0.02
Simulation CPU 0 critical: IPC 0.011479 < 0.02
Simulation CPU 0 critical: IPC 0.01073 < 0.02
Simulation CPU 0 panic: IPC 0.0054903 < 0.01
Simulation CPU 0 panic: IPC 0.0064975 < 0.01
Simulation CPU 0 panic: IPC 0.007741 < 0.01
Simulation CPU 0 critical: IPC 0.019098 < 0.02
Simulation CPU 0 critical: IPC 0.011853 < 0.02
Simulation CPU 0 critical: IPC 0.010979 < 0.02
Simulation CPU 0 panic: IPC 0.0051159 < 0.01
Simulation CPU 0 critical: IPC 0.014979 < 0.02
Simulation CPU 0 critical: IPC 0.01835 < 0.02
Simulation CPU 0 critical: IPC 0.012103 < 0.02
Simulation CPU 0 critical: IPC 0.011104 < 0.02
Simulation CPU 0 panic: IPC 0.0048746 < 0.01
Simulation CPU 0 panic: IPC 0.007238 < 0.01
Simulation CPU 0 panic: IPC 0.0081154 < 0.01
Simulation CPU 0 critical: IPC 0.017726 < 0.02
Simulation CPU 0 critical: IPC 0.012477 < 0.02
Simulation CPU 0 critical: IPC 0.011229 < 0.02
Simulation CPU 0 panic: IPC 0.0047415 < 0.01
Simulation CPU 0 panic: IPC 0.00743 < 0.01
Simulation CPU 0 panic: IPC 0.0084226 < 0.01
Simulation CPU 0 critical: IPC 0.016977 < 0.02
Simulation CPU 0 critical: IPC 0.012726 < 0.02
Simulation CPU 0 critical: IPC 0.015854 < 0.02
Simulation CPU 0 panic: IPC 0.0049367 < 0.01
Simulation CPU 0 panic: IPC 0.0028005 < 0.01
Simulation CPU 0 panic: IPC 0.0084898 < 0.01
Simulation CPU 0 critical: IPC 0.016353 < 0.02
Simulation CPU 0 critical: IPC 0.012976 < 0.02
Simulation CPU 0 critical: IPC 0.011603 < 0.02
Simulation CPU 0 panic: IPC 0.0042423 < 0.01
Simulation CPU 0 panic: IPC 0.0081116 < 0.01
Simulation CPU 0 panic: IPC 0.0087394 < 0.01
Simulation CPU 0 critical: IPC 0.015604 < 0.02
Simulation CPU 0 critical: IPC 0.013226 < 0.02
Simulation CPU 0 critical: IPC 0.011737 < 0.02
Simulation CPU 0 panic: IPC 0.0039927 < 0.01
Simulation CPU 0 critical: IPC 0.017225 < 0.02
Simulation CPU 0 critical: IPC 0.01498 < 0.02
Simulation CPU 0 critical: IPC 0.0136 < 0.02
Simulation CPU 0 critical: IPC 0.011853 < 0.02
Simulation CPU 0 panic: IPC 0.0038679 < 0.01
Simulation CPU 0 panic: IPC 0.0086108 < 0.01
Heartbeat CPU 0 instructions: 100000016 cycles: 9295529895 heartbeat IPC: 0.0107 cumulative IPC: 0.01076 (Simulation time: 16 hr 26 min 26 sec)
Simulation CPU 0 panic: IPC 0.0091138 < 0.01
Simulation CPU 0 critical: IPC 0.014231 < 0.02
Simulation CPU 0 critical: IPC 0.01385 < 0.02
Simulation CPU 0 critical: IPC 0.011986 < 0.02
Simulation CPU 0 panic: IPC 0.0036183 < 0.01
Simulation CPU 0 panic: IPC 0.0089852 < 0.01
Simulation CPU 0 panic: IPC 0.0091138 < 0.01
Simulation CPU 0 critical: IPC 0.013607 < 0.02
Simulation CPU 0 warning: IPC 0.026365 < 0.05
Simulation CPU 0 panic: IPC 0.0033303 < 0.01
Simulation CPU 0 panic: IPC 0.0025493 < 0.01
Simulation CPU 0 panic: IPC 0.0066855 < 0.01
Simulation CPU 0 panic: IPC 0.0094882 < 0.01
Simulation CPU 0 critical: IPC 0.012858 < 0.02
Simulation CPU 0 critical: IPC 0.014349 < 0.02
Simulation CPU 0 critical: IPC 0.012361 < 0.02
Simulation CPU 0 panic: IPC 0.0031191 < 0.01
Simulation CPU 0 panic: IPC 0.0096092 < 0.01
Simulation CPU 0 panic: IPC 0.0094882 < 0.01
Simulation CPU 0 critical: IPC 0.012234 < 0.02
Simulation CPU 0 critical: IPC 0.014723 < 0.02
Simulation CPU 0 critical: IPC 0.012602 < 0.02
Simulation CPU 0 critical: IPC 0.012604 < 0.02
Simulation CPU 0 panic: IPC 0.0098626 < 0.01
Simulation CPU 0 critical: IPC 0.011361 < 0.02
Simulation CPU 0 critical: IPC 0.015098 < 0.02
Simulation CPU 0 critical: IPC 0.01261 < 0.02
Simulation CPU 0 panic: IPC 0.0027447 < 0.01
Simulation CPU 0 critical: IPC 0.010108 < 0.02
Simulation CPU 0 panic: IPC 0.0098626 < 0.01
Simulation CPU 0 critical: IPC 0.010737 < 0.02
Simulation CPU 0 critical: IPC 0.015347 < 0.02
Simulation CPU 0 critical: IPC 0.012976 < 0.02
Simulation CPU 0 panic: IPC 0.0023703 < 0.01
Simulation CPU 0 critical: IPC 0.010483 < 0.02
Simulation CPU 0 critical: IPC 0.010112 < 0.02
Simulation CPU 0 critical: IPC 0.012463 < 0.02
Simulation CPU 0 warning: IPC 0.026231 < 0.05
Simulation CPU 0 panic: IPC 0.0021207 < 0.01
Simulation CPU 0 critical: IPC 0.010732 < 0.02
Simulation CPU 0 critical: IPC 0.010237 < 0.02
Simulation CPU 0 panic: IPC 0.0093639 < 0.01
Simulation CPU 0 critical: IPC 0.015971 < 0.02
Simulation CPU 0 critical: IPC 0.013226 < 0.02
Simulation CPU 0 panic: IPC 0.0019959 < 0.01
Simulation CPU 0 critical: IPC 0.010982 < 0.02
Simulation CPU 0 critical: IPC 0.010487 < 0.02
Simulation CPU 0 panic: IPC 0.0086151 < 0.01
Simulation CPU 0 critical: IPC 0.016229 < 0.02
Simulation CPU 0 critical: IPC 0.013351 < 0.02
Simulation CPU 0 panic: IPC 0.0017463 < 0.01
Simulation CPU 0 warning: IPC 0.021843 < 0.05
Simulation CPU 0 panic: IPC 0.0079911 < 0.01
Simulation CPU 0 critical: IPC 0.01647 < 0.02
Simulation CPU 0 critical: IPC 0.0136 < 0.02
Simulation CPU 0 panic: IPC 0.0015063 < 0.01
Simulation CPU 0 critical: IPC 0.011596 < 0.02
Simulation CPU 0 critical: IPC 0.010861 < 0.02
Simulation CPU 0 panic: IPC 0.0072423 < 0.01
Simulation CPU 0 critical: IPC 0.016728 < 0.02
Simulation CPU 0 critical: IPC 0.013725 < 0.02
Simulation CPU 0 panic: IPC 0.0012471 < 0.01
Simulation CPU 0 critical: IPC 0.01198 < 0.02
Simulation CPU 0 critical: IPC 0.010861 < 0.02
Simulation CPU 0 panic: IPC 0.0066183 < 0.01
Simulation CPU 0 warning: IPC 0.02903 < 0.05
Simulation CPU 0 panic: IPC 0.0030364 < 0.01
Simulation CPU 0 critical: IPC 0.012105 < 0.02
Simulation CPU 0 critical: IPC 0.011235 < 0.02
Simulation CPU 0 panic: IPC 0.0058695 < 0.01
Simulation CPU 0 panic: IPC 0.0077492 < 0.01
Simulation CPU 0 panic: IPC 0.0096032 < 0.01
Simulation CPU 0 critical: IPC 0.013975 < 0.02
Simulation CPU 0 panic: IPC 0.0008727 < 0.01
Simulation CPU 0 critical: IPC 0.01248 < 0.02
Simulation CPU 0 critical: IPC 0.011235 < 0.02
Simulation CPU 0 panic: IPC 0.0052455 < 0.01
Simulation CPU 0 critical: IPC 0.017594 < 0.02
Simulation CPU 0 critical: IPC 0.014349 < 0.02
Simulation CPU 0 panic: IPC 0.0075389 < 0.01
Simulation CPU 0 critical: IPC 0.017231 < 0.02
Simulation CPU 0 panic: IPC 0.0045159 < 0.01
Simulation CPU 0 critical: IPC 0.0179 < 0.02
Simulation CPU 0 critical: IPC 0.014349 < 0.02
Simulation CPU 0 panic: IPC 0.0003735 < 0.01
Simulation CPU 0 critical: IPC 0.013104 < 0.02
Simulation CPU 0 critical: IPC 0.01161 < 0.02
Simulation CPU 0 panic: IPC 0.0037479 < 0.01
Simulation CPU 0 critical: IPC 0.018343 < 0.02
Simulation CPU 0 critical: IPC 0.014599 < 0.02
Simulation CPU 0 panic: IPC 0.0001239 < 0.01
Simulation CPU 0 critical: IPC 0.013353 < 0.02
Simulation CPU 0 critical: IPC 0.011735 < 0.02
Heartbeat CPU 0 instructions: 110000017 cycles: 10220859758 heartbeat IPC: 0.01081 cumulative IPC: 0.01076 (Simulation time: 18 hr 06 min 04 sec)
Simulation CPU 0 panic: IPC 0.0031239 < 0.01
Simulation CPU 0 warning: IPC 0.033198 < 0.05
Simulation CPU 0 panic: IPC 0.0001257 < 0.01
Simulation CPU 0 critical: IPC 0.013477 < 0.02
Simulation CPU 0 critical: IPC 0.011984 < 0.02
Simulation CPU 0 panic: IPC 0.0023751 < 0.01
Simulation CPU 0 panic: IPC 0.0066098 < 0.01
Simulation CPU 0 critical: IPC 0.012232 < 0.02
Simulation CPU 0 critical: IPC 0.014646 < 0.02
Simulation CPU 0 panic: IPC 0.0003273 < 0.01
Simulation CPU 0 critical: IPC 0.013602 < 0.02
Simulation CPU 0 critical: IPC 0.012109 < 0.02
Simulation CPU 0 panic: IPC 0.0017511 < 0.01
Simulation CPU 0 critical: IPC 0.0191 < 0.02
Simulation CPU 0 critical: IPC 0.014473 < 0.02
Simulation CPU 0 critical: IPC 0.014352 < 0.02
Simulation CPU 0 critical: IPC 0.012234 < 0.02
Simulation CPU 0 panic: IPC 0.0010023 < 0.01
Simulation CPU 0 critical: IPC 0.019466 < 0.02
Simulation CPU 0 critical: IPC 0.014473 < 0.02
Simulation CPU 0 panic: IPC 0.0007977 < 0.01
Simulation CPU 0 critical: IPC 0.013679 < 0.02
Simulation CPU 0 critical: IPC 0.012483 < 0.02
Simulation CPU 0 panic: IPC 0.0002618 < 0.01
Simulation CPU 0 critical: IPC 0.01984 < 0.02
Simulation CPU 0 critical: IPC 0.014348 < 0.02
Simulation CPU 0 panic: IPC 0.0009993 < 0.01
Simulation CPU 0 critical: IPC 0.013851 < 0.02
Simulation CPU 0 critical: IPC 0.012238 < 0.02
Simulation CPU 0 critical: IPC 0.019965 < 0.02
Simulation CPU 0 critical: IPC 0.014415 < 0.02
Simulation CPU 0 panic: IPC 0.0013065 < 0.01
Simulation CPU 0 critical: IPC 0.013727 < 0.02
Simulation CPU 0 critical: IPC 0.011747 < 0.02
Simulation CPU 0 panic: IPC 0.0009945 < 0.01
Simulation CPU 0 panic: IPC 0.0043511 < 0.01
Simulation CPU 0 critical: IPC 0.014994 < 0.02
Simulation CPU 0 critical: IPC 0.014223 < 0.02
Simulation CPU 0 panic: IPC 0.0014985 < 0.01
Simulation CPU 0 critical: IPC 0.013976 < 0.02
Simulation CPU 0 critical: IPC 0.011239 < 0.02
Simulation CPU 0 panic: IPC 0.0017433 < 0.01
Simulation CPU 0 critical: IPC 0.018846 < 0.02
Simulation CPU 0 critical: IPC 0.014223 < 0.02
Simulation CPU 0 critical: IPC 0.015724 < 0.02
Simulation CPU 0 critical: IPC 0.010624 < 0.02
Simulation CPU 0 panic: IPC 0.0023673 < 0.01
Simulation CPU 0 critical: IPC 0.018596 < 0.02
Simulation CPU 0 critical: IPC 0.014099 < 0.02
Simulation CPU 0 panic: IPC 0.0019977 < 0.01
Simulation CPU 0 critical: IPC 0.013976 < 0.02
Simulation CPU 0 critical: IPC 0.010116 < 0.02
Simulation CPU 0 panic: IPC 0.0032409 < 0.01
Simulation CPU 0 critical: IPC 0.017972 < 0.02
Simulation CPU 0 critical: IPC 0.014185 < 0.02
Simulation CPU 0 panic: IPC 0.0021609 < 0.01
Simulation CPU 0 critical: IPC 0.014101 < 0.02
Simulation CPU 0 panic: IPC 0.0095004 < 0.01
Simulation CPU 0 warning: IPC 0.021587 < 0.05
Simulation CPU 0 critical: IPC 0.013974 < 0.02
Simulation CPU 0 panic: IPC 0.0024969 < 0.01
Simulation CPU 0 critical: IPC 0.014101 < 0.02
Simulation CPU 0 panic: IPC 0.0091177 < 0.01
Simulation CPU 0 panic: IPC 0.0046137 < 0.01
Simulation CPU 0 critical: IPC 0.017223 < 0.02
Simulation CPU 0 critical: IPC 0.013974 < 0.02
Simulation CPU 0 panic: IPC 0.0026217 < 0.01
Simulation CPU 0 critical: IPC 0.014226 < 0.02
Simulation CPU 0 panic: IPC 0.008502 < 0.01
Simulation CPU 0 panic: IPC 0.0052377 < 0.01
Simulation CPU 0 critical: IPC 0.016974 < 0.02
Simulation CPU 0 critical: IPC 0.013849 < 0.02
Simulation CPU 0 critical: IPC 0.017222 < 0.02
Simulation CPU 0 panic: IPC 0.0079945 < 0.01
Simulation CPU 0 panic: IPC 0.0059865 < 0.01
Simulation CPU 0 critical: IPC 0.01635 < 0.02
Simulation CPU 0 critical: IPC 0.013955 < 0.02
Simulation CPU 0 panic: IPC 0.0031401 < 0.01
Simulation CPU 0 critical: IPC 0.014234 < 0.02
Simulation CPU 0 panic: IPC 0.0074953 < 0.01
Simulation CPU 0 panic: IPC 0.0066105 < 0.01
Simulation CPU 0 critical: IPC 0.0161 < 0.02
Simulation CPU 0 critical: IPC 0.013724 < 0.02
Simulation CPU 0 panic: IPC 0.0033705 < 0.01
Simulation CPU 0 critical: IPC 0.014476 < 0.02
Simulation CPU 0 panic: IPC 0.0069961 < 0.01
Simulation CPU 0 panic: IPC 0.0093185 < 0.01
Simulation CPU 0 warning: IPC 0.027366 < 0.05
Simulation CPU 0 panic: IPC 0.0036201 < 0.01
Simulation CPU 0 critical: IPC 0.014445 < 0.02
Simulation CPU 0 panic: IPC 0.0064105 < 0.01
Simulation CPU 0 panic: IPC 0.0079833 < 0.01
Heartbeat CPU 0 instructions: 120000020 cycles: 11146190032 heartbeat IPC: 0.01081 cumulative IPC: 0.01077 (Simulation time: 19 hr 42 min 06 sec)
Simulation CPU 0 critical: IPC 0.015351 < 0.02
Simulation CPU 0 critical: IPC 0.013599 < 0.02
Simulation CPU 0 panic: IPC 0.0037449 < 0.01
Simulation CPU 0 panic: IPC 0.001448 < 0.01
Simulation CPU 0 critical: IPC 0.013152 < 0.02
Simulation CPU 0 panic: IPC 0.0059977 < 0.01
Simulation CPU 0 panic: IPC 0.0087321 < 0.01
Simulation CPU 0 critical: IPC 0.014727 < 0.02
Simulation CPU 0 critical: IPC 0.013724 < 0.02
Simulation CPU 0 critical: IPC 0.018603 < 0.02
Simulation CPU 0 panic: IPC 0.0053737 < 0.01
Simulation CPU 0 panic: IPC 0.0093561 < 0.01
Simulation CPU 0 critical: IPC 0.014478 < 0.02
Simulation CPU 0 critical: IPC 0.013475 < 0.02
Simulation CPU 0 panic: IPC 0.0043689 < 0.01
Simulation CPU 0 critical: IPC 0.0146 < 0.02
Simulation CPU 0 panic: IPC 0.0049993 < 0.01
Simulation CPU 0 critical: IPC 0.010105 < 0.02
Simulation CPU 0 critical: IPC 0.013978 < 0.02
Simulation CPU 0 critical: IPC 0.013475 < 0.02
Simulation CPU 0 panic: IPC 0.0044937 < 0.01
Simulation CPU 0 critical: IPC 0.014733 < 0.02
Simulation CPU 0 panic: IPC 0.0042505 < 0.01
Simulation CPU 0 warning: IPC 0.024583 < 0.05
Simulation CPU 0 critical: IPC 0.01335 < 0.02
Simulation CPU 0 panic: IPC 0.0047433 < 0.01
Simulation CPU 0 critical: IPC 0.01485 < 0.02
Simulation CPU 0 panic: IPC 0.0037513 < 0.01
Simulation CPU 0 critical: IPC 0.011602 < 0.02
Simulation CPU 0 critical: IPC 0.013105 < 0.02
Simulation CPU 0 critical: IPC 0.013475 < 0.02
Simulation CPU 0 panic: IPC 0.0026807 < 0.01
Simulation CPU 0 panic: IPC 0.0021285 < 0.01
Simulation CPU 0 critical: IPC 0.014917 < 0.02
Simulation CPU 0 panic: IPC 0.0032521 < 0.01
Simulation CPU 0 critical: IPC 0.012226 < 0.02
Simulation CPU 0 critical: IPC 0.012855 < 0.02
Simulation CPU 0 critical: IPC 0.018468 < 0.02
Simulation CPU 0 critical: IPC 0.014975 < 0.02
Simulation CPU 0 panic: IPC 0.0027529 < 0.01
Simulation CPU 0 critical: IPC 0.012975 < 0.02
Simulation CPU 0 critical: IPC 0.012356 < 0.02
Simulation CPU 0 critical: IPC 0.013225 < 0.02
Simulation CPU 0 panic: IPC 0.0053756 < 0.01
Simulation CPU 0 critical: IPC 0.014975 < 0.02
Simulation CPU 0 panic: IPC 0.0022537 < 0.01
Simulation CPU 0 critical: IPC 0.013599 < 0.02
Simulation CPU 0 critical: IPC 0.012106 < 0.02
Simulation CPU 0 critical: IPC 0.0131 < 0.02
Simulation CPU 0 panic: IPC 0.0056169 < 0.01
Simulation CPU 0 critical: IPC 0.0151 < 0.02
Simulation CPU 0 panic: IPC 0.0017545 < 0.01
Simulation CPU 0 warning: IPC 0.02583 < 0.05
Simulation CPU 0 critical: IPC 0.013109 < 0.02
Simulation CPU 0 panic: IPC 0.0058665 < 0.01
Simulation CPU 0 critical: IPC 0.015224 < 0.02
Simulation CPU 0 panic: IPC 0.0011305 < 0.01
Simulation CPU 0 critical: IPC 0.014972 < 0.02
Simulation CPU 0 critical: IPC 0.011233 < 0.02
Simulation CPU 0 critical: IPC 0.012975 < 0.02
Simulation CPU 0 panic: IPC 0.0004181 < 0.01
Simulation CPU 0 panic: IPC 0.0058228 < 0.01
Simulation CPU 0 critical: IPC 0.0151 < 0.02
Simulation CPU 0 panic: IPC 0.0007561 < 0.01
Simulation CPU 0 critical: IPC 0.015721 < 0.02
Simulation CPU 0 critical: IPC 0.010734 < 0.02
Simulation CPU 0 critical: IPC 0.019225 < 0.02
Simulation CPU 0 critical: IPC 0.015349 < 0.02
Simulation CPU 0 panic: IPC 0.0001321 < 0.01
Simulation CPU 0 critical: IPC 0.016345 < 0.02
Simulation CPU 0 critical: IPC 0.010484 < 0.02
Simulation CPU 0 critical: IPC 0.012851 < 0.02
Simulation CPU 0 panic: IPC 0.0066153 < 0.01
Simulation CPU 0 critical: IPC 0.014982 < 0.02
Simulation CPU 0 panic: IPC 0.0002423 < 0.01
Simulation CPU 0 critical: IPC 0.016851 < 0.02
Simulation CPU 0 panic: IPC 0.00986 < 0.01
Simulation CPU 0 critical: IPC 0.012859 < 0.02
Simulation CPU 0 panic: IPC 0.0067401 < 0.01
Simulation CPU 0 critical: IPC 0.014569 < 0.02
Simulation CPU 0 critical: IPC 0.017756 < 0.02
Simulation CPU 0 panic: IPC 0.0096104 < 0.01
Simulation CPU 0 critical: IPC 0.012726 < 0.02
Simulation CPU 0 panic: IPC 0.0071145 < 0.01
Simulation CPU 0 critical: IPC 0.013984 < 0.02
Simulation CPU 0 panic: IPC 0.0014903 < 0.01
Simulation CPU 0 critical: IPC 0.017034 < 0.02
Simulation CPU 0 panic: IPC 0.0091784 < 0.01
Simulation CPU 0 critical: IPC 0.012609 < 0.02
Simulation CPU 0 panic: IPC 0.0073641 < 0.01
Simulation CPU 0 critical: IPC 0.013484 < 0.02
Simulation CPU 0 panic: IPC 0.0019895 < 0.01
Simulation CPU 0 critical: IPC 0.017226 < 0.02
Simulation CPU 0 panic: IPC 0.0088616 < 0.01
Heartbeat CPU 0 instructions: 130000021 cycles: 12080768466 heartbeat IPC: 0.0107 cumulative IPC: 0.01076 (Simulation time: 21 hr 16 min 19 sec)
Simulation CPU 0 critical: IPC 0.012601 < 0.02
Simulation CPU 0 warning: IPC 0.020599 < 0.05
Simulation CPU 0 panic: IPC 0.0024887 < 0.01
Simulation CPU 0 critical: IPC 0.017351 < 0.02
Simulation CPU 0 panic: IPC 0.0083624 < 0.01
Simulation CPU 0 critical: IPC 0.012609 < 0.02
Simulation CPU 0 panic: IPC 0.0077385 < 0.01
Simulation CPU 0 critical: IPC 0.012611 < 0.02
Simulation CPU 0 panic: IPC 0.0030839 < 0.01
Simulation CPU 0 critical: IPC 0.017504 < 0.02
Simulation CPU 0 panic: IPC 0.007988 < 0.01
Simulation CPU 0 critical: IPC 0.012476 < 0.02
Simulation CPU 0 panic: IPC 0.0079881 < 0.01
Simulation CPU 0 critical: IPC 0.012236 < 0.02
Simulation CPU 0 panic: IPC 0.0034871 < 0.01
Simulation CPU 0 warning: IPC 0.025347 < 0.05
Simulation CPU 0 critical: IPC 0.012351 < 0.02
Simulation CPU 0 panic: IPC 0.0082377 < 0.01
Simulation CPU 0 critical: IPC 0.011737 < 0.02
Simulation CPU 0 panic: IPC 0.0041111 < 0.01
Simulation CPU 0 critical: IPC 0.01785 < 0.02
Simulation CPU 0 panic: IPC 0.0072392 < 0.01
Simulation CPU 0 critical: IPC 0.012351 < 0.02
Simulation CPU 0 panic: IPC 0.0084873 < 0.01
Simulation CPU 0 critical: IPC 0.011238 < 0.02
Simulation CPU 0 panic: IPC 0.0044855 < 0.01
Simulation CPU 0 critical: IPC 0.010617 < 0.02
Simulation CPU 0 panic: IPC 0.0074821 < 0.01
Simulation CPU 0 panic: IPC 0.0067483 < 0.01
Simulation CPU 0 warning: IPC 0.020963 < 0.05
Simulation CPU 0 critical: IPC 0.010864 < 0.02
Simulation CPU 0 panic: IPC 0.0051095 < 0.01
Simulation CPU 0 critical: IPC 0.018224 < 0.02
Simulation CPU 0 panic: IPC 0.0063656 < 0.01
Simulation CPU 0 critical: IPC 0.012227 < 0.02
Simulation CPU 0 panic: IPC 0.0089865 < 0.01
Simulation CPU 0 critical: IPC 0.010364 < 0.02
Simulation CPU 0 panic: IPC 0.0056087 < 0.01
Simulation CPU 0 critical: IPC 0.018232 < 0.02
Simulation CPU 0 panic: IPC 0.006116 < 0.01
Simulation CPU 0 critical: IPC 0.012102 < 0.02
Simulation CPU 0 panic: IPC 0.0091785 < 0.01
Simulation CPU 0 panic: IPC 0.0099228 < 0.01
Simulation CPU 0 critical: IPC 0.018134 < 0.02
Simulation CPU 0 critical: IPC 0.012189 < 0.02
Simulation CPU 0 critical: IPC 0.012102 < 0.02
Simulation CPU 0 panic: IPC 0.0093609 < 0.01
Simulation CPU 0 panic: IPC 0.0093756 < 0.01
Simulation CPU 0 panic: IPC 0.0067223 < 0.01
Simulation CPU 0 critical: IPC 0.018607 < 0.02
Simulation CPU 0 panic: IPC 0.0052424 < 0.01
Simulation CPU 0 critical: IPC 0.012102 < 0.02
Simulation CPU 0 panic: IPC 0.0096105 < 0.01
Simulation CPU 0 panic: IPC 0.0088668 < 0.01
Simulation CPU 0 panic: IPC 0.0072311 < 0.01
Simulation CPU 0 panic: IPC 0.0067419 < 0.01
Simulation CPU 0 critical: IPC 0.012231 < 0.02
Simulation CPU 0 panic: IPC 0.0047432 < 0.01
Simulation CPU 0 warning: IPC 0.021837 < 0.05
Simulation CPU 0 panic: IPC 0.0084924 < 0.01
Simulation CPU 0 panic: IPC 0.0077303 < 0.01
Simulation CPU 0 critical: IPC 0.018981 < 0.02
Simulation CPU 0 panic: IPC 0.0044936 < 0.01
Simulation CPU 0 critical: IPC 0.011852 < 0.02
Simulation CPU 0 critical: IPC 0.01011 < 0.02
Simulation CPU 0 panic: IPC 0.0079932 < 0.01
Simulation CPU 0 panic: IPC 0.0083543 < 0.01
Simulation CPU 0 critical: IPC 0.019223 < 0.02
Simulation CPU 0 panic: IPC 0.0039944 < 0.01
Simulation CPU 0 critical: IPC 0.011852 < 0.02
Simulation CPU 0 critical: IPC 0.010359 < 0.02
Simulation CPU 0 panic: IPC 0.007494 < 0.01
Simulation CPU 0 warning: IPC 0.028084 < 0.05
Simulation CPU 0 panic: IPC 0.00362 < 0.01
Simulation CPU 0 critical: IPC 0.011852 < 0.02
Simulation CPU 0 critical: IPC 0.010484 < 0.02
Simulation CPU 0 panic: IPC 0.0071196 < 0.01
Simulation CPU 0 panic: IPC 0.0093527 < 0.01
Simulation CPU 0 critical: IPC 0.019597 < 0.02
Simulation CPU 0 panic: IPC 0.0031208 < 0.01
Simulation CPU 0 critical: IPC 0.011727 < 0.02
Simulation CPU 0 critical: IPC 0.010859 < 0.02
Simulation CPU 0 panic: IPC 0.0066204 < 0.01
Simulation CPU 0 panic: IPC 0.0097271 < 0.01
Simulation CPU 0 panic: IPC 0.0028473 < 0.01
Simulation CPU 0 critical: IPC 0.016883 < 0.02
Simulation CPU 0 critical: IPC 0.014474 < 0.02
Simulation CPU 0 critical: IPC 0.010983 < 0.02
Simulation CPU 0 panic: IPC 0.006246 < 0.01
Simulation CPU 0 critical: IPC 0.010351 < 0.02
Simulation CPU 0 critical: IPC 0.019971 < 0.02
Simulation CPU 0 panic: IPC 0.002372 < 0.01
Simulation CPU 0 critical: IPC 0.011603 < 0.02
Simulation CPU 0 critical: IPC 0.011233 < 0.02
Heartbeat CPU 0 instructions: 140000021 cycles: 13024590922 heartbeat IPC: 0.0106 cumulative IPC: 0.01075 (Simulation time: 22 hr 57 min 34 sec)
Simulation CPU 0 panic: IPC 0.0057468 < 0.01
Simulation CPU 0 critical: IPC 0.01085 < 0.02
Simulation CPU 0 critical: IPC 0.01998 < 0.02
Simulation CPU 0 panic: IPC 0.0019976 < 0.01
Simulation CPU 0 critical: IPC 0.011603 < 0.02
Simulation CPU 0 critical: IPC 0.011482 < 0.02
Simulation CPU 0 critical: IPC 0.01333 < 0.02
Simulation CPU 0 warning: IPC 0.023613 < 0.05
Simulation CPU 0 panic: IPC 0.0014984 < 0.01
Simulation CPU 0 critical: IPC 0.011478 < 0.02
Simulation CPU 0 critical: IPC 0.011732 < 0.02
Simulation CPU 0 panic: IPC 0.0048732 < 0.01
Simulation CPU 0 critical: IPC 0.011857 < 0.02
Simulation CPU 0 warning: IPC 0.020346 < 0.05
Simulation CPU 0 panic: IPC 0.0012488 < 0.01
Simulation CPU 0 critical: IPC 0.011353 < 0.02
Simulation CPU 0 critical: IPC 0.011982 < 0.02
Simulation CPU 0 panic: IPC 0.0042492 < 0.01
Simulation CPU 0 critical: IPC 0.012578 < 0.02
Simulation CPU 0 warning: IPC 0.020615 < 0.05
Simulation CPU 0 panic: IPC 0.0007496 < 0.01
Simulation CPU 0 warning: IPC 0.02346 < 0.05
Simulation CPU 0 panic: IPC 0.0038748 < 0.01
Simulation CPU 0 critical: IPC 0.01298 < 0.02
Simulation CPU 0 warning: IPC 0.02072 < 0.05
Simulation CPU 0 panic: IPC 0.0003752 < 0.01
Simulation CPU 0 critical: IPC 0.011353 < 0.02
Simulation CPU 0 critical: IPC 0.012356 < 0.02
Simulation CPU 0 panic: IPC 0.0033756 < 0.01
Simulation CPU 0 critical: IPC 0.013596 < 0.02
Simulation CPU 0 warning: IPC 0.020846 < 0.05
Simulation CPU 0 panic: IPC 0.000124 < 0.01
Simulation CPU 0 critical: IPC 0.011104 < 0.02
Simulation CPU 0 critical: IPC 0.012731 < 0.02
Simulation CPU 0 panic: IPC 0.0028764 < 0.01
Simulation CPU 0 warning: IPC 0.0347 < 0.05
Simulation CPU 0 panic: IPC 0.0003736 < 0.01
Simulation CPU 0 critical: IPC 0.01073 < 0.02
Simulation CPU 0 critical: IPC 0.012855 < 0.02
Simulation CPU 0 panic: IPC 0.002502 < 0.01
Simulation CPU 0 critical: IPC 0.014594 < 0.02
Simulation CPU 0 warning: IPC 0.020471 < 0.05
Simulation CPU 0 panic: IPC 0.0008728 < 0.01
Simulation CPU 0 critical: IPC 0.010231 < 0.02
Simulation CPU 0 critical: IPC 0.013105 < 0.02
Simulation CPU 0 panic: IPC 0.0020028 < 0.01
Simulation CPU 0 critical: IPC 0.015102 < 0.02
Simulation CPU 0 warning: IPC 0.020107 < 0.05
Simulation CPU 0 panic: IPC 0.0012376 < 0.01
Simulation CPU 0 panic: IPC 0.0098562 < 0.01
Simulation CPU 0 critical: IPC 0.013307 < 0.02
Simulation CPU 0 panic: IPC 0.0015516 < 0.01
Simulation CPU 0 critical: IPC 0.015593 < 0.02
Simulation CPU 0 critical: IPC 0.019972 < 0.02
Simulation CPU 0 panic: IPC 0.0017464 < 0.01
Simulation CPU 0 panic: IPC 0.0092322 < 0.01
Simulation CPU 0 critical: IPC 0.013604 < 0.02
Simulation CPU 0 panic: IPC 0.0011292 < 0.01
Simulation CPU 0 critical: IPC 0.0161 < 0.02
Simulation CPU 0 critical: IPC 0.019723 < 0.02
Simulation CPU 0 panic: IPC 0.001996 < 0.01
Simulation CPU 0 panic: IPC 0.0088578 < 0.01
Simulation CPU 0 critical: IPC 0.013854 < 0.02
Simulation CPU 0 panic: IPC 0.00063 < 0.01
Simulation CPU 0 warning: IPC 0.036189 < 0.05
Simulation CPU 0 panic: IPC 0.0024952 < 0.01
Simulation CPU 0 panic: IPC 0.0083586 < 0.01
Simulation CPU 0 critical: IPC 0.013978 < 0.02
Simulation CPU 0 panic: IPC 0.0002556 < 0.01
Simulation CPU 0 critical: IPC 0.017099 < 0.02
Simulation CPU 0 critical: IPC 0.019252 < 0.02
Simulation CPU 0 panic: IPC 0.0028408 < 0.01
Simulation CPU 0 panic: IPC 0.0079842 < 0.01
Simulation CPU 0 critical: IPC 0.013956 < 0.02
Simulation CPU 0 panic: IPC 0.0002724 < 0.01
Simulation CPU 0 critical: IPC 0.017471 < 0.02
Simulation CPU 0 critical: IPC 0.018974 < 0.02
Simulation CPU 0 panic: IPC 0.0033688 < 0.01
Simulation CPU 0 panic: IPC 0.0080345 < 0.01
Simulation CPU 0 critical: IPC 0.012944 < 0.02
Simulation CPU 0 panic: IPC 0.0008676 < 0.01
Simulation CPU 0 critical: IPC 0.017471 < 0.02
Simulation CPU 0 critical: IPC 0.018849 < 0.02
Simulation CPU 0 panic: IPC 0.0036184 < 0.01
Simulation CPU 0 panic: IPC 0.0069858 < 0.01
Simulation CPU 0 critical: IPC 0.013485 < 0.02
Simulation CPU 0 panic: IPC 0.001242 < 0.01
Simulation CPU 0 critical: IPC 0.017596 < 0.02
Simulation CPU 0 critical: IPC 0.018599 < 0.02
Simulation CPU 0 panic: IPC 0.0040504 < 0.01
Simulation CPU 0 panic: IPC 0.0065538 < 0.01
Simulation CPU 0 critical: IPC 0.013119 < 0.02
Simulation CPU 0 critical: IPC 0.019337 < 0.02
Heartbeat CPU 0 instructions: 150000024 cycles: 13959224084 heartbeat IPC: 0.0107 cumulative IPC: 0.01075 (Simulation time: 00 hr 39 min 04 sec)
Simulation CPU 0 critical: IPC 0.018398 < 0.02
Simulation CPU 0 panic: IPC 0.004444 < 0.01
Simulation CPU 0 panic: IPC 0.0061122 < 0.01
Simulation CPU 0 critical: IPC 0.012986 < 0.02
Simulation CPU 0 panic: IPC 0.0021156 < 0.01
Simulation CPU 0 critical: IPC 0.01772 < 0.02
Simulation CPU 0 critical: IPC 0.0181 < 0.02
Simulation CPU 0 panic: IPC 0.0048664 < 0.01
Simulation CPU 0 panic: IPC 0.005613 < 0.01
Simulation CPU 0 critical: IPC 0.012745 < 0.02
Simulation CPU 0 panic: IPC 0.0026148 < 0.01
Simulation CPU 0 critical: IPC 0.017845 < 0.02
Simulation CPU 0 critical: IPC 0.017851 < 0.02
Simulation CPU 0 panic: IPC 0.0052408 < 0.01
Simulation CPU 0 panic: IPC 0.0051138 < 0.01
Simulation CPU 0 critical: IPC 0.012612 < 0.02
Simulation CPU 0 panic: IPC 0.003114 < 0.01
Simulation CPU 0 critical: IPC 0.01772 < 0.02
Simulation CPU 0 critical: IPC 0.017726 < 0.02
Simulation CPU 0 panic: IPC 0.0056152 < 0.01
Simulation CPU 0 panic: IPC 0.0047394 < 0.01
Simulation CPU 0 critical: IPC 0.012246 < 0.02
Simulation CPU 0 panic: IPC 0.0034884 < 0.01
Simulation CPU 0 critical: IPC 0.01797 < 0.02
Simulation CPU 0 critical: IPC 0.017419 < 0.02
Simulation CPU 0 panic: IPC 0.0060472 < 0.01
Simulation CPU 0 panic: IPC 0.0042402 < 0.01
Simulation CPU 0 critical: IPC 0.012113 < 0.02
Simulation CPU 0 warning: IPC 0.021958 < 0.05
Simulation CPU 0 critical: IPC 0.017102 < 0.02
Simulation CPU 0 panic: IPC 0.0064888 < 0.01
Simulation CPU 0 panic: IPC 0.003741 < 0.01
Simulation CPU 0 critical: IPC 0.011871 < 0.02
Simulation CPU 0 panic: IPC 0.004362 < 0.01
Simulation CPU 0 critical: IPC 0.018095 < 0.02
Simulation CPU 0 critical: IPC 0.016977 < 0.02
Simulation CPU 0 panic: IPC 0.0068632 < 0.01
Simulation CPU 0 panic: IPC 0.0032418 < 0.01
Simulation CPU 0 critical: IPC 0.011738 < 0.02
Simulation CPU 0 panic: IPC 0.0048612 < 0.01
Simulation CPU 0 critical: IPC 0.018095 < 0.02
Simulation CPU 0 critical: IPC 0.016727 < 0.02
Simulation CPU 0 panic: IPC 0.0099885 < 0.01
Simulation CPU 0 critical: IPC 0.011383 < 0.02
Simulation CPU 0 panic: IPC 0.005466 < 0.01
Simulation CPU 0 critical: IPC 0.018095 < 0.02
Simulation CPU 0 critical: IPC 0.016564 < 0.02
Simulation CPU 0 panic: IPC 0.0076504 < 0.01
Simulation CPU 0 panic: IPC 0.0023682 < 0.01
Simulation CPU 0 critical: IPC 0.011114 < 0.02
Simulation CPU 0 panic: IPC 0.0058596 < 0.01
Simulation CPU 0 critical: IPC 0.018219 < 0.02
Simulation CPU 0 critical: IPC 0.016228 < 0.02
Simulation CPU 0 panic: IPC 0.0079947 < 0.01
Simulation CPU 0 panic: IPC 0.001869 < 0.01
Simulation CPU 0 critical: IPC 0.010989 < 0.02
Simulation CPU 0 panic: IPC 0.0063588 < 0.01
Simulation CPU 0 warning: IPC 0.034323 < 0.05
Simulation CPU 0 panic: IPC 0.0084856 < 0.01
Simulation CPU 0 panic: IPC 0.0013698 < 0.01
Simulation CPU 0 critical: IPC 0.01074 < 0.02
Simulation CPU 0 panic: IPC 0.0068196 < 0.01
Simulation CPU 0 critical: IPC 0.018258 < 0.02
Simulation CPU 0 critical: IPC 0.015854 < 0.02
Simulation CPU 0 panic: IPC 0.0087435 < 0.01
Simulation CPU 0 panic: IPC 0.0009954 < 0.01
Simulation CPU 0 critical: IPC 0.01049 < 0.02
Simulation CPU 0 panic: IPC 0.0072324 < 0.01
Simulation CPU 0 critical: IPC 0.018469 < 0.02
Simulation CPU 0 critical: IPC 0.015585 < 0.02
Simulation CPU 0 panic: IPC 0.0092536 < 0.01
Simulation CPU 0 critical: IPC 0.010737 < 0.02
Simulation CPU 0 panic: IPC 0.0077316 < 0.01
Simulation CPU 0 critical: IPC 0.014725 < 0.02
Simulation CPU 0 panic: IPC 0.0036195 < 0.01
Simulation CPU 0 critical: IPC 0.015355 < 0.02
Simulation CPU 0 panic: IPC 0.0096141 < 0.01
Simulation CPU 0 critical: IPC 0.010116 < 0.02
Simulation CPU 0 panic: IPC 0.008106 < 0.01
Simulation CPU 0 critical: IPC 0.018594 < 0.02
Simulation CPU 0 critical: IPC 0.015105 < 0.02
Simulation CPU 0 panic: IPC 0.0096058 < 0.01
Simulation CPU 0 panic: IPC 0.0005022 < 0.01
Simulation CPU 0 panic: IPC 0.0093639 < 0.01
Simulation CPU 0 panic: IPC 0.0086052 < 0.01
Simulation CPU 0 warning: IPC 0.023801 < 0.05
Simulation CPU 0 critical: IPC 0.019137 < 0.02
Simulation CPU 0 panic: IPC 0.0008766 < 0.01
Simulation CPU 0 panic: IPC 0.0087399 < 0.01
Simulation CPU 0 panic: IPC 0.0091044 < 0.01
Simulation CPU 0 critical: IPC 0.018594 < 0.02
Heartbeat CPU 0 instructions: 160000026 cycles: 14866163431 heartbeat IPC: 0.01103 cumulative IPC: 0.01076 (Simulation time: 02 hr 17 min 01 sec)
Simulation CPU 0 critical: IPC 0.014731 < 0.02
Simulation CPU 0 panic: IPC 0.009481 < 0.01
Simulation CPU 0 panic: IPC 0.0013758 < 0.01
Simulation CPU 0 panic: IPC 0.0079911 < 0.01
Simulation CPU 0 panic: IPC 0.0094788 < 0.01
Simulation CPU 0 critical: IPC 0.018719 < 0.02
Simulation CPU 0 critical: IPC 0.014365 < 0.02
Simulation CPU 0 panic: IPC 0.0093562 < 0.01
Simulation CPU 0 panic: IPC 0.001875 < 0.01
Simulation CPU 0 critical: IPC 0.017345 < 0.02
Simulation CPU 0 critical: IPC 0.011214 < 0.02
Simulation CPU 0 panic: IPC 0.0075045 < 0.01
Simulation CPU 0 critical: IPC 0.014231 < 0.02
Simulation CPU 0 panic: IPC 0.0093562 < 0.01
Simulation CPU 0 panic: IPC 0.0023742 < 0.01
Simulation CPU 0 panic: IPC 0.0064935 < 0.01
Simulation CPU 0 critical: IPC 0.010477 < 0.02
Simulation CPU 0 critical: IPC 0.018843 < 0.02
Simulation CPU 0 critical: IPC 0.01399 < 0.02
Simulation CPU 0 panic: IPC 0.0092314 < 0.01
Simulation CPU 0 panic: IPC 0.0027486 < 0.01
Simulation CPU 0 panic: IPC 0.0058695 < 0.01
Simulation CPU 0 critical: IPC 0.010976 < 0.02
Simulation CPU 0 warning: IPC 0.032701 < 0.05
Simulation CPU 0 panic: IPC 0.0092314 < 0.01
Simulation CPU 0 panic: IPC 0.0032478 < 0.01
Simulation CPU 0 panic: IPC 0.0051207 < 0.01
Simulation CPU 0 critical: IPC 0.011476 < 0.02
Simulation CPU 0 critical: IPC 0.018843 < 0.02
Simulation CPU 0 critical: IPC 0.013491 < 0.02
Simulation CPU 0 panic: IPC 0.0091066 < 0.01
Simulation CPU 0 panic: IPC 0.003747 < 0.01
Simulation CPU 0 panic: IPC 0.0044967 < 0.01
Simulation CPU 0 critical: IPC 0.01185 < 0.02
Simulation CPU 0 critical: IPC 0.019093 < 0.02
Simulation CPU 0 critical: IPC 0.013233 < 0.02
Simulation CPU 0 panic: IPC 0.0091066 < 0.01
Simulation CPU 0 panic: IPC 0.0079941 < 0.01
Simulation CPU 0 critical: IPC 0.012349 < 0.02
Simulation CPU 0 panic: IPC 0.0075788 < 0.01
Simulation CPU 0 critical: IPC 0.011514 < 0.02
Simulation CPU 0 critical: IPC 0.012992 < 0.02
Simulation CPU 0 panic: IPC 0.0089818 < 0.01
Simulation CPU 0 panic: IPC 0.0046206 < 0.01
Simulation CPU 0 panic: IPC 0.0031239 < 0.01
Simulation CPU 0 critical: IPC 0.012724 < 0.02
Simulation CPU 0 critical: IPC 0.019218 < 0.02
Simulation CPU 0 critical: IPC 0.012859 < 0.02
Simulation CPU 0 panic: IPC 0.0089818 < 0.01
Simulation CPU 0 panic: IPC 0.0051198 < 0.01
Simulation CPU 0 panic: IPC 0.0023751 < 0.01
Simulation CPU 0 warning: IPC 0.021209 < 0.05
Simulation CPU 0 warning: IPC 0.023724 < 0.05
Simulation CPU 0 panic: IPC 0.008857 < 0.01
Simulation CPU 0 panic: IPC 0.005619 < 0.01
Simulation CPU 0 panic: IPC 0.0017511 < 0.01
Simulation CPU 0 critical: IPC 0.013722 < 0.02
Simulation CPU 0 critical: IPC 0.019218 < 0.02
Simulation CPU 0 critical: IPC 0.012359 < 0.02
Simulation CPU 0 panic: IPC 0.008857 < 0.01
Simulation CPU 0 panic: IPC 0.0061182 < 0.01
Simulation CPU 0 panic: IPC 0.0010023 < 0.01
Simulation CPU 0 critical: IPC 0.014096 < 0.02
Simulation CPU 0 critical: IPC 0.019351 < 0.02
Simulation CPU 0 critical: IPC 0.01211 < 0.02
Simulation CPU 0 panic: IPC 0.0087322 < 0.01
Simulation CPU 0 panic: IPC 0.0068709 < 0.01
Simulation CPU 0 critical: IPC 0.014596 < 0.02
Simulation CPU 0 critical: IPC 0.019467 < 0.02
Simulation CPU 0 critical: IPC 0.01186 < 0.02
Simulation CPU 0 panic: IPC 0.0087322 < 0.01
Simulation CPU 0 panic: IPC 0.0066021 < 0.01
Simulation CPU 0 panic: IPC 0.0003897 < 0.01
Simulation CPU 0 critical: IPC 0.014696 < 0.02
Simulation CPU 0 critical: IPC 0.01938 < 0.02
Simulation CPU 0 critical: IPC 0.011611 < 0.02
Simulation CPU 0 panic: IPC 0.0086074 < 0.01
Simulation CPU 0 panic: IPC 0.0063717 < 0.01
Simulation CPU 0 panic: IPC 0.0011193 < 0.01
Simulation CPU 0 critical: IPC 0.014475 < 0.02
Simulation CPU 0 warning: IPC 0.030953 < 0.05
Simulation CPU 0 panic: IPC 0.0086074 < 0.01
Simulation CPU 0 panic: IPC 0.0061221 < 0.01
Simulation CPU 0 panic: IPC 0.0018681 < 0.01
Simulation CPU 0 critical: IPC 0.014225 < 0.02
Simulation CPU 0 critical: IPC 0.019476 < 0.02
Simulation CPU 0 critical: IPC 0.011236 < 0.02
Simulation CPU 0 panic: IPC 0.0084826 < 0.01
Simulation CPU 0 panic: IPC 0.0058725 < 0.01
Simulation CPU 0 panic: IPC 0.0024921 < 0.01
Simulation CPU 0 critical: IPC 0.013976 < 0.02
Simulation CPU 0 critical: IPC 0.019717 < 0.02
Simulation CPU 0 critical: IPC 0.010987 < 0.02
Simulation CPU 0 panic: IPC 0.0084826 < 0.01
Heartbeat CPU 0 instructions: 170000028 cycles: 15809960439 heartbeat IPC: 0.0106 cumulative IPC: 0.01075 (Simulation time: 03 hr 55 min 59 sec)
Simulation CPU 0 panic: IPC 0.0087966 < 0.01
Simulation CPU 0 critical: IPC 0.013793 < 0.02
Simulation CPU 0 critical: IPC 0.019725 < 0.02
Simulation CPU 0 critical: IPC 0.010612 < 0.02
Simulation CPU 0 panic: IPC 0.0083578 < 0.01
Simulation CPU 0 panic: IPC 0.0010553 < 0.01
Simulation CPU 0 panic: IPC 0.0044428 < 0.01
Simulation CPU 0 panic: IPC 0.0038649 < 0.01
Simulation CPU 0 critical: IPC 0.013601 < 0.02
Simulation CPU 0 critical: IPC 0.019717 < 0.02
Simulation CPU 0 critical: IPC 0.010487 < 0.02
Simulation CPU 0 panic: IPC 0.0083578 < 0.01
Simulation CPU 0 panic: IPC 0.0052485 < 0.01
Simulation CPU 0 panic: IPC 0.0044889 < 0.01
Simulation CPU 0 critical: IPC 0.013352 < 0.02
Simulation CPU 0 warning: IPC 0.030088 < 0.05
Simulation CPU 0 panic: IPC 0.008233 < 0.01
Simulation CPU 0 panic: IPC 0.0049989 < 0.01
Simulation CPU 0 panic: IPC 0.0052377 < 0.01
Simulation CPU 0 critical: IPC 0.013102 < 0.02
Simulation CPU 0 critical: IPC 0.019842 < 0.02
Simulation CPU 0 critical: IPC 0.010113 < 0.02
Simulation CPU 0 panic: IPC 0.008233 < 0.01
Simulation CPU 0 panic: IPC 0.0047493 < 0.01
Simulation CPU 0 panic: IPC 0.0058617 < 0.01
Simulation CPU 0 critical: IPC 0.012736 < 0.02
Simulation CPU 0 warning: IPC 0.020092 < 0.05
Simulation CPU 0 panic: IPC 0.0097386 < 0.01
Simulation CPU 0 panic: IPC 0.0081082 < 0.01
Simulation CPU 0 critical: IPC 0.011235 < 0.02
Simulation CPU 0 critical: IPC 0.012603 < 0.02
Simulation CPU 0 warning: IPC 0.020092 < 0.05
Simulation CPU 0 panic: IPC 0.009489 < 0.01
Simulation CPU 0 panic: IPC 0.0066513 < 0.01
Simulation CPU 0 panic: IPC 0.0014569 < 0.01
Simulation CPU 0 panic: IPC 0.0043749 < 0.01
Simulation CPU 0 panic: IPC 0.0072345 < 0.01
Simulation CPU 0 critical: IPC 0.012361 < 0.02
Simulation CPU 0 warning: IPC 0.020092 < 0.05
Simulation CPU 0 panic: IPC 0.0093642 < 0.01
Simulation CPU 0 panic: IPC 0.0079834 < 0.01
Simulation CPU 0 panic: IPC 0.0040293 < 0.01
Simulation CPU 0 panic: IPC 0.0080793 < 0.01
Simulation CPU 0 warning: IPC 0.03232 < 0.05
Simulation CPU 0 panic: IPC 0.0091146 < 0.01
Simulation CPU 0 panic: IPC 0.0079834 < 0.01
Simulation CPU 0 panic: IPC 0.0037509 < 0.01
Simulation CPU 0 panic: IPC 0.0087321 < 0.01
Simulation CPU 0 critical: IPC 0.011862 < 0.02
Simulation CPU 0 warning: IPC 0.020341 < 0.05
Simulation CPU 0 panic: IPC 0.0087402 < 0.01
Simulation CPU 0 panic: IPC 0.0078586 < 0.01
Simulation CPU 0 panic: IPC 0.0036261 < 0.01
Simulation CPU 0 panic: IPC 0.0094809 < 0.01
Simulation CPU 0 critical: IPC 0.011604 < 0.02
Simulation CPU 0 warning: IPC 0.020341 < 0.05
Simulation CPU 0 panic: IPC 0.0086154 < 0.01
Simulation CPU 0 panic: IPC 0.0078586 < 0.01
Simulation CPU 0 critical: IPC 0.013481 < 0.02
Simulation CPU 0 critical: IPC 0.011363 < 0.02
Simulation CPU 0 warning: IPC 0.020466 < 0.05
Simulation CPU 0 panic: IPC 0.0083658 < 0.01
Simulation CPU 0 panic: IPC 0.0038895 < 0.01
Simulation CPU 0 panic: IPC 0.0038443 < 0.01
Simulation CPU 0 panic: IPC 0.0031269 < 0.01
Simulation CPU 0 critical: IPC 0.010854 < 0.02
Simulation CPU 0 critical: IPC 0.01123 < 0.02
Simulation CPU 0 warning: IPC 0.020341 < 0.05
Simulation CPU 0 panic: IPC 0.008241 < 0.01
Simulation CPU 0 panic: IPC 0.0077338 < 0.01
Simulation CPU 0 panic: IPC 0.0028773 < 0.01
Simulation CPU 0 critical: IPC 0.011361 < 0.02
Simulation CPU 0 warning: IPC 0.031571 < 0.05
Simulation CPU 0 panic: IPC 0.0078666 < 0.01
Simulation CPU 0 panic: IPC 0.007609 < 0.01
Simulation CPU 0 panic: IPC 0.0027525 < 0.01
Simulation CPU 0 critical: IPC 0.012226 < 0.02
Simulation CPU 0 critical: IPC 0.010731 < 0.02
Simulation CPU 0 warning: IPC 0.020591 < 0.05
Simulation CPU 0 panic: IPC 0.007617 < 0.01
Simulation CPU 0 panic: IPC 0.007609 < 0.01
Simulation CPU 0 panic: IPC 0.0025029 < 0.01
Simulation CPU 0 critical: IPC 0.012734 < 0.02
Simulation CPU 0 critical: IPC 0.010587 < 0.02
Simulation CPU 0 warning: IPC 0.02061 < 0.05
Simulation CPU 0 panic: IPC 0.0074922 < 0.01
Simulation CPU 0 panic: IPC 0.0097375 < 0.01
Simulation CPU 0 critical: IPC 0.013599 < 0.02
Simulation CPU 0 critical: IPC 0.010231 < 0.02
Simulation CPU 0 warning: IPC 0.020716 < 0.05
Simulation CPU 0 panic: IPC 0.0072426 < 0.01
Simulation CPU 0 panic: IPC 0.0074842 < 0.01
Simulation CPU 0 panic: IPC 0.0020037 < 0.01
Simulation CPU 0 critical: IPC 0.014107 < 0.02
Heartbeat CPU 0 instructions: 180000032 cycles: 16744548199 heartbeat IPC: 0.0107 cumulative IPC: 0.01075 (Simulation time: 05 hr 38 min 09 sec)
Simulation CPU 0 critical: IPC 0.010107 < 0.02
Simulation CPU 0 warning: IPC 0.020716 < 0.05
Simulation CPU 0 panic: IPC 0.006993 < 0.01
Simulation CPU 0 panic: IPC 0.0073594 < 0.01
Simulation CPU 0 panic: IPC 0.0018789 < 0.01
Simulation CPU 0 critical: IPC 0.014972 < 0.02
Simulation CPU 0 critical: IPC 0.018278 < 0.02
Simulation CPU 0 critical: IPC 0.019038 < 0.02
Simulation CPU 0 panic: IPC 0.0073594 < 0.01
[...]
Simulation CPU 0 critical: IPC 0.017983 < 0.02
Simulation CPU 0 panic: IPC 0.008479 < 0.01
Simulation CPU 0 panic: IPC 0.0046834 < 0.01
Simulation CPU 0 warning: IPC 0.025834 < 0.05
Simulation CPU 0 panic: IPC 0.0055712 < 0.01
Simulation CPU 0 critical: IPC 0.017477 < 0.02
Simulation CPU 0 panic: IPC 0.0088588 < 0.01
Simulation CPU 0 panic: IPC 0.0049366 < 0.01
Simulation CPU 0 warning: IPC 0.02557 < 0.05
Simulation CPU 0 panic: IPC 0.0037976 < 0.01
Simulation CPU 0 panic: IPC 0.0019002 < 0.01
Simulation CPU 0 panic: IPC 0.0033153 < 0.01
Simulation CPU 0 critical: IPC 0.013782 < 0.02
Simulation CPU 0 panic: IPC 0.0089854 < 0.01
Simulation CPU 0 panic: IPC 0.0055696 < 0.01
Simulation CPU 0 warning: IPC 0.024948 < 0.05
Simulation CPU 0 panic: IPC 0.0041774 < 0.01
Simulation CPU 0 panic: IPC 0.0017736 < 0.01
Simulation CPU 0 warning: IPC 0.025956 < 0.05
Simulation CPU 0 panic: IPC 0.0058228 < 0.01
Simulation CPU 0 warning: IPC 0.024557 < 0.05
Simulation CPU 0 panic: IPC 0.0044306 < 0.01
Simulation CPU 0 panic: IPC 0.0019002 < 0.01
Simulation CPU 0 critical: IPC 0.016084 < 0.02
Simulation CPU 0 panic: IPC 0.0096184 < 0.01
Simulation CPU 0 panic: IPC 0.0062137 < 0.01
Heartbeat CPU 0 instructions: 290000054 cycles: 27274615287 heartbeat IPC: 0.02004 cumulative IPC: 0.01063 (Simulation time: 00 hr 52 min 42 sec)
Simulation CPU 0 warning: IPC 0.024051 < 0.05
Simulation CPU 0 panic: IPC 0.0048104 < 0.01
Simulation CPU 0 panic: IPC 0.001647 < 0.01
Simulation CPU 0 critical: IPC 0.015705 < 0.02
Simulation CPU 0 panic: IPC 0.0099982 < 0.01
Simulation CPU 0 panic: IPC 0.0065824 < 0.01
Simulation CPU 0 warning: IPC 0.023671 < 0.05
Simulation CPU 0 panic: IPC 0.0067106 < 0.01
Simulation CPU 0 critical: IPC 0.015198 < 0.02
Simulation CPU 0 critical: IPC 0.010134 < 0.02
Simulation CPU 0 panic: IPC 0.0070903 < 0.01
Simulation CPU 0 warning: IPC 0.023165 < 0.05
Simulation CPU 0 panic: IPC 0.0053168 < 0.01
Simulation CPU 0 panic: IPC 0.0015204 < 0.01
Simulation CPU 0 critical: IPC 0.014818 < 0.02
Simulation CPU 0 critical: IPC 0.010505 < 0.02
Simulation CPU 0 panic: IPC 0.0074686 < 0.01
Simulation CPU 0 warning: IPC 0.022658 < 0.05
Simulation CPU 0 panic: IPC 0.0056966 < 0.01
Simulation CPU 0 panic: IPC 0.0015204 < 0.01
Simulation CPU 0 critical: IPC 0.014185 < 0.02
Simulation CPU 0 critical: IPC 0.018744 < 0.02
Simulation CPU 0 warning: IPC 0.022152 < 0.05
Simulation CPU 0 panic: IPC 0.0059498 < 0.01
Simulation CPU 0 panic: IPC 0.0015204 < 0.01
Simulation CPU 0 critical: IPC 0.013679 < 0.02
Simulation CPU 0 critical: IPC 0.011264 < 0.02
Simulation CPU 0 panic: IPC 0.0082282 < 0.01
Simulation CPU 0 warning: IPC 0.021772 < 0.05
Simulation CPU 0 panic: IPC 0.006203 < 0.01
Simulation CPU 0 panic: IPC 0.0013938 < 0.01
Simulation CPU 0 critical: IPC 0.013299 < 0.02
Simulation CPU 0 critical: IPC 0.011431 < 0.02
Simulation CPU 0 panic: IPC 0.0086752 < 0.01
Simulation CPU 0 warning: IPC 0.020429 < 0.05
Simulation CPU 0 panic: IPC 0.0064004 < 0.01
Simulation CPU 0 panic: IPC 0.0023172 < 0.01
Simulation CPU 0 critical: IPC 0.012793 < 0.02
Simulation CPU 0 critical: IPC 0.011771 < 0.02
Simulation CPU 0 panic: IPC 0.0091144 < 0.01
Simulation CPU 0 warning: IPC 0.020759 < 0.05
Simulation CPU 0 panic: IPC 0.006836 < 0.01
Simulation CPU 0 panic: IPC 0.0013152 < 0.01
Simulation CPU 0 critical: IPC 0.012365 < 0.02
Simulation CPU 0 critical: IPC 0.012035 < 0.02
Simulation CPU 0 panic: IPC 0.0093868 < 0.01
Simulation CPU 0 warning: IPC 0.02036 < 0.05
Simulation CPU 0 panic: IPC 0.0072158 < 0.01
Simulation CPU 0 panic: IPC 0.0011406 < 0.01
Simulation CPU 0 critical: IPC 0.011907 < 0.02
Simulation CPU 0 warning: IPC 0.022278 < 0.05
Simulation CPU 0 critical: IPC 0.019873 < 0.02
Simulation CPU 0 panic: IPC 0.0073424 < 0.01
Simulation CPU 0 panic: IPC 0.0012672 < 0.01
Simulation CPU 0 critical: IPC 0.0114 < 0.02
Simulation CPU 0 critical: IPC 0.012589 < 0.02
Simulation CPU 0 critical: IPC 0.010206 < 0.02
Simulation CPU 0 critical: IPC 0.019493 < 0.02
Simulation CPU 0 panic: IPC 0.0077222 < 0.01
Simulation CPU 0 panic: IPC 0.001014 < 0.01
Simulation CPU 0 critical: IPC 0.01102 < 0.02
Simulation CPU 0 critical: IPC 0.01291 < 0.02
Simulation CPU 0 critical: IPC 0.01076 < 0.02
Simulation CPU 0 critical: IPC 0.01886 < 0.02
Simulation CPU 0 panic: IPC 0.009116 < 0.01
Simulation CPU 0 critical: IPC 0.010514 < 0.02
Simulation CPU 0 critical: IPC 0.013174 < 0.02
Simulation CPU 0 critical: IPC 0.011013 < 0.02
Simulation CPU 0 critical: IPC 0.018481 < 0.02
Simulation CPU 0 panic: IPC 0.0083552 < 0.01
Simulation CPU 0 panic: IPC 0.001014 < 0.01
Simulation CPU 0 critical: IPC 0.010008 < 0.02
Simulation CPU 0 critical: IPC 0.013543 < 0.02
Simulation CPU 0 panic: IPC 0.008285 < 0.01
Simulation CPU 0 panic: IPC 0.0032348 < 0.01
Simulation CPU 0 critical: IPC 0.017974 < 0.02
Simulation CPU 0 panic: IPC 0.0094958 < 0.01
Simulation CPU 0 panic: IPC 0.0096278 < 0.01
Simulation CPU 0 critical: IPC 0.013748 < 0.02
Simulation CPU 0 warning: IPC 0.029427 < 0.05
Simulation CPU 0 panic: IPC 0.009749 < 0.01
Simulation CPU 0 panic: IPC 0.0089948 < 0.01
Simulation CPU 0 critical: IPC 0.014176 < 0.02
Simulation CPU 0 critical: IPC 0.012406 < 0.02
Simulation CPU 0 warning: IPC 0.035463 < 0.05
Simulation CPU 0 critical: IPC 0.014556 < 0.02
Simulation CPU 0 critical: IPC 0.012659 < 0.02
Heartbeat CPU 0 instructions: 300000058 cycles: 28145108203 heartbeat IPC: 0.01149 cumulative IPC: 0.01066 (Simulation time: 02 hr 27 min 58 sec)
Simulation CPU 0 warning: IPC 0.034946 < 0.05
Simulation CPU 0 critical: IPC 0.014809 < 0.02
Simulation CPU 0 critical: IPC 0.013166 < 0.02
Simulation CPU 0 warning: IPC 0.03407 < 0.05
Simulation CPU 0 critical: IPC 0.015149 < 0.02
Simulation CPU 0 critical: IPC 0.013459 < 0.02
Simulation CPU 0 warning: IPC 0.033553 < 0.05
Simulation CPU 0 critical: IPC 0.015315 < 0.02
Simulation CPU 0 critical: IPC 0.014052 < 0.02
Simulation CPU 0 warning: IPC 0.035937 < 0.05
Simulation CPU 0 critical: IPC 0.012436 < 0.02
Simulation CPU 0 critical: IPC 0.014305 < 0.02
Simulation CPU 0 warning: IPC 0.03216 < 0.05
Simulation CPU 0 critical: IPC 0.015948 < 0.02
Simulation CPU 0 critical: IPC 0.014811 < 0.02
Simulation CPU 0 warning: IPC 0.031285 < 0.05
Simulation CPU 0 critical: IPC 0.016307 < 0.02
Simulation CPU 0 critical: IPC 0.015086 < 0.02
Simulation CPU 0 warning: IPC 0.030768 < 0.05
Simulation CPU 0 critical: IPC 0.016455 < 0.02
Simulation CPU 0 critical: IPC 0.015698 < 0.02
Simulation CPU 0 warning: IPC 0.029893 < 0.05
Simulation CPU 0 critical: IPC 0.016835 < 0.02
Simulation CPU 0 critical: IPC 0.015951 < 0.02
Simulation CPU 0 warning: IPC 0.029325 < 0.05
Simulation CPU 0 critical: IPC 0.017138 < 0.02
Simulation CPU 0 warning: IPC 0.020144 < 0.05
Simulation CPU 0 warning: IPC 0.042281 < 0.05
Simulation CPU 0 critical: IPC 0.01671 < 0.02
Simulation CPU 0 warning: IPC 0.027856 < 0.05
Simulation CPU 0 critical: IPC 0.017721 < 0.02
Simulation CPU 0 critical: IPC 0.017343 < 0.02
Simulation CPU 0 warning: IPC 0.026981 < 0.05
Simulation CPU 0 critical: IPC 0.018101 < 0.02
Simulation CPU 0 critical: IPC 0.017597 < 0.02
Simulation CPU 0 warning: IPC 0.021868 < 0.05
Simulation CPU 0 panic: IPC 0.0045958 < 0.01
Simulation CPU 0 critical: IPC 0.018354 < 0.02
Simulation CPU 0 critical: IPC 0.018103 < 0.02
Simulation CPU 0 warning: IPC 0.025588 < 0.05
Simulation CPU 0 critical: IPC 0.018734 < 0.02
Simulation CPU 0 critical: IPC 0.018356 < 0.02
Simulation CPU 0 warning: IPC 0.025071 < 0.05
Simulation CPU 0 critical: IPC 0.01886 < 0.02
Simulation CPU 0 warning: IPC 0.03876 < 0.05
Simulation CPU 0 warning: IPC 0.023665 < 0.05
Simulation CPU 0 critical: IPC 0.019242 < 0.02
Heartbeat CPU 0 instructions: 310000059 cycles: 28618330824 heartbeat IPC: 0.02113 cumulative IPC: 0.01083 (Simulation time: 03 hr 19 min 42 sec)
Simulation CPU 0 warning: IPC 0.023678 < 0.05
Simulation CPU 0 critical: IPC 0.019493 < 0.02
Simulation CPU 0 critical: IPC 0.019749 < 0.02
Simulation CPU 0 warning: IPC 0.022803 < 0.05
Simulation CPU 0 critical: IPC 0.019873 < 0.02
Simulation CPU 0 warning: IPC 0.020002 < 0.05
Simulation CPU 0 warning: IPC 0.022286 < 0.05
Simulation CPU 0 critical: IPC 0.02 < 0.02
Simulation CPU 0 critical: IPC 0.018754 < 0.02
Simulation CPU 0 panic: IPC 0.0017651 < 0.01
Simulation CPU 0 warning: IPC 0.021399 < 0.05
Simulation CPU 0 warning: IPC 0.020506 < 0.05
Simulation CPU 0 warning: IPC 0.020888 < 0.05
Simulation CPU 0 warning: IPC 0.020766 < 0.05
Simulation CPU 0 warning: IPC 0.020759 < 0.05
Simulation CPU 0 warning: IPC 0.041286 < 0.05
Simulation CPU 0 warning: IPC 0.021139 < 0.05
Simulation CPU 0 warning: IPC 0.021648 < 0.05
Simulation CPU 0 critical: IPC 0.019374 < 0.02
Simulation CPU 0 warning: IPC 0.021266 < 0.05
Simulation CPU 0 warning: IPC 0.022135 < 0.05
Simulation CPU 0 critical: IPC 0.018645 < 0.02
Simulation CPU 0 warning: IPC 0.021645 < 0.05
Simulation CPU 0 warning: IPC 0.022534 < 0.05
Simulation CPU 0 critical: IPC 0.017981 < 0.02
Simulation CPU 0 warning: IPC 0.021899 < 0.05
Simulation CPU 0 warning: IPC 0.022818 < 0.05
Simulation CPU 0 critical: IPC 0.017329 < 0.02
Simulation CPU 0 warning: IPC 0.020185 < 0.05
Simulation CPU 0 panic: IPC 0.0020931 < 0.01
Simulation CPU 0 warning: IPC 0.023294 < 0.05
Simulation CPU 0 critical: IPC 0.016589 < 0.02
Simulation CPU 0 warning: IPC 0.037266 < 0.05
Simulation CPU 0 warning: IPC 0.02478 < 0.05
Simulation CPU 0 warning: IPC 0.022785 < 0.05
Simulation CPU 0 warning: IPC 0.02418 < 0.05
Simulation CPU 0 critical: IPC 0.015196 < 0.02
Simulation CPU 0 warning: IPC 0.023038 < 0.05
Simulation CPU 0 warning: IPC 0.024444 < 0.05
Simulation CPU 0 critical: IPC 0.014563 < 0.02
Simulation CPU 0 warning: IPC 0.023418 < 0.05
Simulation CPU 0 warning: IPC 0.024939 < 0.05
Simulation CPU 0 critical: IPC 0.013677 < 0.02
Simulation CPU 0 warning: IPC 0.023671 < 0.05
Simulation CPU 0 warning: IPC 0.02533 < 0.05
Simulation CPU 0 critical: IPC 0.013044 < 0.02
Simulation CPU 0 warning: IPC 0.024051 < 0.05
Simulation CPU 0 warning: IPC 0.025826 < 0.05
Heartbeat CPU 0 instructions: 320000059 cycles: 29091537330 heartbeat IPC: 0.02113 cumulative IPC: 0.011 (Simulation time: 04 hr 10 min 54 sec)
Simulation CPU 0 critical: IPC 0.012284 < 0.02
Simulation CPU 0 warning: IPC 0.024315 < 0.05
Simulation CPU 0 warning: IPC 0.036173 < 0.05
Simulation CPU 0 warning: IPC 0.026241 < 0.05
Simulation CPU 0 warning: IPC 0.026585 < 0.05
Simulation CPU 0 critical: IPC 0.010892 < 0.02
Simulation CPU 0 critical: IPC 0.01233 < 0.02
Simulation CPU 0 critical: IPC 0.012491 < 0.02
Simulation CPU 0 warning: IPC 0.026965 < 0.05
Simulation CPU 0 critical: IPC 0.010259 < 0.02
Simulation CPU 0 warning: IPC 0.02519 < 0.05
Simulation CPU 0 warning: IPC 0.027471 < 0.05
Simulation CPU 0 panic: IPC 0.009499 < 0.01
Simulation CPU 0 warning: IPC 0.025455 < 0.05
Simulation CPU 0 warning: IPC 0.027725 < 0.05
Simulation CPU 0 panic: IPC 0.008866 < 0.01
Simulation CPU 0 warning: IPC 0.025823 < 0.05
Simulation CPU 0 warning: IPC 0.028231 < 0.05
Simulation CPU 0 panic: IPC 0.0081064 < 0.01
Simulation CPU 0 warning: IPC 0.025961 < 0.05
Simulation CPU 0 warning: IPC 0.036084 < 0.05
Simulation CPU 0 warning: IPC 0.02633 < 0.05
Simulation CPU 0 warning: IPC 0.029117 < 0.05
Simulation CPU 0 panic: IPC 0.0066736 < 0.01
Simulation CPU 0 warning: IPC 0.026634 < 0.05
Simulation CPU 0 warning: IPC 0.029086 < 0.05
Simulation CPU 0 panic: IPC 0.0062388 < 0.01
Simulation CPU 0 warning: IPC 0.027089 < 0.05
Simulation CPU 0 warning: IPC 0.035071 < 0.05
Heartbeat CPU 0 instructions: 330000061 cycles: 29398430123 heartbeat IPC: 0.03258 cumulative IPC: 0.01123 (Simulation time: 04 hr 43 min 41 sec)
Heartbeat CPU 0 instructions: 340000061 cycles: 29428329058 heartbeat IPC: 0.3345 cumulative IPC: 0.01155 (Simulation time: 04 hr 47 min 33 sec)
Heartbeat CPU 0 instructions: 350000061 cycles: 29458052010 heartbeat IPC: 0.3364 cumulative IPC: 0.01188 (Simulation time: 04 hr 50 min 44 sec)
Heartbeat CPU 0 instructions: 360000061 cycles: 29487791311 heartbeat IPC: 0.3363 cumulative IPC: 0.01221 (Simulation time: 04 hr 54 min 32 sec)
Heartbeat CPU 0 instructions: 370000062 cycles: 29517637641 heartbeat IPC: 0.335 cumulative IPC: 0.01253 (Simulation time: 04 hr 57 min 19 sec)
Heartbeat CPU 0 instructions: 380000063 cycles: 29547381512 heartbeat IPC: 0.3362 cumulative IPC: 0.01286 (Simulation time: 05 hr 01 min 05 sec)
Heartbeat CPU 0 instructions: 390000064 cycles: 29577095535 heartbeat IPC: 0.3365 cumulative IPC: 0.01319 (Simulation time: 05 hr 04 min 45 sec)
Heartbeat CPU 0 instructions: 400000068 cycles: 29616152051 heartbeat IPC: 0.256 cumulative IPC: 0.01351 (Simulation time: 05 hr 09 min 34 sec)
Heartbeat CPU 0 instructions: 410000068 cycles: 29645940567 heartbeat IPC: 0.3357 cumulative IPC: 0.01383 (Simulation time: 05 hr 13 min 06 sec)
Heartbeat CPU 0 instructions: 420000070 cycles: 29675781722 heartbeat IPC: 0.3351 cumulative IPC: 0.01415 (Simulation time: 05 hr 16 min 54 sec)
Heartbeat CPU 0 instructions: 430000072 cycles: 29705511764 heartbeat IPC: 0.3364 cumulative IPC: 0.01448 (Simulation time: 05 hr 20 min 00 sec)
Heartbeat CPU 0 instructions: 440000072 cycles: 29735223296 heartbeat IPC: 0.3366 cumulative IPC: 0.0148 (Simulation time: 05 hr 23 min 39 sec)
Heartbeat CPU 0 instructions: 450000074 cycles: 29765119849 heartbeat IPC: 0.3345 cumulative IPC: 0.01512 (Simulation time: 05 hr 27 min 11 sec)
Heartbeat CPU 0 instructions: 460000077 cycles: 29804071430 heartbeat IPC: 0.2567 cumulative IPC: 0.01543 (Simulation time: 05 hr 31 min 45 sec)
Heartbeat CPU 0 instructions: 470000079 cycles: 29833797459 heartbeat IPC: 0.3364 cumulative IPC: 0.01575 (Simulation time: 05 hr 35 min 23 sec)
Heartbeat CPU 0 instructions: 480000079 cycles: 29863522464 heartbeat IPC: 0.3364 cumulative IPC: 0.01607 (Simulation time: 05 hr 39 min 02 sec)
Heartbeat CPU 0 instructions: 490000081 cycles: 29893254379 heartbeat IPC: 0.3363 cumulative IPC: 0.01639 (Simulation time: 05 hr 42 min 50 sec)
Heartbeat CPU 0 instructions: 500000084 cycles: 29922981340 heartbeat IPC: 0.3364 cumulative IPC: 0.01671 (Simulation time: 05 hr 46 min 29 sec)
Heartbeat CPU 0 instructions: 510000084 cycles: 29961951132 heartbeat IPC: 0.2566 cumulative IPC: 0.01702 (Simulation time: 05 hr 51 min 07 sec)
Heartbeat CPU 0 instructions: 520000086 cycles: 29991684635 heartbeat IPC: 0.3363 cumulative IPC: 0.01734 (Simulation time: 05 hr 54 min 47 sec)
Heartbeat CPU 0 instructions: 530000087 cycles: 30021413754 heartbeat IPC: 0.3364 cumulative IPC: 0.01765 (Simulation time: 05 hr 58 min 34 sec)
Heartbeat CPU 0 instructions: 540000088 cycles: 30051135299 heartbeat IPC: 0.3365 cumulative IPC: 0.01797 (Simulation time: 06 hr 02 min 11 sec)
Heartbeat CPU 0 instructions: 550000090 cycles: 30080980788 heartbeat IPC: 0.3351 cumulative IPC: 0.01828 (Simulation time: 06 hr 06 min 01 sec)
Heartbeat CPU 0 instructions: 560000091 cycles: 30110727858 heartbeat IPC: 0.3362 cumulative IPC: 0.0186 (Simulation time: 06 hr 09 min 30 sec)
Heartbeat CPU 0 instructions: 570000091 cycles: 30140486207 heartbeat IPC: 0.336 cumulative IPC: 0.01891 (Simulation time: 06 hr 13 min 16 sec)
Heartbeat CPU 0 instructions: 580000091 cycles: 30179465344 heartbeat IPC: 0.2565 cumulative IPC: 0.01922 (Simulation time: 06 hr 17 min 54 sec)
Heartbeat CPU 0 instructions: 590000092 cycles: 30209211354 heartbeat IPC: 0.3362 cumulative IPC: 0.01953 (Simulation time: 06 hr 21 min 42 sec)
Heartbeat CPU 0 instructions: 600000092 cycles: 30238960250 heartbeat IPC: 0.3361 cumulative IPC: 0.01984 (Simulation time: 06 hr 25 min 08 sec)
Heartbeat CPU 0 instructions: 610000092 cycles: 30268748080 heartbeat IPC: 0.3357 cumulative IPC: 0.02015 (Simulation time: 06 hr 28 min 45 sec)
Heartbeat CPU 0 instructions: 620000092 cycles: 30307833828 heartbeat IPC: 0.2558 cumulative IPC: 0.02046 (Simulation time: 06 hr 33 min 26 sec)
Heartbeat CPU 0 instructions: 630000096 cycles: 30337680874 heartbeat IPC: 0.335 cumulative IPC: 0.02077 (Simulation time: 06 hr 37 min 15 sec)
Heartbeat CPU 0 instructions: 640000096 cycles: 30376754106 heartbeat IPC: 0.2559 cumulative IPC: 0.02107 (Simulation time: 06 hr 41 min 56 sec)
Heartbeat CPU 0 instructions: 650000096 cycles: 30406605272 heartbeat IPC: 0.335 cumulative IPC: 0.02138 (Simulation time: 06 hr 45 min 46 sec)
Heartbeat CPU 0 instructions: 660000097 cycles: 30445667532 heartbeat IPC: 0.256 cumulative IPC: 0.02168 (Simulation time: 06 hr 50 min 36 sec)
Heartbeat CPU 0 instructions: 670000097 cycles: 30475511487 heartbeat IPC: 0.3351 cumulative IPC: 0.02198 (Simulation time: 06 hr 54 min 15 sec)
Heartbeat CPU 0 instructions: 680000098 cycles: 30487018379 heartbeat IPC: 0.869 cumulative IPC: 0.0223 (Simulation time: 06 hr 56 min 04 sec)
Heartbeat CPU 0 instructions: 690000098 cycles: 30517261079 heartbeat IPC: 0.3307 cumulative IPC: 0.02261 (Simulation time: 06 hr 59 min 48 sec)
Heartbeat CPU 0 instructions: 700000099 cycles: 30546832525 heartbeat IPC: 0.3382 cumulative IPC: 0.02292 (Simulation time: 07 hr 03 min 35 sec)
Heartbeat CPU 0 instructions: 710000099 cycles: 30576552634 heartbeat IPC: 0.3365 cumulative IPC: 0.02322 (Simulation time: 07 hr 07 min 20 sec)
Heartbeat CPU 0 instructions: 720000101 cycles: 30606141573 heartbeat IPC: 0.338 cumulative IPC: 0.02352 (Simulation time: 07 hr 11 min 09 sec)
Heartbeat CPU 0 instructions: 730000101 cycles: 30635746056 heartbeat IPC: 0.3378 cumulative IPC: 0.02383 (Simulation time: 07 hr 14 min 56 sec)
Heartbeat CPU 0 instructions: 740000103 cycles: 30665476216 heartbeat IPC: 0.3364 cumulative IPC: 0.02413 (Simulation time: 07 hr 18 min 44 sec)
Heartbeat CPU 0 instructions: 750000103 cycles: 30695077348 heartbeat IPC: 0.3378 cumulative IPC: 0.02443 (Simulation time: 07 hr 21 min 48 sec)
Heartbeat CPU 0 instructions: 760000107 cycles: 30715537039 heartbeat IPC: 0.4888 cumulative IPC: 0.02474 (Simulation time: 07 hr 24 min 27 sec)
Heartbeat CPU 0 instructions: 770000111 cycles: 30736005070 heartbeat IPC: 0.4886 cumulative IPC: 0.02505 (Simulation time: 07 hr 27 min 07 sec)
Heartbeat CPU 0 instructions: 780000115 cycles: 30767014933 heartbeat IPC: 0.3225 cumulative IPC: 0.02535 (Simulation time: 07 hr 31 min 06 sec)
Heartbeat CPU 0 instructions: 790000118 cycles: 30807292516 heartbeat IPC: 0.2483 cumulative IPC: 0.02564 (Simulation time: 07 hr 36 min 06 sec)
Heartbeat CPU 0 instructions: 800000122 cycles: 30838104381 heartbeat IPC: 0.3246 cumulative IPC: 0.02594 (Simulation time: 07 hr 39 min 23 sec)
Heartbeat CPU 0 instructions: 810000126 cycles: 30878154152 heartbeat IPC: 0.2497 cumulative IPC: 0.02623 (Simulation time: 07 hr 43 min 12 sec)
Heartbeat CPU 0 instructions: 820000126 cycles: 30908522122 heartbeat IPC: 0.3293 cumulative IPC: 0.02653 (Simulation time: 07 hr 46 min 34 sec)
Heartbeat CPU 0 instructions: 830000130 cycles: 30948058043 heartbeat IPC: 0.2529 cumulative IPC: 0.02682 (Simulation time: 07 hr 51 min 25 sec)
Heartbeat CPU 0 instructions: 840000132 cycles: 30978391516 heartbeat IPC: 0.3297 cumulative IPC: 0.02712 (Simulation time: 07 hr 55 min 21 sec)
Heartbeat CPU 0 instructions: 850000133 cycles: 31009031161 heartbeat IPC: 0.3264 cumulative IPC: 0.02741 (Simulation time: 07 hr 58 min 32 sec)
Heartbeat CPU 0 instructions: 860000134 cycles: 31048969324 heartbeat IPC: 0.2504 cumulative IPC: 0.0277 (Simulation time: 08 hr 02 min 33 sec)
Heartbeat CPU 0 instructions: 870000135 cycles: 31079799262 heartbeat IPC: 0.3244 cumulative IPC: 0.02799 (Simulation time: 08 hr 05 min 35 sec)
Heartbeat CPU 0 instructions: 880000136 cycles: 31119855586 heartbeat IPC: 0.2496 cumulative IPC: 0.02828 (Simulation time: 08 hr 09 min 12 sec)
Heartbeat CPU 0 instructions: 890000138 cycles: 31150671892 heartbeat IPC: 0.3245 cumulative IPC: 0.02857 (Simulation time: 08 hr 12 min 12 sec)
Heartbeat CPU 0 instructions: 900000138 cycles: 31181341617 heartbeat IPC: 0.3261 cumulative IPC: 0.02886 (Simulation time: 08 hr 15 min 40 sec)
Heartbeat CPU 0 instructions: 910000141 cycles: 31220993920 heartbeat IPC: 0.2522 cumulative IPC: 0.02915 (Simulat