
*** ChampSim Multicore Out-of-Order Simulator ***
Warmup Instructions: 0
Simulation Instructions: 9223372036854775807
Number of CPUs: 1
Page size: 1048576

Off-chip DRAM Size: 64 GiB Channels: 2 Width: 32-bit Data Rate: 4807 MT/s
[ERROR_PAGE_MANAGER] Error latency: 2459910500 
[ERROR_PAGE_MANAGER] Random seed: 54321 (fixed for preload reproducibility)
[ERROR_PAGE_MANAGER] Cycle-based error modeling enabled
[ERROR_PAGE_MANAGER] Errors per interval: 1
[ERROR_PAGE_MANAGER] Error cycle interval: 46484161 cycles

=== ERROR PAGE STATISTICS ===
Mode: CYCLE
Error Cycle Interval: 46484161 CPU cycles
Total Error Accesses: 0
==============================
Warmup finished CPU 0 instructions: 0 cycles: 1 cumulative IPC: 0 (Simulation time: 00 hr 00 min 00 sec)
Warmup complete CPU 0 instructions: 0 cycles: 1 cumulative IPC: 0 (Simulation time: 00 hr 00 min 00 sec)
Simulation CPU 0 panic: IPC 0 < 0.01
Simulation CPU 0 panic: IPC 2e-06 < 0.01
Simulation CPU 0 panic: IPC 0 < 0.01
Simulation CPU 0 panic: IPC 2.52e-05 < 0.01
[ERROR_CYCLE] Error added at CPU cycle 46484161, interval 1, pending count: 1
Simulation CPU 0 panic: IPC 0.000543 < 0.01
[DRAM_CYCLE_ERROR] Cycle-based error applied! address=0x537c0c688 additional_latency=2459910500 cycles
Simulation CPU 0 panic: IPC 0 < 0.01
Simulation CPU 0 panic: IPC 0.0003794 < 0.01
Simulation CPU 0 panic: IPC 7.5e-06 < 0.01
Simulation CPU 0 panic: IPC 2.1e-06 < 0.01
[ERROR_CYCLE] Error added at CPU cycle 92968322, interval 2, pending count: 1
[DRAM_CYCLE_ERROR] Cycle-based error applied! address=0x537c10050 additional_latency=2459910500 cycles
Simulation CPU 0 panic: IPC 0 < 0.01
Simulation CPU 0 panic: IPC 1.7e-06 < 0.01
Simulation CPU 0 panic: IPC 1.11e-05 < 0.01
Simulation CPU 0 panic: IPC 1e-07 < 0.01
[ERROR_CYCLE] Error added at CPU cycle 139452483, interval 3, pending count: 1
[DRAM_CYCLE_ERROR] Cycle-based error applied! address=0x537c14fe0 additional_latency=2459910500 cycles
Simulation CPU 0 panic: IPC 4e-07 < 0.01
Simulation CPU 0 panic: IPC 0 < 0.01
Simulation CPU 0 panic: IPC 1.2e-05 < 0.01
Simulation CPU 0 panic: IPC 0.0030956 < 0.01
Simulation CPU 0 critical: IPC 0.018621 < 0.02
[ERROR_CYCLE] Error added at CPU cycle 185936644, interval 4, pending count: 1
[DRAM_CYCLE_ERROR] Cycle-based error applied! address=0xada8156c8 additional_latency=2459910500 cycles
Simulation CPU 0 panic: IPC 0 < 0.01
Simulation CPU 0 critical: IPC 0.015891 < 0.02
Simulation CPU 0 panic: IPC 0.0027506 < 0.01
Simulation CPU 0 warning: IPC 0.021759 < 0.05
Simulation CPU 0 warning: IPC 0.024809 < 0.05
[ERROR_CYCLE] Error added at CPU cycle 232420805, interval 5, pending count: 1
[DRAM_CYCLE_ERROR] Cycle-based error applied! address=0xdc9607ac0 additional_latency=2459910500 cycles
Simulation CPU 0 panic: IPC 0 < 0.01
Simulation CPU 0 warning: IPC 0.037198 < 0.05
Simulation CPU 0 panic: IPC 7.2e-06 < 0.01
Simulation CPU 0 panic: IPC 8e-06 < 0.01
[ERROR_CYCLE] Error added at CPU cycle 278904966, interval 6, pending count: 1
[DRAM_CYCLE_ERROR] Cycle-based error applied! address=0x537c234d8 additional_latency=2459910500 cycles
Simulation CPU 0 panic: IPC 0.0061778 < 0.01
Simulation CPU 0 panic: IPC 0 < 0.01
Simulation CPU 0 panic: IPC 0.0061606 < 0.01
Simulation CPU 0 panic: IPC 0.0093766 < 0.01
Simulation CPU 0 panic: IPC 0.0059319 < 0.01
[ERROR_CYCLE] Error added at CPU cycle 325389128, interval 7, pending count: 1
[DRAM_CYCLE_ERROR] Cycle-based error applied! address=0x537c271d0 additional_latency=2459910500 cycles
Simulation CPU 0 critical: IPC 0.012699 < 0.02
Simulation CPU 0 panic: IPC 0 < 0.01
Simulation CPU 0 critical: IPC 0.012403 < 0.02
Simulation CPU 0 critical: IPC 0.018633 < 0.02
[ERROR_CYCLE] Error added at CPU cycle 371873289, interval 8, pending count: 1
[DRAM_CYCLE_ERROR] Cycle-based error applied! address=0x537c2bbe0 additional_latency=2459910500 cycles
Simulation CPU 0 panic: IPC 0.009306 < 0.01
Simulation CPU 0 panic: IPC 0 < 0.01
Simulation CPU 0 panic: IPC 0.003084 < 0.01
Simulation CPU 0 panic: IPC 1.84e-05 < 0.01
[ERROR_CYCLE] Error added at CPU cycle 418357450, interval 9, pending count: 1
[DRAM_CYCLE_ERROR] Cycle-based error applied! address=0xc7c9ec048 additional_latency=2459910500 cycles
Simulation CPU 0 panic: IPC 0.0012495 < 0.01
Simulation CPU 0 panic: IPC 0.0072489 < 0.01
Simulation CPU 0 critical: IPC 0.010128 < 0.02
Simulation CPU 0 panic: IPC 0.0030958 < 0.01
Simulation CPU 0 critical: IPC 0.018635 < 0.02
[ERROR_CYCLE] Error added at CPU cycle 464841611, interval 10, pending count: 1
[DRAM_CYCLE_ERROR] Cycle-based error applied! address=0x56856c180 additional_latency=2459910500 cycles
Simulation CPU 0 panic: IPC 0 < 0.01
Simulation CPU 0 critical: IPC 0.015525 < 0.02
Simulation CPU 0 panic: IPC 0.003084 < 0.01
Simulation CPU 0 panic: IPC 0.0093209 < 0.01
[ERROR_CYCLE] Error added at CPU cycle 511325771, interval 11, pending count: 1
[DRAM_CYCLE_ERROR] Cycle-based error applied! address=0xf6791f170 additional_latency=2459910500 cycles
Simulation CPU 0 panic: IPC 0 < 0.01
Simulation CPU 0 warning: IPC 0.040334 < 0.05
Simulation CPU 0 panic: IPC 0.0003344 < 0.01
[ERROR_CYCLE] Error added at CPU cycle 557809932, interval 12, pending count: 1
Simulation CPU 0 panic: IPC 0.0001264 < 0.01
[DRAM_CYCLE_ERROR] Cycle-based error applied! address=0x537c3a478 additional_latency=2459910500 cycles
Simulation CPU 0 panic: IPC 0 < 0.01
Simulation CPU 0 panic: IPC 8e-07 < 0.01
Simulation CPU 0 panic: IPC 1.6e-06 < 0.01
Simulation CPU 0 panic: IPC 8e-07 < 0.01
[ERROR_CYCLE] Error added at CPU cycle 604294093, interval 13, pending count: 1
[DRAM_CYCLE_ERROR] Cycle-based error applied! address=0x9c4fe6ac8 additional_latency=2459910500 cycles
Simulation CPU 0 panic: IPC 0 < 0.01
Simulation CPU 0 panic: IPC 9.6e-06 < 0.01
Simulation CPU 0 panic: IPC 8e-07 < 0.01
Simulation CPU 0 panic: IPC 0.0010825 < 0.01
Simulation CPU 0 critical: IPC 0.012459 < 0.02
[ERROR_CYCLE] Error added at CPU cycle 650778254, interval 14, pending count: 1
[DRAM_CYCLE_ERROR] Cycle-based error applied! address=0x537c43678 additional_latency=2459910500 cycles
Simulation CPU 0 panic: IPC 0 < 0.01
Simulation CPU 0 critical: IPC 0.010631 < 0.02
Simulation CPU 0 critical: IPC 0.011066 < 0.02
Simulation CPU 0 panic: IPC 7.2e-06 < 0.01
[ERROR_CYCLE] Error added at CPU cycle 697262415, interval 15, pending count: 1
[DRAM_CYCLE_ERROR] Cycle-based error applied! address=0x537c474c8 additional_latency=2459910500 cycles
Simulation CPU 0 panic: IPC 0 < 0.01
Simulation CPU 0 panic: IPC 0.003121 < 0.01
Simulation CPU 0 panic: IPC 0.0030986 < 0.01
[ERROR_CYCLE] Error added at CPU cycle 743746576, interval 16, pending count: 1
[DRAM_CYCLE_ERROR] Cycle-based error applied! address=0x444084818 additional_latency=2459910500 cycles
Simulation CPU 0 panic: IPC 0 < 0.01
Simulation CPU 0 warning: IPC 0.036728 < 0.05
Simulation CPU 0 warning: IPC 0.029702 < 0.05
[ERROR_CYCLE] Error added at CPU cycle 790230737, interval 17, pending count: 1
[DRAM_CYCLE_ERROR] Cycle-based error applied! address=0x537c4e6a8 additional_latency=2459910500 cycles
Simulation CPU 0 panic: IPC 0 < 0.01
Heartbeat CPU 0 instructions: 10000002 cycles: 807393430 heartbeat IPC: 0.01239 cumulative IPC: 0.01239 (Simulation time: 01 hr 11 min 46 sec)
Simulation CPU 0 warning: IPC 0.02925 < 0.05
Simulation CPU 0 warning: IPC 0.04774 < 0.05
[ERROR_CYCLE] Error added at CPU cycle 836714899, interval 18, pending count: 1
[DRAM_CYCLE_ERROR] Cycle-based error applied! address=0xff1a00380 additional_latency=2459910500 cycles
Simulation CPU 0 panic: IPC 0 < 0.01
Simulation CPU 0 panic: IPC 0.0062037 < 0.01
Simulation CPU 0 panic: IPC 0.0039995 < 0.01
Simulation CPU 0 warning: IPC 0.02399 < 0.05
Simulation CPU 0 warning: IPC 0.03414 < 0.05
[ERROR_CYCLE] Error added at CPU cycle 883199060, interval 19, pending count: 1
[DRAM_CYCLE_ERROR] Cycle-based error applied! address=0x103507fb8 additional_latency=2459910500 cycles
Simulation CPU 0 panic: IPC 0 < 0.01
Simulation CPU 0 warning: IPC 0.022203 < 0.05
Simulation CPU 0 panic: IPC 0.0084508 < 0.01
Simulation CPU 0 critical: IPC 0.012076 < 0.02
[ERROR_CYCLE] Error added at CPU cycle 929683221, interval 20, pending count: 1
[DRAM_CYCLE_ERROR] Cycle-based error applied! address=0x537c596e0 additional_latency=2459910500 cycles
Simulation CPU 0 panic: IPC 0 < 0.01
Simulation CPU 0 panic: IPC 0.0071009 < 0.01
Simulation CPU 0 critical: IPC 0.018628 < 0.02
Simulation CPU 0 panic: IPC 8e-06 < 0.01
[ERROR_CYCLE] Error added at CPU cycle 976167382, interval 21, pending count: 1
[DRAM_CYCLE_ERROR] Cycle-based error applied! address=0x537c5d6e8 additional_latency=2459910500 cycles
Simulation CPU 0 panic: IPC 0.0062191 < 0.01
Simulation CPU 0 panic: IPC 0 < 0.01
Simulation CPU 0 panic: IPC 0.000472 < 0.01
Simulation CPU 0 warning: IPC 0.046519 < 0.05
[ERROR_CYCLE] Error added at CPU cycle 1022651542, interval 22, pending count: 1
[DRAM_CYCLE_ERROR] Cycle-based error applied! address=0xd968c400 additional_latency=2459910500 cycles
Simulation CPU 0 panic: IPC 0 < 0.01
Simulation CPU 0 warning: IPC 0.027922 < 0.05
Simulation CPU 0 warning: IPC 0.028193 < 0.05
[ERROR_CYCLE] Error added at CPU cycle 1069135703, interval 23, pending count: 1
[DRAM_CYCLE_ERROR] Cycle-based error applied! address=0x537c643d8 additional_latency=2459910500 cycles
Simulation CPU 0 panic: IPC 0.000504 < 0.01
Simulation CPU 0 panic: IPC 0 < 0.01
Simulation CPU 0 panic: IPC 8e-06 < 0.01
Simulation CPU 0 critical: IPC 0.014575 < 0.02
[ERROR_CYCLE] Error added at CPU cycle 1115619864, interval 24, pending count: 1
[DRAM_CYCLE_ERROR] Cycle-based error applied! address=0x537c68580 additional_latency=2459910500 cycles
Simulation CPU 0 panic: IPC 0.003084 < 0.01
Simulation CPU 0 panic: IPC 0 < 0.01
Simulation CPU 0 warning: IPC 0.021741 < 0.05
Simulation CPU 0 critical: IPC 0.018644 < 0.02
[ERROR_CYCLE] Error added at CPU cycle 1162104025, interval 25, pending count: 1
[DRAM_CYCLE_ERROR] Cycle-based error applied! address=0x8f9b807b8 additional_latency=2459910500 cycles
Simulation CPU 0 panic: IPC 0 < 0.01
Simulation CPU 0 critical: IPC 0.013816 < 0.02
Heartbeat CPU 0 instructions: 20000002 cycles: 1198338212 heartbeat IPC: 0.02558 cumulative IPC: 0.01669 (Simulation time: 01 hr 42 min 50 sec)
[ERROR_CYCLE] Error added at CPU cycle 1208588186, interval 26, pending count: 1
[DRAM_CYCLE_ERROR] Cycle-based error applied! address=0xfbca00010 additional_latency=2459910500 cycles
Simulation CPU 0 panic: IPC 0 < 0.01
Simulation CPU 0 warning: IPC 0.021011 < 0.05
Simulation CPU 0 panic: IPC 8e-06 < 0.01
Simulation CPU 0 warning: IPC 0.021704 < 0.05
Simulation CPU 0 warning: IPC 0.049472 < 0.05
[ERROR_CYCLE] Error added at CPU cycle 1255072347, interval 27, pending count: 1
[DRAM_CYCLE_ERROR] Cycle-based error applied! address=0x9eed00000 additional_latency=2459910500 cycles
Simulation CPU 0 panic: IPC 0 < 0.01
Simulation CPU 0 warning: IPC 0.029571 < 0.05
[ERROR_CYCLE] Error added at CPU cycle 1301556508, interval 28, pending count: 1
[DRAM_CYCLE_ERROR] Cycle-based error applied! address=0xdb0b00020 additional_latency=2459910500 cycles
Simulation CPU 0 panic: IPC 0 < 0.01
Simulation CPU 0 critical: IPC 0.015526 < 0.02
Simulation CPU 0 warning: IPC 0.021714 < 0.05
[ERROR_CYCLE] Error added at CPU cycle 1348040670, interval 29, pending count: 1
[DRAM_CYCLE_ERROR] Cycle-based error applied! address=0x537c79080 additional_latency=2459910500 cycles
Simulation CPU 0 critical: IPC 0.01551 < 0.02
Simulation CPU 0 panic: IPC 0 < 0.01
Simulation CPU 0 critical: IPC 0.018613 < 0.02
Simulation CPU 0 critical: IPC 0.012392 < 0.02
Simulation CPU 0 panic: IPC 0.0093017 < 0.01
[ERROR_CYCLE] Error added at CPU cycle 1394524831, interval 30, pending count: 1
[DRAM_CYCLE_ERROR] Cycle-based error applied! address=0x537c7d070 additional_latency=2459910500 cycles
Simulation CPU 0 critical: IPC 0.015508 < 0.02
Simulation CPU 0 panic: IPC 0 < 0.01
Simulation CPU 0 warning: IPC 0.034145 < 0.05
Simulation CPU 0 critical: IPC 0.012406 < 0.02
Simulation CPU 0 warning: IPC 0.037298 < 0.05
[ERROR_CYCLE] Error added at CPU cycle 1441008992, interval 31, pending count: 1
[DRAM_CYCLE_ERROR] Cycle-based error applied! address=0x5238f8590 additional_latency=2459910500 cycles
Simulation CPU 0 panic: IPC 0 < 0.01
Simulation CPU 0 panic: IPC 0.0031301 < 0.01
Simulation CPU 0 critical: IPC 0.015537 < 0.02
[ERROR_CYCLE] Error added at CPU cycle 1487493153, interval 32, pending count: 1
Simulation CPU 0 panic: IPC 0.000472 < 0.01
[DRAM_CYCLE_ERROR] Cycle-based error applied! address=0x8e382d0f0 additional_latency=2459910500 cycles
Simulation CPU 0 panic: IPC 0.0059032 < 0.01
Simulation CPU 0 warning: IPC 0.021568 < 0.05
Simulation CPU 0 panic: IPC 0.000472 < 0.01
Simulation CPU 0 warning: IPC 0.036737 < 0.05
[ERROR_CYCLE] Error added at CPU cycle 1533977313, interval 33, pending count: 1
[DRAM_CYCLE_ERROR] Cycle-based error applied! address=0xbcdea2960 additional_latency=2459910500 cycles
Simulation CPU 0 panic: IPC 0 < 0.01
Simulation CPU 0 warning: IPC 0.024809 < 0.05
Simulation CPU 0 panic: IPC 0.0062005 < 0.01
Simulation CPU 0 warning: IPC 0.049616 < 0.05
Simulation CPU 0 panic: IPC 0.009301 < 0.01
[ERROR_CYCLE] Error added at CPU cycle 1580461474, interval 34, pending count: 1
[DRAM_CYCLE_ERROR] Cycle-based error applied! address=0x537c8c010 additional_latency=2459910500 cycles
Simulation CPU 0 panic: IPC 0 < 0.01
Simulation CPU 0 panic: IPC 0.0031048 < 0.01
Simulation CPU 0 warning: IPC 0.034131 < 0.05
Simulation CPU 0 critical: IPC 0.015517 < 0.02
Heartbeat CPU 0 instructions: 30000004 cycles: 1626806981 heartbeat IPC: 0.02334 cumulative IPC: 0.01844 (Simulation time: 02 hr 17 min 14 sec)
[ERROR_CYCLE] Error added at CPU cycle 1626945635, interval 35, pending count: 1
[DRAM_CYCLE_ERROR] Cycle-based error applied! address=0x9c7defbc8 additional_latency=2459910500 cycles
Simulation CPU 0 critical: IPC 0.01736 < 0.02
Simulation CPU 0 critical: IPC 0.019851 < 0.02
Simulation CPU 0 critical: IPC 0.012412 < 0.02
Simulation CPU 0 panic: IPC 0.0031018 < 0.01
Simulation CPU 0 panic: IPC 0 < 0.01
[ERROR_CYCLE] Error added at CPU cycle 1673429796, interval 36, pending count: 1
[DRAM_CYCLE_ERROR] Cycle-based error applied! address=0x537c94ff0 additional_latency=2459910500 cycles
Simulation CPU 0 panic: IPC 0.0062108 < 0.01
Simulation CPU 0 panic: IPC 0.0048863 < 0.01
Simulation CPU 0 critical: IPC 0.01019 < 0.02
[ERROR_CYCLE] Error added at CPU cycle 1719913957, interval 37, pending count: 1
Simulation CPU 0 critical: IPC 0.012394 < 0.02
[DRAM_CYCLE_ERROR] Cycle-based error applied! address=0x537c98bb0 additional_latency=2459910500 cycles
Simulation CPU 0 panic: IPC 0 < 0.01
Simulation CPU 0 panic: IPC 1.59e-05 < 0.01
Simulation CPU 0 critical: IPC 0.015504 < 0.02
Simulation CPU 0 panic: IPC 0.0073798 < 0.01
[ERROR_CYCLE] Error added at CPU cycle 1766398118, interval 38, pending count: 1
[DRAM_CYCLE_ERROR] Cycle-based error applied! address=0xf6bc00008 additional_latency=2459910500 cycles
Simulation CPU 0 panic: IPC 0 < 0.01
Simulation CPU 0 warning: IPC 0.031614 < 0.05
Simulation CPU 0 panic: IPC 3.2e-06 < 0.01
Simulation CPU 0 panic: IPC 8.4e-05 < 0.01
Simulation CPU 0 panic: IPC 5.6e-06 < 0.01
[ERROR_CYCLE] Error added at CPU cycle 1812882279, interval 39, pending count: 1
[DRAM_CYCLE_ERROR] Cycle-based error applied! address=0xa4ed559f0 additional_latency=2459910500 cycles
Simulation CPU 0 panic: IPC 0 < 0.01
Simulation CPU 0 warning: IPC 0.022949 < 0.05
Simulation CPU 0 critical: IPC 0.016396 < 0.02
Simulation CPU 0 warning: IPC 0.039447 < 0.05
[ERROR_CYCLE] Error added at CPU cycle 1859366441, interval 40, pending count: 1
Simulation CPU 0 panic: IPC 0.006212 < 0.01
[DRAM_CYCLE_ERROR] Cycle-based error applied! address=0xc7fe315c0 additional_latency=2459910500 cycles
Simulation CPU 0 panic: IPC 0 < 0.01
Simulation CPU 0 panic: IPC 0.0031088 < 0.01
Simulation CPU 0 warning: IPC 0.024504 < 0.05
Simulation CPU 0 warning: IPC 0.043736 < 0.05
[ERROR_CYCLE] Error added at CPU cycle 1905850602, interval 41, pending count: 1
[DRAM_CYCLE_ERROR] Cycle-based error applied! address=0x537ca7818 additional_latency=2459910500 cycles
Simulation CPU 0 panic: IPC 0.0085768 < 0.01
Simulation CPU 0 panic: IPC 0 < 0.01
Simulation CPU 0 warning: IPC 0.021453 < 0.05
Simulation CPU 0 panic: IPC 0.0041138 < 0.01
Simulation CPU 0 warning: IPC 0.020862 < 0.05
[ERROR_CYCLE] Error added at CPU cycle 1952334763, interval 42, pending count: 1
[DRAM_CYCLE_ERROR] Cycle-based error applied! address=0x537cabfb0 additional_latency=2459910500 cycles
Simulation CPU 0 warning: IPC 0.038062 < 0.05
Simulation CPU 0 panic: IPC 0 < 0.01
Simulation CPU 0 panic: IPC 0.0062027 < 0.01
Simulation CPU 0 warning: IPC 0.02387 < 0.05
[ERROR_CYCLE] Error added at CPU cycle 1998818924, interval 43, pending count: 1
[DRAM_CYCLE_ERROR] Cycle-based error applied! address=0x95b5c8108 additional_latency=2459910500 cycles
Simulation CPU 0 critical: IPC 0.016451 < 0.02
Simulation CPU 0 panic: IPC 0.0078495 < 0.01
Simulation CPU 0 critical: IPC 0.01385 < 0.02
Simulation CPU 0 warning: IPC 0.035432 < 0.05
[ERROR_CYCLE] Error added at CPU cycle 2045303084, interval 44, pending count: 1
[DRAM_CYCLE_ERROR] Cycle-based error applied! address=0x537cb2f90 additional_latency=2459910500 cycles
Simulation CPU 0 warning: IPC 0.041147 < 0.05
Simulation CPU 0 panic: IPC 0 < 0.01
Simulation CPU 0 panic: IPC 0.0093389 < 0.01
Simulation CPU 0 panic: IPC 0.0062028 < 0.01
Simulation CPU 0 critical: IPC 0.018643 < 0.02
[ERROR_CYCLE] Error added at CPU cycle 2091787245, interval 45, pending count: 1
[DRAM_CYCLE_ERROR] Cycle-based error applied! address=0x537cb6f70 additional_latency=2459910500 cycles
Simulation CPU 0 panic: IPC 0 < 0.01
Simulation CPU 0 critical: IPC 0.018628 < 0.02
Simulation CPU 0 panic: IPC 0.000472 < 0.01
Simulation CPU 0 critical: IPC 0.011207 < 0.02
[ERROR_CYCLE] Error added at CPU cycle 2138271406, interval 46, pending count: 1
Simulation CPU 0 warning: IPC 0.025583 < 0.05
[DRAM_CYCLE_ERROR] Cycle-based error applied! address=0x537cbafa0 additional_latency=2459910500 cycles
Simulation CPU 0 panic: IPC 0 < 0.01
Simulation CPU 0 panic: IPC 0.0031006 < 0.01
Simulation CPU 0 warning: IPC 0.021719 < 0.05
[ERROR_CYCLE] Error added at CPU cycle 2184755567, interval 47, pending count: 1
[DRAM_CYCLE_ERROR] Cycle-based error applied! address=0xbb969cb28 additional_latency=2459910500 cycles
Simulation CPU 0 panic: IPC 0 < 0.01
Simulation CPU 0 critical: IPC 0.011128 < 0.02
Simulation CPU 0 critical: IPC 0.013677 < 0.02
Simulation CPU 0 critical: IPC 0.012404 < 0.02
[ERROR_CYCLE] Error added at CPU cycle 2231239728, interval 48, pending count: 1
[DRAM_CYCLE_ERROR] Cycle-based error applied! address=0x537cc1f48 additional_latency=2459910500 cycles
Simulation CPU 0 panic: IPC 0 < 0.01
Simulation CPU 0 panic: IPC 0.0031006 < 0.01
Heartbeat CPU 0 instructions: 40000005 cycles: 2256928524 heartbeat IPC: 0.01587 cumulative IPC: 0.01772 (Simulation time: 03 hr 06 min 04 sec)
[ERROR_CYCLE] Error added at CPU cycle 2277723889, interval 49, pending count: 1
[DRAM_CYCLE_ERROR] Cycle-based error applied! address=0x8ad800000 additional_latency=2459910500 cycles
Simulation CPU 0 panic: IPC 0 < 0.01
Simulation CPU 0 warning: IPC 0.038662 < 0.05
Simulation CPU 0 warning: IPC 0.034142 < 0.05
Simulation CPU 0 warning: IPC 0.040305 < 0.05
[ERROR_CYCLE] Error added at CPU cycle 2324208050, interval 50, pending count: 1
[DRAM_CYCLE_ERROR] Cycle-based error applied! address=0x537cc8898 additional_latency=2459910500 cycles
Simulation CPU 0 warning: IPC 0.030423 < 0.05
Simulation CPU 0 panic: IPC 0 < 0.01
Simulation CPU 0 warning: IPC 0.047096 < 0.05
Simulation CPU 0 warning: IPC 0.027917 < 0.05
Simulation CPU 0 panic: IPC 0.0093076 < 0.01
[ERROR_CYCLE] Error added at CPU cycle 2370692212, interval 51, pending count: 1
[DRAM_CYCLE_ERROR] Cycle-based error applied! address=0x537ccc568 additional_latency=2459910500 cycles
Simulation CPU 0 panic: IPC 0.0066835 < 0.01
Simulation CPU 0 critical: IPC 0.013877 < 0.02
Simulation CPU 0 warning: IPC 0.02962 < 0.05
Simulation CPU 0 warning: IPC 0.035234 < 0.05
[ERROR_CYCLE] Error added at CPU cycle 2417176373, interval 52, pending count: 1
[DRAM_CYCLE_ERROR] Cycle-based error applied! address=0xf32f00000 additional_latency=2459910500 cycles
Simulation CPU 0 panic: IPC 0 < 0.01
Simulation CPU 0 warning: IPC 0.042126 < 0.05
Simulation CPU 0 warning: IPC 0.044396 < 0.05
Simulation CPU 0 warning: IPC 0.03002 < 0.05
[ERROR_CYCLE] Error added at CPU cycle 2463660534, interval 53, pending count: 1
[DRAM_CYCLE_ERROR] Cycle-based error applied! address=0x537cd38c8 additional_latency=2459910500 cycles
Simulation CPU 0 warning: IPC 0.046924 < 0.05
Simulation CPU 0 panic: IPC 0 < 0.01
Simulation CPU 0 warning: IPC 0.024422 < 0.05
Simulation CPU 0 critical: IPC 0.012422 < 0.02
Simulation CPU 0 critical: IPC 0.012448 < 0.02
[ERROR_CYCLE] Error added at CPU cycle 2510144695, interval 54, pending count: 1
[DRAM_CYCLE_ERROR] Cycle-based error applied! address=0x9614c0b38 additional_latency=2459910500 cycles
Simulation CPU 0 panic: IPC 0 < 0.01
Simulation CPU 0 panic: IPC 0.0093099 < 0.01
Simulation CPU 0 panic: IPC 0.0093221 < 0.01
Simulation CPU 0 warning: IPC 0.046528 < 0.05
[ERROR_CYCLE] Error added at CPU cycle 2556628855, interval 55, pending count: 1
Simulation CPU 0 warning: IPC 0.044912 < 0.05
[DRAM_CYCLE_ERROR] Cycle-based error applied! address=0x54eb00010 additional_latency=2459910500 cycles
Simulation CPU 0 panic: IPC 0 < 0.01
Simulation CPU 0 warning: IPC 0.032624 < 0.05
Simulation CPU 0 warning: IPC 0.04032 < 0.05
Heartbeat CPU 0 instructions: 50000009 cycles: 2591835759 heartbeat IPC: 0.02986 cumulative IPC: 0.01929 (Simulation time: 03 hr 33 min 58 sec)
Simulation CPU 0 warning: IPC 0.035837 < 0.05
[ERROR_CYCLE] Error added at CPU cycle 2603113016, interval 56, pending count: 1
[DRAM_CYCLE_ERROR] Cycle-based error applied! address=0x537cde908 additional_latency=2459910500 cycles
Simulation CPU 0 warning: IPC 0.029294 < 0.05
Simulation CPU 0 panic: IPC 0 < 0.01
Simulation CPU 0 warning: IPC 0.027913 < 0.05
Simulation CPU 0 critical: IPC 0.012347 < 0.02
[ERROR_CYCLE] Error added at CPU cycle 2649597177, interval 57, pending count: 1
Simulation CPU 0 panic: IPC 0.0062664 < 0.01
[DRAM_CYCLE_ERROR] Cycle-based error applied! address=0xf9d308208 additional_latency=2459910500 cycles
Simulation CPU 0 panic: IPC 0.0008064 < 0.01
Simulation CPU 0 warning: IPC 0.045692 < 0.05
Simulation CPU 0 critical: IPC 0.013267 < 0.02
Simulation CPU 0 warning: IPC 0.020385 < 0.05
[ERROR_CYCLE] Error added at CPU cycle 2696081338, interval 58, pending count: 1
[DRAM_CYCLE_ERROR] Cycle-based error applied! address=0x889400020 additional_latency=2459910500 cycles
Simulation CPU 0 panic: IPC 0 < 0.01
Simulation CPU 0 warning: IPC 0.04478 < 0.05
Simulation CPU 0 warning: IPC 0.029211 < 0.05
Simulation CPU 0 warning: IPC 0.025781 < 0.05
[ERROR_CYCLE] Error added at CPU cycle 2742565499, interval 59, pending count: 1
[DRAM_CYCLE_ERROR] Cycle-based error applied! address=0x537ce94e8 additional_latency=2459910500 cycles
Simulation CPU 0 warning: IPC 0.035779 < 0.05
Simulation CPU 0 panic: IPC 0 < 0.01
Simulation CPU 0 panic: IPC 0.0098356 < 0.01
[ERROR_CYCLE] Error added at CPU cycle 2789049660, interval 60, pending count: 1
Simulation CPU 0 warning: IPC 0.021707 < 0.05
[DRAM_CYCLE_ERROR] Cycle-based error applied! address=0x3c5ca5c78 additional_latency=2459910500 cycles
Simulation CPU 0 panic: IPC 0 < 0.01
Simulation CPU 0 warning: IPC 0.042239 < 0.05
Simulation CPU 0 warning: IPC 0.031905 < 0.05
[ERROR_CYCLE] Error added at CPU cycle 2835533821, interval 61, pending count: 1
[DRAM_CYCLE_ERROR] Cycle-based error applied! address=0x537cf0e38 additional_latency=2459910500 cycles
Simulation CPU 0 panic: IPC 0.0084106 < 0.01
Simulation CPU 0 panic: IPC 0 < 0.01
Simulation CPU 0 warning: IPC 0.04377 < 0.05
Simulation CPU 0 panic: IPC 0.0049182 < 0.01
Simulation CPU 0 panic: IPC 0.0002752 < 0.01
[ERROR_CYCLE] Error added at CPU cycle 2882017983, interval 62, pending count: 1
[DRAM_CYCLE_ERROR] Cycle-based error applied! address=0x537cf4360 additional_latency=2459910500 cycles
Simulation CPU 0 panic: IPC 0.0004992 < 0.01
Simulation CPU 0 warning: IPC 0.033558 < 0.05
Simulation CPU 0 critical: IPC 0.016227 < 0.02
Simulation CPU 0 warning: IPC 0.042848 < 0.05
[ERROR_CYCLE] Error added at CPU cycle 2928502144, interval 63, pending count: 1
Simulation CPU 0 warning: IPC 0.040127 < 0.05
[DRAM_CYCLE_ERROR] Cycle-based error applied! address=0x648a00008 additional_latency=2459910500 cycles
Simulation CPU 0 panic: IPC 0 < 0.01
Simulation CPU 0 warning: IPC 0.025044 < 0.05
Simulation CPU 0 warning: IPC 0.047494 < 0.05
[ERROR_CYCLE] Error added at CPU cycle 2974986305, interval 64, pending count: 1
[DRAM_CYCLE_ERROR] Cycle-based error applied! address=0x537cfb2f8 additional_latency=2459910500 cycles
Simulation CPU 0 critical: IPC 0.010089 < 0.02
Simulation CPU 0 panic: IPC 0 < 0.01
Heartbeat CPU 0 instructions: 60000012 cycles: 3001851826 heartbeat IPC: 0.02439 cumulative IPC: 0.01999 (Simulation time: 04 hr 06 min 31 sec)
Simulation CPU 0 warning: IPC 0.030063 < 0.05
Simulation CPU 0 panic: IPC 0.0071695 < 0.01
[ERROR_CYCLE] Error added at CPU cycle 3021470466, interval 65, pending count: 1
[DRAM_CYCLE_ERROR] Cycle-based error applied! address=0x537cff980 additional_latency=2459910500 cycles
Simulation CPU 0 panic: IPC 0.0062084 < 0.01
Simulation CPU 0 panic: IPC 0.0076854 < 0.01
Simulation CPU 0 critical: IPC 0.014024 < 0.02
Simulation CPU 0 warning: IPC 0.044867 < 0.05
[ERROR_CYCLE] Error added at CPU cycle 3067954626, interval 66, pending count: 1
[DRAM_CYCLE_ERROR] Cycle-based error applied! address=0x61b900020 additional_latency=2459910500 cycles
Simulation CPU 0 critical: IPC 0.017697 < 0.02
Simulation CPU 0 critical: IPC 0.017823 < 0.02
Simulation CPU 0 warning: IPC 0.022418 < 0.05
Simulation CPU 0 critical: IPC 0.016903 < 0.02
Simulation CPU 0 panic: IPC 0.004106 < 0.01
[ERROR_CYCLE] Error added at CPU cycle 3114438787, interval 67, pending count: 1
[DRAM_CYCLE_ERROR] Cycle-based error applied! address=0x54a000010 additional_latency=2459910500 cycles
Simulation CPU 0 panic: IPC 0 < 0.01
Simulation CPU 0 panic: IPC 0.0095409 < 0.01
Simulation CPU 0 panic: IPC 0.009328 < 0.01
Simulation CPU 0 panic: IPC 0.0031036 < 0.01
Simulation CPU 0 critical: IPC 0.012432 < 0.02
[ERROR_CYCLE] Error added at CPU cycle 3160922948, interval 68, pending count: 1
[DRAM_CYCLE_ERROR] Cycle-based error applied! address=0x7d720a9a8 additional_latency=2459910500 cycles
Simulation CPU 0 panic: IPC 0 < 0.01
Simulation CPU 0 panic: IPC 0.003084 < 0.01
Simulation CPU 0 panic: IPC 0.0031205 < 0.01
Simulation CPU 0 panic: IPC 0.0031204 < 0.01
[ERROR_CYCLE] Error added at CPU cycle 3207407109, interval 69, pending count: 1
[DRAM_CYCLE_ERROR] Cycle-based error applied! address=0x7d720e9c0 additional_latency=2459910500 cycles
Simulation CPU 0 critical: IPC 0.015519 < 0.02
Simulation CPU 0 panic: IPC 0 < 0.01
Simulation CPU 0 warning: IPC 0.037201 < 0.05
Simulation CPU 0 panic: IPC 0.0092978 < 0.01
Simulation CPU 0 critical: IPC 0.010541 < 0.02
[ERROR_CYCLE] Error added at CPU cycle 3253891270, interval 70, pending count: 1
[DRAM_CYCLE_ERROR] Cycle-based error applied! address=0x7d7212da0 additional_latency=2459910500 cycles
Simulation CPU 0 warning: IPC 0.045318 < 0.05
Simulation CPU 0 panic: IPC 0 < 0.01
Simulation CPU 0 panic: IPC 0.0040887 < 0.01
Simulation CPU 0 panic: IPC 0.0026126 < 0.01
[ERROR_CYCLE] Error added at CPU cycle 3300375431, interval 71, pending count: 1
[DRAM_CYCLE_ERROR] Cycle-based error applied! address=0x9a9b05b40 additional_latency=2459910500 cycles
Simulation CPU 0 panic: IPC 0 < 0.01
Simulation CPU 0 critical: IPC 0.015526 < 0.02
Simulation CPU 0 warning: IPC 0.049332 < 0.05
[ERROR_CYCLE] Error added at CPU cycle 3346859592, interval 72, pending count: 1
[DRAM_CYCLE_ERROR] Cycle-based error applied! address=0x7d72199e8 additional_latency=2459910500 cycles
Simulation CPU 0 warning: IPC 0.041064 < 0.05
Simulation CPU 0 panic: IPC 0 < 0.01
Simulation CPU 0 warning: IPC 0.02866 < 0.05
Simulation CPU 0 panic: IPC 0.006215 < 0.01
Simulation CPU 0 warning: IPC 0.020633 < 0.05
[ERROR_CYCLE] Error added at CPU cycle 3393343754, interval 73, pending count: 1
[DRAM_CYCLE_ERROR] Cycle-based error applied! address=0x339bb8780 additional_latency=2459910500 cycles
Simulation CPU 0 panic: IPC 0.00022 < 0.01
Simulation CPU 0 warning: IPC 0.026898 < 0.05
[ERROR_CYCLE] Error added at CPU cycle 3439827915, interval 74, pending count: 1
Simulation CPU 0 panic: IPC 0.0031046 < 0.01
[DRAM_CYCLE_ERROR] Cycle-based error applied! address=0xa9a437188 additional_latency=2459910500 cycles
Simulation CPU 0 panic: IPC 0 < 0.01
Simulation CPU 0 critical: IPC 0.016003 < 0.02
Simulation CPU 0 panic: IPC 0.0026233 < 0.01
Simulation CPU 0 critical: IPC 0.010371 < 0.02
[ERROR_CYCLE] Error added at CPU cycle 3486312076, interval 75, pending count: 1
[DRAM_CYCLE_ERROR] Cycle-based error applied! address=0x7d7224a18 additional_latency=2459910500 cycles
Simulation CPU 0 panic: IPC 0 < 0.01
Heartbeat CPU 0 instructions: 70000012 cycles: 3514700029 heartbeat IPC: 0.0195 cumulative IPC: 0.01992 (Simulation time: 04 hr 45 min 45 sec)
Simulation CPU 0 panic: IPC 0.0001504 < 0.01
[ERROR_CYCLE] Error added at CPU cycle 3532796237, interval 76, pending count: 1
[DRAM_CYCLE_ERROR] Cycle-based error applied! address=0x13bd13740 additional_latency=2459910500 cycles
Simulation CPU 0 panic: IPC 0 < 0.01
Simulation CPU 0 panic: IPC 0.0005464 < 0.01
Simulation CPU 0 warning: IPC 0.047184 < 0.05
Simulation CPU 0 panic: IPC 0.0093234 < 0.01
[ERROR_CYCLE] Error added at CPU cycle 3579280397, interval 77, pending count: 1
Simulation CPU 0 panic: IPC 0.0030368 < 0.01
[DRAM_CYCLE_ERROR] Cycle-based error applied! address=0x2000a0918 additional_latency=2459910500 cycles
Simulation CPU 0 panic: IPC 0 < 0.01
Simulation CPU 0 panic: IPC 0.0031966 < 0.01
Simulation CPU 0 critical: IPC 0.015536 < 0.02
Simulation CPU 0 warning: IPC 0.03103 < 0.05
[ERROR_CYCLE] Error added at CPU cycle 3625764558, interval 78, pending count: 1
[DRAM_CYCLE_ERROR] Cycle-based error applied! address=0x7d722fa40 additional_latency=2459910500 cycles
Simulation CPU 0 critical: IPC 0.017233 < 0.02
Simulation CPU 0 panic: IPC 0 < 0.01
Simulation CPU 0 panic: IPC 0.0018687 < 0.01
Simulation CPU 0 warning: IPC 0.028828 < 0.05
Simulation CPU 0 panic: IPC 0.0048377 < 0.01
[ERROR_CYCLE] Error added at CPU cycle 3672248719, interval 79, pending count: 1
[DRAM_CYCLE_ERROR] Cycle-based error applied! address=0x7d7233a60 additional_latency=2459910500 cycles
Simulation CPU 0 panic: IPC 0.0062376 < 0.01
Simulation CPU 0 panic: IPC 0.000472 < 0.01
Simulation CPU 0 panic: IPC 0.0026286 < 0.01
Simulation CPU 0 critical: IPC 0.018433 < 0.02
[ERROR_CYCLE] Error added at CPU cycle 3718732880, interval 80, pending count: 1
[DRAM_CYCLE_ERROR] Cycle-based error applied! address=0xfce85ffc8 additional_latency=2459910500 cycles
Simulation CPU 0 warning: IPC 0.036114 < 0.05
Simulation CPU 0 panic: IPC 0.0043638 < 0.01
Simulation CPU 0 panic: IPC 0.0006496 < 0.01
Simulation CPU 0 panic: IPC 0.0023128 < 0.01
Simulation CPU 0 panic: IPC 0 < 0.01
[ERROR_CYCLE] Error added at CPU cycle 3765217041, interval 81, pending count: 1
[DRAM_CYCLE_ERROR] Cycle-based error applied! address=0x7d723b400 additional_latency=2459910500 cycles
Simulation CPU 0 panic: IPC 4.24e-05 < 0.01
Simulation CPU 0 panic: IPC 0 < 0.01
Simulation CPU 0 warning: IPC 0.022519 < 0.05
Simulation CPU 0 panic: IPC 0.0054905 < 0.01
Simulation CPU 0 panic: IPC 0.0062012 < 0.01
[ERROR_CYCLE] Error added at CPU cycle 3811701202, interval 82, pending count: 1
[DRAM_CYCLE_ERROR] Cycle-based error applied! address=0x7d723fcd8 additional_latency=2459910500 cycles
Simulation CPU 0 panic: IPC 0 < 0.01
Simulation CPU 0 warning: IPC 0.030199 < 0.05
Simulation CPU 0 panic: IPC 0.0031052 < 0.01
[ERROR_CYCLE] Error added at CPU cycle 3858185363, interval 83, pending count: 1
Simulation CPU 0 panic: IPC 0.0031162 < 0.01
[DRAM_CYCLE_ERROR] Cycle-based error applied! address=0x7d7243a80 additional_latency=2459910500 cycles
Simulation CPU 0 panic: IPC 0 < 0.01
Simulation CPU 0 warning: IPC 0.031277 < 0.05
[ERROR_CYCLE] Error added at CPU cycle 3904669525, interval 84, pending count: 1
[DRAM_CYCLE_ERROR] Cycle-based error applied! address=0x78dabba70 additional_latency=2459910500 cycles
Simulation CPU 0 panic: IPC 0 < 0.01
Simulation CPU 0 panic: IPC 0.0002752 < 0.01
Simulation CPU 0 panic: IPC 8.32e-05 < 0.01
Simulation CPU 0 warning: IPC 0.023593 < 0.05
[ERROR_CYCLE] Error added at CPU cycle 3951153686, interval 85, pending count: 1
[DRAM_CYCLE_ERROR] Cycle-based error applied! address=0x7d724aa98 additional_latency=2459910500 cycles
Simulation CPU 0 panic: IPC 0 < 0.01
Simulation CPU 0 panic: IPC 0.0052251 < 0.01
Simulation CPU 0 warning: IPC 0.021098 < 0.05
[ERROR_CYCLE] Error added at CPU cycle 3997637847, interval 86, pending count: 1
[DRAM_CYCLE_ERROR] Cycle-based error applied! address=0x4714a2068 additional_latency=2459910500 cycles
Simulation CPU 0 panic: IPC 0 < 0.01
Simulation CPU 0 critical: IPC 0.018616 < 0.02
Simulation CPU 0 warning: IPC 0.021708 < 0.05
Simulation CPU 0 panic: IPC 0.000472 < 0.01
Simulation CPU 0 warning: IPC 0.045463 < 0.05
[ERROR_CYCLE] Error added at CPU cycle 4044122008, interval 87, pending count: 1
[DRAM_CYCLE_ERROR] Cycle-based error applied! address=0x49f700010 additional_latency=2459910500 cycles
Simulation CPU 0 panic: IPC 0 < 0.01
Simulation CPU 0 panic: IPC 0.0044782 < 0.01
Simulation CPU 0 panic: IPC 1.56e-05 < 0.01
Simulation CPU 0 panic: IPC 0.003104 < 0.01
[ERROR_CYCLE] Error added at CPU cycle 4090606168, interval 88, pending count: 1
[DRAM_CYCLE_ERROR] Cycle-based error applied! address=0x7d7255ac8 additional_latency=2459910500 cycles
Simulation CPU 0 panic: IPC 0 < 0.01
Simulation CPU 0 panic: IPC 0.0093379 < 0.01
Simulation CPU 0 critical: IPC 0.015509 < 0.02
Simulation CPU 0 panic: IPC 0.0093226 < 0.01
[ERROR_CYCLE] Error added at CPU cycle 4137090329, interval 89, pending count: 1
[DRAM_CYCLE_ERROR] Cycle-based error applied! address=0x7d7259448 additional_latency=2459910500 cycles
Simulation CPU 0 panic: IPC 0.0030953 < 0.01
Simulation CPU 0 panic: IPC 0 < 0.01
Simulation CPU 0 warning: IPC 0.024829 < 0.05
Heartbeat CPU 0 instructions: 80000016 cycles: 4163324405 heartbeat IPC: 0.01542 cumulative IPC: 0.01922 (Simulation time: 05 hr 38 min 20 sec)
Simulation CPU 0 critical: IPC 0.019239 < 0.02
Simulation CPU 0 critical: IPC 0.018027 < 0.02
[ERROR_CYCLE] Error added at CPU cycle 4183574490, interval 90, pending count: 1
[DRAM_CYCLE_ERROR] Cycle-based error applied! address=0x7d725d030 additional_latency=2459910500 cycles
Simulation CPU 0 critical: IPC 0.01551 < 0.02
Simulation CPU 0 panic: IPC 0 < 0.01
Simulation CPU 0 panic: IPC 0.0062118 < 0.01
Simulation CPU 0 panic: IPC 0.0031086 < 0.01
[ERROR_CYCLE] Error added at CPU cycle 4230058651, interval 91, pending count: 1
[DRAM_CYCLE_ERROR] Cycle-based error applied! address=0x7d7261af0 additional_latency=2459910500 cycles
Simulation CPU 0 panic: IPC 0 < 0.01
Simulation CPU 0 warning: IPC 0.021707 < 0.05
Simulation CPU 0 panic: IPC 0.0031162 < 0.01
Simulation CPU 0 warning: IPC 0.031003 < 0.05
[ERROR_CYCLE] Error added at CPU cycle 4276542812, interval 92, pending count: 1
Simulation CPU 0 critical: IPC 0.015517 < 0.02
[DRAM_CYCLE_ERROR] Cycle-based error applied! address=0x7d7265c58 additional_latency=2459910500 cycles
Simulation CPU 0 panic: IPC 0 < 0.01
Simulation CPU 0 critical: IPC 0.011644 < 0.02
Simulation CPU 0 critical: IPC 0.019609 < 0.02
[ERROR_CYCLE] Error added at CPU cycle 4323026973, interval 93, pending count: 1
[DRAM_CYCLE_ERROR] Cycle-based error applied! address=0xeb7514488 additional_latency=2459910500 cycles
Simulation CPU 0 panic: IPC 0 < 0.01
Simulation CPU 0 panic: IPC 0.0093115 < 0.01
Simulation CPU 0 critical: IPC 0.015503 < 0.02
Simulation CPU 0 panic: IPC 7.2e-06 < 0.01
[ERROR_CYCLE] Error added at CPU cycle 4369511134, interval 94, pending count: 1
Simulation CPU 0 panic: IPC 0.0030999 < 0.01
[DRAM_CYCLE_ERROR] Cycle-based error applied! address=0x2688961b8 additional_latency=2459910500 cycles
Simulation CPU 0 panic: IPC 0 < 0.01
Simulation CPU 0 critical: IPC 0.014887 < 0.02
Simulation CPU 0 critical: IPC 0.014667 < 0.02
[ERROR_CYCLE] Error added at CPU cycle 4415995296, interval 95, pending count: 1
[DRAM_CYCLE_ERROR] Cycle-based error applied! address=0x7d7270cb8 additional_latency=2459910500 cycles
Simulation CPU 0 panic: IPC 0 < 0.01
Simulation CPU 0 warning: IPC 0.035802 < 0.05
[ERROR_CYCLE] Error added at CPU cycle 4462479457, interval 96, pending count: 1
[DRAM_CYCLE_ERROR] Cycle-based error applied! address=0x1bd800018 additional_latency=2459910500 cycles
Simulation CPU 0 panic: IPC 0 < 0.01
Simulation CPU 0 warning: IPC 0.03195 < 0.05
[ERROR_CYCLE] Error added at CPU cycle 4508963618, interval 97, pending count: 1
Simulation CPU 0 warning: IPC 0.049273 < 0.05
[DRAM_CYCLE_ERROR] Cycle-based error applied! address=0x7d7277b88 additional_latency=2459910500 cycles
Simulation CPU 0 panic: IPC 0 < 0.01
Simulation CPU 0 warning: IPC 0.03064 < 0.05
Heartbeat CPU 0 instructions: 90000018 cycles: 4549655679 heartbeat IPC: 0.02588 cumulative IPC: 0.01978 (Simulation time: 06 hr 12 min 41 sec)
Simulation CPU 0 warning: IPC 0.029309 < 0.05
[ERROR_CYCLE] Error added at CPU cycle 4555447779, interval 98, pending count: 1
[DRAM_CYCLE_ERROR] Cycle-based error applied! address=0x5578372e0 additional_latency=2459910500 cycles
Simulation CPU 0 warning: IPC 0.025986 < 0.05
Simulation CPU 0 panic: IPC 0.0098932 < 0.01
Simulation CPU 0 warning: IPC 0.029405 < 0.05
Simulation CPU 0 warning: IPC 0.029607 < 0.05
[ERROR_CYCLE] Error added at CPU cycle 4601931939, interval 99, pending count: 1
[DRAM_CYCLE_ERROR] Cycle-based error applied! address=0x7d727e040 additional_latency=2459910500 cycles
Simulation CPU 0 panic: IPC 0.0015448 < 0.01
Simulation CPU 0 panic: IPC 0 < 0.01
Simulation CPU 0 panic: IPC 0.0078785 < 0.01
[ERROR_CYCLE] Error added at CPU cycle 4648416100, interval 100, pending count: 1
[DRAM_CYCLE_ERROR] Cycle-based error applied! address=0x7d7281b60 additional_latency=2459910500 cycles
Simulation CPU 0 panic: IPC 0 < 0.01
Simulation CPU 0 panic: IPC 0.0031066 < 0.01
Simulation CPU 0 panic: IPC 0.000472 < 0.01
Simulation CPU 0 warning: IPC 0.049164 < 0.05
[ERROR_CYCLE] Error added at CPU cycle 4694900261, interval 101, pending count: 1
[DRAM_CYCLE_ERROR] Cycle-based error applied! address=0x7d7285d18 additional_latency=2459910500 cycles
Simulation CPU 0 warning: IPC 0.024824 < 0.05
Simulation CPU 0 panic: IPC 0 < 0.01
Simulation CPU 0 critical: IPC 0.01241 < 0.02
Simulation CPU 0 panic: IPC 0.0093118 < 0.01
Simulation CPU 0 warning: IPC 0.02434 < 0.05
[ERROR_CYCLE] Error added at CPU cycle 4741384422, interval 102, pending count: 1
[DRAM_CYCLE_ERROR] Cycle-based error applied! address=0x7d7289b30 additional_latency=2459910500 cycles
Simulation CPU 0 panic: IPC 0.0097679 < 0.01
Simulation CPU 0 panic: IPC 0 < 0.01
[ERROR_CYCLE] Error added at CPU cycle 4787868583, interval 103, pending count: 1
[DRAM_CYCLE_ERROR] Cycle-based error applied! address=0x7d728cd38 additional_latency=2459910500 cycles
Simulation CPU 0 panic: IPC 0 < 0.01
Simulation CPU 0 warning: IPC 0.020319 < 0.05
[ERROR_CYCLE] Error added at CPU cycle 4834352744, interval 104, pending count: 1
[DRAM_CYCLE_ERROR] Cycle-based error applied! address=0xbeee00008 additional_latency=2459910500 cycles
Simulation CPU 0 panic: IPC 0 < 0.01
Heartbeat CPU 0 instructions: 100000020 cycles: 4847610407 heartbeat IPC: 0.03356 cumulative IPC: 0.02063 (Simulation time: 06 hr 37 min 55 sec)
Simulation CPU 0 critical: IPC 0.017163 < 0.02
Simulation CPU 0 warning: IPC 0.021101 < 0.05
[ERROR_CYCLE] Error added at CPU cycle 4880836905, interval 105, pending count: 1
[DRAM_CYCLE_ERROR] Cycle-based error applied! address=0x7d7293d60 additional_latency=2459910500 cycles
Simulation CPU 0 panic: IPC 0 < 0.01
Simulation CPU 0 panic: IPC 0.0099377 < 0.01
Simulation CPU 0 panic: IPC 0.009306 < 0.01
Simulation CPU 0 warning: IPC 0.037221 < 0.05
[ERROR_CYCLE] Error added at CPU cycle 4927321067, interval 106, pending count: 1
Simulation CPU 0 warning: IPC 0.027908 < 0.05
[DRAM_CYCLE_ERROR] Cycle-based error applied! address=0x7d7297ae8 additional_latency=2459910500 cycles
Simulation CPU 0 panic: IPC 0 < 0.01
Simulation CPU 0 warning: IPC 0.033023 < 0.05
Simulation CPU 0 warning: IPC 0.025897 < 0.05
Simulation CPU 0 panic: IPC 0.0030953 < 0.01
[ERROR_CYCLE] Error added at CPU cycle 4973805228, interval 107, pending count: 1
[DRAM_CYCLE_ERROR] Cycle-based error applied! address=0x5bf2dc040 additional_latency=2459910500 cycles
Simulation CPU 0 panic: IPC 0 < 0.01
Simulation CPU 0 critical: IPC 0.01553 < 0.02
Simulation CPU 0 critical: IPC 0.012412 < 0.02
Simulation CPU 0 panic: IPC 0.0047915 < 0.01
[ERROR_CYCLE] Error added at CPU cycle 5020289389, interval 108, pending count: 1
[DRAM_CYCLE_ERROR] Cycle-based error applied! address=0x2cd3a2600 additional_latency=2459910500 cycles
Simulation CPU 0 panic: IPC 0 < 0.01
Simulation CPU 0 critical: IPC 0.015513 < 0.02
Simulation CPU 0 panic: IPC 0.0031276 < 0.01
[ERROR_CYCLE] Error added at CPU cycle 5066773550, interval 109, pending count: 1
[DRAM_CYCLE_ERROR] Cycle-based error applied! address=0x7d72a2d90 additional_latency=2459910500 cycles
Simulation CPU 0 critical: IPC 0.0193 < 0.02
Simulation CPU 0 panic: IPC 0 < 0.01
Simulation CPU 0 warning: IPC 0.027771 < 0.05
Simulation CPU 0 panic: IPC 0.0001359 < 0.01
[ERROR_CYCLE] Error added at CPU cycle 5113257710, interval 110, pending count: 1
[DRAM_CYCLE_ERROR] Cycle-based error applied! address=0xd67f8a90 additional_latency=2459910500 cycles
Simulation CPU 0 panic: IPC 0 < 0.01
Simulation CPU 0 panic: IPC 0.000472 < 0.01
[ERROR_CYCLE] Error added at CPU cycle 5159741871, interval 111, pending count: 1
Simulation CPU 0 panic: IPC 0.0026305 < 0.01
[DRAM_CYCLE_ERROR] Cycle-based error applied! address=0x7d72a9db0 additional_latency=2459910500 cycles
Simulation CPU 0 panic: IPC 0 < 0.01
Simulation CPU 0 panic: IPC 0.0062024 < 0.01
Simulation CPU 0 panic: IPC 0.0031166 < 0.01
Simulation CPU 0 critical: IPC 0.016991 < 0.02
[ERROR_CYCLE] Error added at CPU cycle 5206226032, interval 112, pending count: 1
[DRAM_CYCLE_ERROR] Cycle-based error applied! address=0x7d72adc28 additional_latency=2459910500 cycles
Simulation CPU 0 panic: IPC 0.0016255 < 0.01
Simulation CPU 0 panic: IPC 0 < 0.01
Simulation CPU 0 panic: IPC 0.0062184 < 0.01
Simulation CPU 0 critical: IPC 0.012414 < 0.02
[ERROR_CYCLE] Error added at CPU cycle 5252710193, interval 113, pending count: 1
[DRAM_CYCLE_ERROR] Cycle-based error applied! address=0x7d72b1de0 additional_latency=2459910500 cycles
Simulation CPU 0 warning: IPC 0.027767 < 0.05
Simulation CPU 0 panic: IPC 0 < 0.01
Simulation CPU 0 critical: IPC 0.018799 < 0.02
Simulation CPU 0 panic: IPC 0.0062032 < 0.01
[ERROR_CYCLE] Error added at CPU cycle 5299194354, interval 114, pending count: 1
[DRAM_CYCLE_ERROR] Cycle-based error applied! address=0x9d14a8788 additional_latency=2459910500 cycles
Simulation CPU 0 panic: IPC 0.0031018 < 0.01
Simulation CPU 0 panic: IPC 0.0062335 < 0.01
Simulation CPU 0 warning: IPC 0.036907 < 0.05
Simulation CPU 0 warning: IPC 0.039083 < 0.05
Simulation CPU 0 warning: IPC 0.032549 < 0.05
[ERROR_CYCLE] Error added at CPU cycle 5345678515, interval 115, pending count: 1
[DRAM_CYCLE_ERROR] Cycle-based error applied! address=0xb52a38588 additional_latency=2459910500 cycles
Simulation CPU 0 panic: IPC 0.0093185 < 0.01
Simulation CPU 0 panic: IPC 0.0062274 < 0.01
Heartbeat CPU 0 instructions: 110000020 cycles: 5369699594 heartbeat IPC: 0.01915 cumulative IPC: 0.02049 (Simulation time: 07 hr 19 min 02 sec)
Simulation CPU 0 warning: IPC 0.027736 < 0.05
Simulation CPU 0 warning: IPC 0.038875 < 0.05
Simulation CPU 0 warning: IPC 0.02928 < 0.05
[ERROR_CYCLE] Error added at CPU cycle 5392162676, interval 116, pending count: 1
[DRAM_CYCLE_ERROR] Cycle-based error applied! address=0x7d72bce30 additional_latency=2459910500 cycles
Simulation CPU 0 panic: IPC 0 < 0.01
Simulation CPU 0 warning: IPC 0.044337 < 0.05
[ERROR_CYCLE] Error added at CPU cycle 5438646838, interval 117, pending count: 1
Simulation CPU 0 critical: IPC 0.018666 < 0.02
[DRAM_CYCLE_ERROR] Cycle-based error applied! address=0x5544d4b70 additional_latency=2459910500 cycles
Simulation CPU 0 panic: IPC 0 < 0.01
Simulation CPU 0 critical: IPC 0.016531 < 0.02
Simulation CPU 0 panic: IPC 0.0051826 < 0.01
Simulation CPU 0 warning: IPC 0.040354 < 0.05
[ERROR_CYCLE] Error added at CPU cycle 5485130999, interval 118, pending count: 1
[DRAM_CYCLE_ERROR] Cycle-based error applied! address=0x7d72c3e68 additional_latency=2459910500 cycles
Simulation CPU 0 warning: IPC 0.049623 < 0.05
Simulation CPU 0 panic: IPC 0 < 0.01
Simulation CPU 0 panic: IPC 0.0031006 < 0.01
Simulation CPU 0 warning: IPC 0.039765 < 0.05
Simulation CPU 0 warning: IPC 0.042094 < 0.05
[ERROR_CYCLE] Error added at CPU cycle 5531615160, interval 119, pending count: 1
[DRAM_CYCLE_ERROR] Cycle-based error applied! address=0x57d700018 additional_latency=2459910500 cycles
Simulation CPU 0 panic: IPC 0 < 0.01
Simulation CPU 0 panic: IPC 0.0050182 < 0.01
Simulation CPU 0 panic: IPC 0.0031061 < 0.01
Simulation CPU 0 warning: IPC 0.027917 < 0.05
[ERROR_CYCLE] Error added at CPU cycle 5578099321, interval 120, pending count: 1
Simulation CPU 0 warning: IPC 0.027928 < 0.05
[DRAM_CYCLE_ERROR] Cycle-based error applied! address=0x67ae9eeb0 additional_latency=2459910500 cycles
Simulation CPU 0 panic: IPC 0 < 0.01
Simulation CPU 0 warning: IPC 0.02941 < 0.05
Simulation CPU 0 panic: IPC 0.0034031 < 0.01
Simulation CPU 0 warning: IPC 0.038529 < 0.05
[ERROR_CYCLE] Error added at CPU cycle 5624583481, interval 121, pending count: 1
[DRAM_CYCLE_ERROR] Cycle-based error applied! address=0x7d72ce958 additional_latency=2459910500 cycles
Simulation CPU 0 panic: IPC 0.0031022 < 0.01
Simulation CPU 0 warning: IPC 0.0235 < 0.05
Simulation CPU 0 warning: IPC 0.029381 < 0.05
Simulation CPU 0 warning: IPC 0.043702 < 0.05
Simulation CPU 0 warning: IPC 0.033681 < 0.05
[ERROR_CYCLE] Error added at CPU cycle 5671067642, interval 122, pending count: 1
[DRAM_CYCLE_ERROR] Cycle-based error applied! address=0x41d761960 additional_latency=2459910500 cycles
Simulation CPU 0 warning: IPC 0.022844 < 0.05
Simulation CPU 0 panic: IPC 0.0081954 < 0.01
Simulation CPU 0 critical: IPC 0.01241 < 0.02
Simulation CPU 0 critical: IPC 0.012429 < 0.02
[ERROR_CYCLE] Error added at CPU cycle 5717551803, interval 123, pending count: 1
[DRAM_CYCLE_ERROR] Cycle-based error applied! address=0x71624158 additional_latency=2459910500 cycles
Simulation CPU 0 panic: IPC 0 < 0.01
Simulation CPU 0 panic: IPC 0.000472 < 0.01
Simulation CPU 0 panic: IPC 0.0026337 < 0.01
Simulation CPU 0 panic: IPC 0.0062042 < 0.01
Simulation CPU 0 panic: IPC 0.0031006 < 0.01
[ERROR_CYCLE] Error added at CPU cycle 5764035964, interval 124, pending count: 1
[DRAM_CYCLE_ERROR] Cycle-based error applied! address=0x325c92120 additional_latency=2459910500 cycles
Simulation CPU 0 panic: IPC 0 < 0.01
Simulation CPU 0 critical: IPC 0.019854 < 0.02
Simulation CPU 0 warning: IPC 0.03287 < 0.05
Simulation CPU 0 critical: IPC 0.01552 < 0.02
Simulation CPU 0 warning: IPC 0.021712 < 0.05
[ERROR_CYCLE] Error added at CPU cycle 5810520125, interval 125, pending count: 1
[DRAM_CYCLE_ERROR] Cycle-based error applied! address=0x6eadc03e8 additional_latency=2459910500 cycles
Simulation CPU 0 panic: IPC 0 < 0.01
Simulation CPU 0 panic: IPC 0.0031102 < 0.01
Simulation CPU 0 panic: IPC 0.0031226 < 0.01
Simulation CPU 0 critical: IPC 0.0124 < 0.02
[ERROR_CYCLE] Error added at CPU cycle 5857004286, interval 126, pending count: 1
[DRAM_CYCLE_ERROR] Cycle-based error applied! address=0x7d72e18e8 additional_latency=2459910500 cycles
Simulation CPU 0 warning: IPC 0.040328 < 0.05
Simulation CPU 0 panic: IPC 0 < 0.01
Simulation CPU 0 panic: IPC 0.0031012 < 0.01
Heartbeat CPU 0 instructions: 120000024 cycles: 5882556219 heartbeat IPC: 0.0195 cumulative IPC: 0.0204 (Simulation time: 07 hr 59 min 17 sec)
Simulation CPU 0 warning: IPC 0.031003 < 0.05
Simulation CPU 0 warning: IPC 0.021715 < 0.05
[ERROR_CYCLE] Error added at CPU cycle 5903488448, interval 127, pending count: 1
[DRAM_CYCLE_ERROR] Cycle-based error applied! address=0x7d72e58d0 additional_latency=2459910500 cycles
Simulation CPU 0 warning: IPC 0.021711 < 0.05
Simulation CPU 0 panic: IPC 0 < 0.01
Simulation CPU 0 critical: IPC 0.012397 < 0.02
Simulation CPU 0 warning: IPC 0.024816 < 0.05
[ERROR_CYCLE] Error added at CPU cycle 5949972609, interval 128, pending count: 1
Simulation CPU 0 panic: IPC 0.0083047 < 0.01
[DRAM_CYCLE_ERROR] Cycle-based error applied! address=0x5d9000010 additional_latency=2459910500 cycles
Simulation CPU 0 panic: IPC 0 < 0.01
Simulation CPU 0 warning: IPC 0.044415 < 0.05
Simulation CPU 0 warning: IPC 0.042085 < 0.05
Simulation CPU 0 warning: IPC 0.026159 < 0.05
[ERROR_CYCLE] Error added at CPU cycle 5996456770, interval 129, pending count: 1
Simulation CPU 0 panic: IPC 0.0062047 < 0.01
[DRAM_CYCLE_ERROR] Cycle-based error applied! address=0x1ec49ced8 additional_latency=2459910500 cycles
Simulation CPU 0 panic: IPC 0 < 0.01
Simulation CPU 0 critical: IPC 0.011248 < 0.02
[ERROR_CYCLE] Error added at CPU cycle 6042940931, interval 130, pending count: 1
[DRAM_CYCLE_ERROR] Cycle-based error applied! address=0xfed120ec8 additional_latency=2459910500 cycles
Simulation CPU 0 panic: IPC 0 < 0.01
Simulation CPU 0 panic: IPC 0.0061998 < 0.01
Simulation CPU 0 warning: IPC 0.043409 < 0.05
Simulation CPU 0 critical: IPC 0.015508 < 0.02
[ERROR_CYCLE] Error added at CPU cycle 6089425092, interval 131, pending count: 1
Simulation CPU 0 critical: IPC 0.012404 < 0.02
[DRAM_CYCLE_ERROR] Cycle-based error applied! address=0x8ffb196b0 additional_latency=2459910500 cycles
Simulation CPU 0 panic: IPC 0 < 0.01
Simulation CPU 0 panic: IPC 0.0031006 < 0.01
Simulation CPU 0 warning: IPC 0.027915 < 0.05
Simulation CPU 0 critical: IPC 0.015503 < 0.02
[ERROR_CYCLE] Error added at CPU cycle 6135909252, interval 132, pending count: 1
[DRAM_CYCLE_ERROR] Cycle-based error applied! address=0xec466aef8 additional_latency=2459910500 cycles
Simulation CPU 0 panic: IPC 0.0062005 < 0.01
Simulation CPU 0 panic: IPC 0.0070967 < 0.01
Simulation CPU 0 warning: IPC 0.029275 < 0.05
Simulation CPU 0 critical: IPC 0.016362 < 0.02
Simulation CPU 0 warning: IPC 0.031006 < 0.05
[ERROR_CYCLE] Error added at CPU cycle 6182393413, interval 133, pending count: 1
[DRAM_CYCLE_ERROR] Cycle-based error applied! address=0x7d72fb868 additional_latency=2459910500 cycles
Simulation CPU 0 panic: IPC 0 < 0.01
Simulation CPU 0 warning: IPC 0.032863 < 0.05
Simulation CPU 0 warning: IPC 0.043806 < 0.05
Simulation CPU 0 warning: IPC 0.025654 < 0.05
[ERROR_CYCLE] Error added at CPU cycle 6228877574, interval 134, pending count: 1
[DRAM_CYCLE_ERROR] Cycle-based error applied! address=0xcf90d148 additional_latency=2459910500 cycles
Simulation CPU 0 panic: IPC 0 < 0.01
Simulation CPU 0 warning: IPC 0.034125 < 0.05
Simulation CPU 0 critical: IPC 0.015505 < 0.02
Simulation CPU 0 panic: IPC 0.0062091 < 0.01
Simulation CPU 0 panic: IPC 0.0035924 < 0.01
[ERROR_CYCLE] Error added at CPU cycle 6275361735, interval 135, pending count: 1
[DRAM_CYCLE_ERROR] Cycle-based error applied! address=0x5c0ffa820 additional_latency=2459910500 cycles
Simulation CPU 0 panic: IPC 0 < 0.01
Simulation CPU 0 panic: IPC 0.0026332 < 0.01
Simulation CPU 0 warning: IPC 0.027907 < 0.05
Simulation CPU 0 warning: IPC 0.021717 < 0.05
Simulation CPU 0 critical: IPC 0.012402 < 0.02
[ERROR_CYCLE] Error added at CPU cycle 6321845896, interval 136, pending count: 1
[DRAM_CYCLE_ERROR] Cycle-based error applied! address=0x4a9a51b90 additional_latency=2459910500 cycles
Simulation CPU 0 panic: IPC 0 < 0.01
Simulation CPU 0 critical: IPC 0.01855 < 0.02
Simulation CPU 0 critical: IPC 0.012459 < 0.02
Simulation CPU 0 panic: IPC 0.0062102 < 0.01
[ERROR_CYCLE] Error added at CPU cycle 6368330057, interval 137, pending count: 1
[DRAM_CYCLE_ERROR] Cycle-based error applied! address=0x33150a828 additional_latency=2459910500 cycles
Simulation CPU 0 critical: IPC 0.012402 < 0.02
Simulation CPU 0 panic: IPC 0 < 0.01
Simulation CPU 0 critical: IPC 0.018601 < 0.02
Simulation CPU 0 panic: IPC 2.22e-05 < 0.01
Simulation CPU 0 warning: IPC 0.044861 < 0.05
Heartbeat CPU 0 instructions: 130000024 cycles: 6413896136 heartbeat IPC: 0.01882 cumulative IPC: 0.02027 (Simulation time: 08 hr 40 min 20 sec)
[ERROR_CYCLE] Error added at CPU cycle 6414814219, interval 138, pending count: 1
[DRAM_CYCLE_ERROR] Cycle-based error applied! address=0x18a1a6bc8 additional_latency=2459910500 cycles
Simulation CPU 0 warning: IPC 0.03347 < 0.05
Simulation CPU 0 warning: IPC 0.024808 < 0.05
[ERROR_CYCLE] Error added at CPU cycle 6461298380, interval 139, pending count: 1
[DRAM_CYCLE_ERROR] Cycle-based error applied! address=0x3315117c8 additional_latency=2459910500 cycles
Simulation CPU 0 panic: IPC 0 < 0.01
Simulation CPU 0 warning: IPC 0.021711 < 0.05
[ERROR_CYCLE] Error added at CPU cycle 6507782541, interval 140, pending count: 1
[DRAM_CYCLE_ERROR] Cycle-based error applied! address=0xd58134ea0 additional_latency=2459910500 cycles
Simulation CPU 0 panic: IPC 0.0019379 < 0.01
Simulation CPU 0 critical: IPC 0.016107 < 0.02
Simulation CPU 0 warning: IPC 0.038343 < 0.05
Simulation CPU 0 warning: IPC 0.023094 < 0.05
Simulation CPU 0 warning: IPC 0.021711 < 0.05
[ERROR_CYCLE] Error added at CPU cycle 6554266702, interval 141, pending count: 1
[DRAM_CYCLE_ERROR] Cycle-based error applied! address=0x98721e068 additional_latency=2459910500 cycles
Simulation CPU 0 panic: IPC 0 < 0.01
Simulation CPU 0 critical: IPC 0.01242 < 0.02
Simulation CPU 0 panic: IPC 1.8e-05 < 0.01
Simulation CPU 0 panic: IPC 0.0062084 < 0.01
[ERROR_CYCLE] Error added at CPU cycle 6600750863, interval 142, pending count: 1
[DRAM_CYCLE_ERROR] Cycle-based error applied! address=0x33151c000 additional_latency=2459910500 cycles
Simulation CPU 0 panic: IPC 0 < 0.01
Simulation CPU 0 panic: IPC 0.0096442 < 0.01
Simulation CPU 0 critical: IPC 0.017865 < 0.02
[ERROR_CYCLE] Error added at CPU cycle 6647235023, interval 143, pending count: 1
[DRAM_CYCLE_ERROR] Cycle-based error applied! address=0x208300018 additional_latency=2459910500 cycles
Simulation CPU 0 panic: IPC 0 < 0.01
Simulation CPU 0 warning: IPC 0.029684 < 0.05
Simulation CPU 0 warning: IPC 0.029309 < 0.05
[ERROR_CYCLE] Error added at CPU cycle 6693719184, interval 144, pending count: 1
[DRAM_CYCLE_ERROR] Cycle-based error applied! address=0x331523028 additional_latency=2459910500 cycles
Simulation CPU 0 panic: IPC 0.000148 < 0.01
Simulation CPU 0 warning: IPC 0.03571 < 0.05
Simulation CPU 0 warning: IPC 0.029247 < 0.05
Heartbeat CPU 0 instructions: 140000027 cycles: 6721081345 heartbeat IPC: 0.03255 cumulative IPC: 0.02083 (Simulation time: 09 hr 04 min 19 sec)
Simulation CPU 0 warning: IPC 0.049775 < 0.05
[ERROR_CYCLE] Error added at CPU cycle 6740203345, interval 145, pending count: 1
[DRAM_CYCLE_ERROR] Cycle-based error applied! address=0xdeb500008 additional_latency=2459910500 cycles
Simulation CPU 0 panic: IPC 0 < 0.01
Simulation CPU 0 warning: IPC 0.043766 < 0.05
Simulation CPU 0 critical: IPC 0.012422 < 0.02
[ERROR_CYCLE] Error added at CPU cycle 6786687506, interval 146, pending count: 1
[DRAM_CYCLE_ERROR] Cycle-based error applied! address=0x33152a710 additional_latency=2459910500 cycles
Simulation CPU 0 panic: IPC 0.003115 < 0.01
Simulation CPU 0 panic: IPC 0 < 0.01
Simulation CPU 0 warning: IPC 0.027918 < 0.05
Simulation CPU 0 critical: IPC 0.017531 < 0.02
[ERROR_CYCLE] Error added at CPU cycle 6833171667, interval 147, pending count: 1
[DRAM_CYCLE_ERROR] Cycle-based error applied! address=0xddd079110 additional_latency=2459910500 cycles
Simulation CPU 0 warning: IPC 0.029798 < 0.05
[ERROR_CYCLE] Error added at CPU cycle 6879655828, interval 148, pending count: 1
Simulation CPU 0 critical: IPC 0.013859 < 0.02
[DRAM_CYCLE_ERROR] Cycle-based error applied! address=0x331531080 additional_latency=2459910500 cycles
Simulation CPU 0 panic: IPC 0 < 0.01
Simulation CPU 0 critical: IPC 0.015247 < 0.02
[ERROR_CYCLE] Error added at CPU cycle 6926139990, interval 149, pending count: 1
[DRAM_CYCLE_ERROR] Cycle-based error applied! address=0x24f300008 additional_latency=2459910500 cycles
Simulation CPU 0 panic: IPC 0 < 0.01
Simulation CPU 0 warning: IPC 0.029599 < 0.05
Simulation CPU 0 warning: IPC 0.029328 < 0.05
Simulation CPU 0 warning: IPC 0.029593 < 0.05
[ERROR_CYCLE] Error added at CPU cycle 6972624151, interval 150, pending count: 1
[DRAM_CYCLE_ERROR] Cycle-based error applied! address=0x3315380a8 additional_latency=2459910500 cycles
Simulation CPU 0 panic: IPC 0 < 0.01
Heartbeat CPU 0 instructions: 150000029 cycles: 6990718346 heartbeat IPC: 0.03709 cumulative IPC: 0.02146 (Simulation time: 09 hr 25 min 09 sec)
Simulation CPU 0 panic: IPC 0.0046596 < 0.01
Simulation CPU 0 warning: IPC 0.035377 < 0.05
[ERROR_CYCLE] Error added at CPU cycle 7019108312, interval 151, pending count: 1
[DRAM_CYCLE_ERROR] Cycle-based error applied! address=0x8d4260dd0 additional_latency=2459910500 cycles
Simulation CPU 0 panic: IPC 0.001886 < 0.01
Simulation CPU 0 warning: IPC 0.026563 < 0.05
Simulation CPU 0 critical: IPC 0.015468 < 0.02
Simulation CPU 0 critical: IPC 0.010732 < 0.02
Simulation CPU 0 panic: IPC 0.0062005 < 0.01
[ERROR_CYCLE] Error added at CPU cycle 7065592473, interval 152, pending count: 1
[DRAM_CYCLE_ERROR] Cycle-based error applied! address=0xfc7997eb8 additional_latency=2459910500 cycles
Simulation CPU 0 panic: IPC 0 < 0.01
Simulation CPU 0 warning: IPC 0.031666 < 0.05
Simulation CPU 0 critical: IPC 0.010758 < 0.02
[ERROR_CYCLE] Error added at CPU cycle 7112076634, interval 153, pending count: 1
[DRAM_CYCLE_ERROR] Cycle-based error applied! address=0x331543670 additional_latency=2459910500 cycles
Simulation CPU 0 panic: IPC 0 < 0.01
Simulation CPU 0 warning: IPC 0.023191 < 0.05
Simulation CPU 0 panic: IPC 0.0001776 < 0.01
Simulation CPU 0 panic: IPC 6.32e-05 < 0.01
[ERROR_CYCLE] Error added at CPU cycle 7158560794, interval 154, pending count: 1
Simulation CPU 0 panic: IPC 1.28e-05 < 0.01
[DRAM_CYCLE_ERROR] Cycle-based error applied! address=0x331547378 additional_latency=2459910500 cycles
Simulation CPU 0 panic: IPC 0 < 0.01
Simulation CPU 0 panic: IPC 9.12e-05 < 0.01
Simulation CPU 0 panic: IPC 8.8e-05 < 0.01
[ERROR_CYCLE] Error added at CPU cycle 7205044955, interval 155, pending count: 1
[DRAM_CYCLE_ERROR] Cycle-based error applied! address=0xd1b202390 additional_latency=2459910500 cycles
Simulation CPU 0 panic: IPC 0.000792 < 0.01
Simulation CPU 0 panic: IPC 0.0062661 < 0.01
Simulation CPU 0 panic: IPC 0.0082158 < 0.01
Simulation CPU 0 critical: IPC 0.015516 < 0.02
[ERROR_CYCLE] Error added at CPU cycle 7251529116, interval 156, pending count: 1
[DRAM_CYCLE_ERROR] Cycle-based error applied! address=0x798a77a48 additional_latency=2459910500 cycles
Simulation CPU 0 panic: IPC 0 < 0.01
Simulation CPU 0 critical: IPC 0.012422 < 0.02
Simulation CPU 0 panic: IPC 0.0062005 < 0.01
Simulation CPU 0 panic: IPC 0.0031178 < 0.01
[ERROR_CYCLE] Error added at CPU cycle 7298013277, interval 157, pending count: 1
[DRAM_CYCLE_ERROR] Cycle-based error applied! address=0x331552100 additional_latency=2459910500 cycles
Simulation CPU 0 warning: IPC 0.041114 < 0.05
Simulation CPU 0 panic: IPC 0 < 0.01
[ERROR_CYCLE] Error added at CPU cycle 7344497438, interval 158, pending count: 1
[DRAM_CYCLE_ERROR] Cycle-based error applied! address=0xa933bfc48 additional_latency=2459910500 cycles
Simulation CPU 0 panic: IPC 0 < 0.01
Simulation CPU 0 panic: IPC 0.0053959 < 0.01
Simulation CPU 0 panic: IPC 0.0093168 < 0.01
[ERROR_CYCLE] Error added at CPU cycle 7390981599, interval 159, pending count: 1
[DRAM_CYCLE_ERROR] Cycle-based error applied! address=0x331559600 additional_latency=2459910500 cycles
Simulation CPU 0 panic: IPC 0 < 0.01
Simulation CPU 0 critical: IPC 0.012403 < 0.02
Simulation CPU 0 warning: IPC 0.046508 < 0.05
Simulation CPU 0 warning: IPC 0.026223 < 0.05
[ERROR_CYCLE] Error added at CPU cycle 7437465761, interval 160, pending count: 1
[DRAM_CYCLE_ERROR] Cycle-based error applied! address=0x95c818a90 additional_latency=2459910500 cycles
Simulation CPU 0 panic: IPC 0.0092237 < 0.01
Heartbeat CPU 0 instructions: 160000031 cycles: 7447543650 heartbeat IPC: 0.02189 cumulative IPC: 0.02148 (Simulation time: 10 hr 00 min 37 sec)
Simulation CPU 0 warning: IPC 0.026708 < 0.05
Simulation CPU 0 warning: IPC 0.024333 < 0.05
[ERROR_CYCLE] Error added at CPU cycle 7483949922, interval 161, pending count: 1
[DRAM_CYCLE_ERROR] Cycle-based error applied! address=0x3315605d0 additional_latency=2459910500 cycles
Simulation CPU 0 panic: IPC 0 < 0.01
Simulation CPU 0 warning: IPC 0.037209 < 0.05
Simulation CPU 0 warning: IPC 0.035847 < 0.05
Simulation CPU 0 warning: IPC 0.038053 < 0.05
[ERROR_CYCLE] Error added at CPU cycle 7530434083, interval 162, pending count: 1
[DRAM_CYCLE_ERROR] Cycle-based error applied! address=0xf18312b68 additional_latency=2459910500 cycles
Simulation CPU 0 panic: IPC 0 < 0.01
Simulation CPU 0 panic: IPC 0.0062005 < 0.01
Simulation CPU 0 warning: IPC 0.043413 < 0.05
[ERROR_CYCLE] Error added at CPU cycle 7576918244, interval 163, pending count: 1
Simulation CPU 0 panic: IPC 7.2e-05 < 0.01
[DRAM_CYCLE_ERROR] Cycle-based error applied! address=0xa013b2760 additional_latency=2459910500 cycles
Simulation CPU 0 panic: IPC 0 < 0.01
Simulation CPU 0 critical: IPC 0.012125 < 0.02
Simulation CPU 0 critical: IPC 0.018609 < 0.02
[ERROR_CYCLE] Error added at CPU cycle 7623402405, interval 164, pending count: 1
[DRAM_CYCLE_ERROR] Cycle-based error applied! address=0x33156b5b0 additional_latency=2459910500 cycles
Simulation CPU 0 critical: IPC 0.01109 < 0.02
Simulation CPU 0 panic: IPC 0 < 0.01
Simulation CPU 0 warning: IPC 0.034133 < 0.05
Simulation CPU 0 warning: IPC 0.024823 < 0.05
[ERROR_CYCLE] Error added at CPU cycle 7669886565, interval 165, pending count: 1
Simulation CPU 0 critical: IPC 0.013086 < 0.02
[DRAM_CYCLE_ERROR] Cycle-based error applied! address=0xf3d400008 additional_latency=2459910500 cycles
Simulation CPU 0 panic: IPC 0 < 0.01
Simulation CPU 0 critical: IPC 0.015506 < 0.02
Simulation CPU 0 warning: IPC 0.033606 < 0.05
[ERROR_CYCLE] Error added at CPU cycle 7716370726, interval 166, pending count: 1
Simulation CPU 0 critical: IPC 0.012934 < 0.02
[DRAM_CYCLE_ERROR] Cycle-based error applied! address=0x460bd43e8 additional_latency=2459910500 cycles
Simulation CPU 0 panic: IPC 0.0039332 < 0.01
Simulation CPU 0 warning: IPC 0.029409 < 0.05
Simulation CPU 0 warning: IPC 0.02789 < 0.05
Simulation CPU 0 warning: IPC 0.031223 < 0.05
[ERROR_CYCLE] Error added at CPU cycle 7762854887, interval 167, pending count: 1
[DRAM_CYCLE_ERROR] Cycle-based error applied! address=0x331576578 additional_latency=2459910500 cycles
Simulation CPU 0 warning: IPC 0.022293 < 0.05
Simulation CPU 0 critical: IPC 0.013683 < 0.02
Simulation CPU 0 warning: IPC 0.029312 < 0.05
Simulation CPU 0 warning: IPC 0.029765 < 0.05
[ERROR_CYCLE] Error added at CPU cycle 7809339048, interval 168, pending count: 1
[DRAM_CYCLE_ERROR] Cycle-based error applied! address=0xe91109388 additional_latency=2459910500 cycles
Simulation CPU 0 panic: IPC 0.0037463 < 0.01
Heartbeat CPU 0 instructions: 170000034 cycles: 7819997750 heartbeat IPC: 0.02685 cumulative IPC: 0.02174 (Simulation time: 10 hr 31 min 04 sec)
Simulation CPU 0 warning: IPC 0.031705 < 0.05
Simulation CPU 0 warning: IPC 0.029688 < 0.05
Simulation CPU 0 critical: IPC 0.01439 < 0.02
[ERROR_CYCLE] Error added at CPU cycle 7855823209, interval 169, pending count: 1
[DRAM_CYCLE_ERROR] Cycle-based error applied! address=0x33157dbb0 additional_latency=2459910500 cycles
Simulation CPU 0 warning: IPC 0.046981 < 0.05
Simulation CPU 0 panic: IPC 0 < 0.01
Simulation CPU 0 panic: IPC 0.008829 < 0.01
Simulation CPU 0 critical: IPC 0.015303 < 0.02
Simulation CPU 0 warning: IPC 0.029748 < 0.05
[ERROR_CYCLE] Error added at CPU cycle 7902307370, interval 170, pending count: 1
[DRAM_CYCLE_ERROR] Cycle-based error applied! address=0x3315811c8 additional_latency=2459910500 cycles
Simulation CPU 0 warning: IPC 0.041765 < 0.05
Simulation CPU 0 panic: IPC 0 < 0.01
Simulation CPU 0 warning: IPC 0.023431 < 0.05
Simulation CPU 0 critical: IPC 0.019975 < 0.02
[ERROR_CYCLE] Error added at CPU cycle 7948791532, interval 171, pending count: 1
[DRAM_CYCLE_ERROR] Cycle-based error applied! address=0x1c25ec178 additional_latency=2459910500 cycles
Simulation CPU 0 panic: IPC 0 < 0.01
Simulation CPU 0 panic: IPC 0.0031014 < 0.01
Simulation CPU 0 critical: IPC 0.01244 < 0.02
Simulation CPU 0 panic: IPC 0.0093023 < 0.01
[ERROR_CYCLE] Error added at CPU cycle 7995275693, interval 172, pending count: 1
[DRAM_CYCLE_ERROR] Cycle-based error applied! address=0x4fe700020 additional_latency=2459910500 cycles
Simulation CPU 0 panic: IPC 0 < 0.01
Simulation CPU 0 panic: IPC 0.0039242 < 0.01
Simulation CPU 0 warning: IPC 0.031004 < 0.05
Simulation CPU 0 critical: IPC 0.012398 < 0.02
Simulation CPU 0 panic: IPC 0.0093252 < 0.01
[ERROR_CYCLE] Error added at CPU cycle 8041759854, interval 173, pending count: 1
[DRAM_CYCLE_ERROR] Cycle-based error applied! address=0x33158c1e8 additional_latency=2459910500 cycles
Simulation CPU 0 panic: IPC 0 < 0.01
Simulation CPU 0 warning: IPC 0.040326 < 0.05
Simulation CPU 0 warning: IPC 0.023187 < 0.05
Simulation CPU 0 critical: IPC 0.017137 < 0.02
[ERROR_CYCLE] Error added at CPU cycle 8088244015, interval 174, pending count: 1
Simulation CPU 0 panic: IPC 0.0062122 < 0.01
[DRAM_CYCLE_ERROR] Cycle-based error applied! address=0x331590398 additional_latency=2459910500 cycles
Simulation CPU 0 panic: IPC 0 < 0.01
Simulation CPU 0 warning: IPC 0.025978 < 0.05
Simulation CPU 0 critical: IPC 0.014341 < 0.02
Simulation CPU 0 critical: IPC 0.012879 < 0.02
[ERROR_CYCLE] Error added at CPU cycle 8134728176, interval 175, pending count: 1
[DRAM_CYCLE_ERROR] Cycle-based error applied! address=0x655b8d020 additional_latency=2459910500 cycles
Simulation CPU 0 critical: IPC 0.013138 < 0.02
Simulation CPU 0 warning: IPC 0.029805 < 0.05
Simulation CPU 0 critical: IPC 0.012407 < 0.02
[ERROR_CYCLE] Error added at CPU cycle 8181212336, interval 176, pending count: 1
[DRAM_CYCLE_ERROR] Cycle-based error applied! address=0x331597210 additional_latency=2459910500 cycles
Simulation CPU 0 panic: IPC 0 < 0.01
Simulation CPU 0 warning: IPC 0.02269 < 0.05
[ERROR_CYCLE] Error added at CPU cycle 8227696497, interval 177, pending count: 1
[DRAM_CYCLE_ERROR] Cycle-based error applied! address=0xfb992e110 additional_latency=2459910500 cycles
Simulation CPU 0 panic: IPC 0 < 0.01
Simulation CPU 0 panic: IPC 0.0031042 < 0.01
Simulation CPU 0 critical: IPC 0.012418 < 0.02
Heartbeat CPU 0 instructions: 180000036 cycles: 8257705008 heartbeat IPC: 0.02285 cumulative IPC: 0.0218 (Simulation time: 11 hr 08 min 02 sec)
Simulation CPU 0 warning: IPC 0.020462 < 0.05
[ERROR_CYCLE] Error added at CPU cycle 8274180658, interval 178, pending count: 1
[DRAM_CYCLE_ERROR] Cycle-based error applied! address=0xee31b058 additional_latency=2459910500 cycles
Simulation CPU 0 panic: IPC 0 < 0.01
Simulation CPU 0 critical: IPC 0.015522 < 0.02
Simulation CPU 0 warning: IPC 0.043406 < 0.05
Simulation CPU 0 warning: IPC 0.021745 < 0.05
Simulation CPU 0 warning: IPC 0.032056 < 0.05
[ERROR_CYCLE] Error added at CPU cycle 8320664819, interval 179, pending count: 1
[DRAM_CYCLE_ERROR] Cycle-based error applied! address=0x3315a2240 additional_latency=2459910500 cycles
Simulation CPU 0 panic: IPC 0 < 0.01
Simulation CPU 0 warning: IPC 0.035458 < 0.05
Simulation CPU 0 critical: IPC 0.010562 < 0.02
[ERROR_CYCLE] Error added at CPU cycle 8367148980, interval 180, pending count: 1
[DRAM_CYCLE_ERROR] Cycle-based error applied! address=0x77c5fba98 additional_latency=2459910500 cycles
Simulation CPU 0 panic: IPC 0 < 0.01
Simulation CPU 0 critical: IPC 0.012168 < 0.02
Simulation CPU 0 critical: IPC 0.015751 < 0.02
Simulation CPU 0 warning: IPC 0.031615 < 0.05
[ERROR_CYCLE] Error added at CPU cycle 8413633141, interval 181, pending count: 1
[DRAM_CYCLE_ERROR] Cycle-based error applied! address=0x3315a9e58 additional_latency=2459910500 cycles
Simulation CPU 0 panic: IPC 0.0024917 < 0.01
Simulation CPU 0 warning: IPC 0.03304 < 0.05
Simulation CPU 0 panic: IPC 0.0094984 < 0.01
Simulation CPU 0 warning: IPC 0.025705 < 0.05
Simulation CPU 0 warning: IPC 0.031024 < 0.05
[ERROR_CYCLE] Error added at CPU cycle 8460117303, interval 182, pending count: 1
[DRAM_CYCLE_ERROR] Cycle-based error applied! address=0x3315ad490 additional_latency=2459910500 cycles
Simulation CPU 0 panic: IPC 0 < 0.01
Simulation CPU 0 panic: IPC 0.0031006 < 0.01
Simulation CPU 0 warning: IPC 0.048184 < 0.05
Simulation CPU 0 critical: IPC 0.016987 < 0.02
[ERROR_CYCLE] Error added at CPU cycle 8506601464, interval 183, pending count: 1
[DRAM_CYCLE_ERROR] Cycle-based error applied! address=0x8da640020 additional_latency=2459910500 cycles
Simulation CPU 0 panic: IPC 0 < 0.01
Simulation CPU 0 warning: IPC 0.027915 < 0.05
Simulation CPU 0 warning: IPC 0.021723 < 0.05
Simulation CPU 0 warning: IPC 0.023849 < 0.05
[ERROR_CYCLE] Error added at CPU cycle 8553085625, interval 184, pending count: 1
[DRAM_CYCLE_ERROR] Cycle-based error applied! address=0x3315b4380 additional_latency=2459910500 cycles
Simulation CPU 0 panic: IPC 0 < 0.01
Simulation CPU 0 panic: IPC 0.0062432 < 0.01
Simulation CPU 0 panic: IPC 0.0031058 < 0.01
Simulation CPU 0 panic: IPC 0.000472 < 0.01
[ERROR_CYCLE] Error added at CPU cycle 8599569786, interval 185, pending count: 1
Simulation CPU 0 warning: IPC 0.021234 < 0.05
[DRAM_CYCLE_ERROR] Cycle-based error applied! address=0x3315b8440 additional_latency=2459910500 cycles
Simulation CPU 0 panic: IPC 0 < 0.01
Simulation CPU 0 critical: IPC 0.012413 < 0.02
Simulation CPU 0 critical: IPC 0.012408 < 0.02
Simulation CPU 0 critical: IPC 0.012414 < 0.02
[ERROR_CYCLE] Error added at CPU cycle 8646053947, interval 186, pending count: 1
[DRAM_CYCLE_ERROR] Cycle-based error applied! address=0x3315bc620 additional_latency=2459910500 cycles
Simulation CPU 0 panic: IPC 0.003106 < 0.01
Simulation CPU 0 panic: IPC 0 < 0.01
Simulation CPU 0 panic: IPC 0.0062046 < 0.01
Simulation CPU 0 panic: IPC 0.0093342 < 0.01
Simulation CPU 0 critical: IPC 0.018628 < 0.02
[ERROR_CYCLE] Error added at CPU cycle 8692538107, interval 187, pending count: 1
[DRAM_CYCLE_ERROR] Cycle-based error applied! address=0x3315c0310 additional_latency=2459910500 cycles
Simulation CPU 0 panic: IPC 0.0016322 < 0.01
Simulation CPU 0 panic: IPC 0 < 0.01
Simulation CPU 0 panic: IPC 0.00122 < 0.01
Simulation CPU 0 panic: IPC 5.2e-05 < 0.01
[ERROR_CYCLE] Error added at CPU cycle 8739022268, interval 188, pending count: 1
Simulation CPU 0 panic: IPC 8e-06 < 0.01
[DRAM_CYCLE_ERROR] Cycle-based error applied! address=0x3315c4338 additional_latency=2459910500 cycles
Simulation CPU 0 panic: IPC 0 < 0.01
Simulation CPU 0 panic: IPC 8.8e-06 < 0.01
Simulation CPU 0 panic: IPC 1.6e-05 < 0.01
Simulation CPU 0 panic: IPC 1.6e-06 < 0.01
[ERROR_CYCLE] Error added at CPU cycle 8785506429, interval 189, pending count: 1
[DRAM_CYCLE_ERROR] Cycle-based error applied! address=0xc364a0fb0 additional_latency=2459910500 cycles
Simulation CPU 0 panic: IPC 0 < 0.01
Simulation CPU 0 panic: IPC 8.8e-06 < 0.01
Simulation CPU 0 panic: IPC 1.76e-05 < 0.01
Simulation CPU 0 panic: IPC 1.6e-06 < 0.01
Simulation CPU 0 panic: IPC 8.8e-06 < 0.01
[ERROR_CYCLE] Error added at CPU cycle 8831990590, interval 190, pending count: 1
[DRAM_CYCLE_ERROR] Cycle-based error applied! address=0x183fde388 additional_latency=2459910500 cycles
Simulation CPU 0 panic: IPC 0 < 0.01
Simulation CPU 0 panic: IPC 8e-06 < 0.01
Simulation CPU 0 panic: IPC 3.2e-05 < 0.01
Simulation CPU 0 panic: IPC 2.4e-05 < 0.01
[ERROR_CYCLE] Error added at CPU cycle 8878474751, interval 191, pending count: 1
[DRAM_CYCLE_ERROR] Cycle-based error applied! address=0x599c4efc0 additional_latency=2459910500 cycles
Simulation CPU 0 panic: IPC 1.6e-05 < 0.01
Simulation CPU 0 panic: IPC 1.6e-06 < 0.01
Simulation CPU 0 panic: IPC 1.04e-05 < 0.01
Simulation CPU 0 panic: IPC 1.84e-05 < 0.01
Simulation CPU 0 panic: IPC 0.0062424 < 0.01
[ERROR_CYCLE] Error added at CPU cycle 8924958912, interval 192, pending count: 1
[DRAM_CYCLE_ERROR] Cycle-based error applied! address=0x8f04d40e8 additional_latency=2459910500 cycles
Simulation CPU 0 panic: IPC 0 < 0.01
Simulation CPU 0 warning: IPC 0.021714 < 0.05
Heartbeat CPU 0 instructions: 190000039 cycles: 8957753542 heartbeat IPC: 0.01428 cumulative IPC: 0.02121 (Simulation time: 12 hr 04 min 17 sec)
Simulation CPU 0 critical: IPC 0.010883 < 0.02
[ERROR_CYCLE] Error added at CPU cycle 8971443074, interval 193, pending count: 1
[DRAM_CYCLE_ERROR] Cycle-based error applied! address=0x3315d72b8 additional_latency=2459910500 cycles
Simulation CPU 0 panic: IPC 0 < 0.01
Simulation CPU 0 warning: IPC 0.029698 < 0.05
[ERROR_CYCLE] Error added at CPU cycle 9017927235, interval 194, pending count: 1
[DRAM_CYCLE_ERROR] Cycle-based error applied! address=0x8bd500010 additional_latency=2459910500 cycles
Simulation CPU 0 panic: IPC 0 < 0.01
Simulation CPU 0 warning: IPC 0.022173 < 0.05
Simulation CPU 0 panic: IPC 0.0062151 < 0.01
Simulation CPU 0 panic: IPC 0.0031012 < 0.01
[ERROR_CYCLE] Error added at CPU cycle 9064411396, interval 195, pending count: 1
[DRAM_CYCLE_ERROR] Cycle-based error applied! address=0x3315de2e0 additional_latency=2459910500 cycles
Simulation CPU 0 panic: IPC 0 < 0.01
Simulation CPU 0 critical: IPC 0.0186 < 0.02
Simulation CPU 0 warning: IPC 0.032853 < 0.05
Simulation CPU 0 warning: IPC 0.049316 < 0.05
[ERROR_CYCLE] Error added at CPU cycle 9110895557, interval 196, pending count: 1
[DRAM_CYCLE_ERROR] Cycle-based error applied! address=0x960000020 additional_latency=2459910500 cycles
Simulation CPU 0 panic: IPC 0 < 0.01
Simulation CPU 0 critical: IPC 0.010886 < 0.02
[ERROR_CYCLE] Error added at CPU cycle 9157379718, interval 197, pending count: 1
[DRAM_CYCLE_ERROR] Cycle-based error applied! address=0x3315e5308 additional_latency=2459910500 cycles
Simulation CPU 0 warning: IPC 0.043639 < 0.05
Simulation CPU 0 panic: IPC 0 < 0.01
Simulation CPU 0 warning: IPC 0.02171 < 0.05
Simulation CPU 0 warning: IPC 0.031028 < 0.05
[ERROR_CYCLE] Error added at CPU cycle 9203863878, interval 198, pending count: 1
[DRAM_CYCLE_ERROR] Cycle-based error applied! address=0x559a1aa10 additional_latency=2459910500 cycles
Simulation CPU 0 panic: IPC 0 < 0.01
Heartbeat CPU 0 instructions: 200000040 cycles: 9236630116 heartbeat IPC: 0.03586 cumulative IPC: 0.02165 (Simulation time: 12 hr 28 min 58 sec)
Simulation CPU 0 critical: IPC 0.013999 < 0.02
[ERROR_CYCLE] Error added at CPU cycle 9250348039, interval 199, pending count: 1
[DRAM_CYCLE_ERROR] Cycle-based error applied! address=0x3315ec388 additional_latency=2459910500 cycles
Simulation CPU 0 panic: IPC 0 < 0.01
Simulation CPU 0 panic: IPC 0.0062028 < 0.01
Simulation CPU 0 warning: IPC 0.024822 < 0.05
Simulation CPU 0 critical: IPC 0.012403 < 0.02
[ERROR_CYCLE] Error added at CPU cycle 9296832200, interval 200, pending count: 1
[DRAM_CYCLE_ERROR] Cycle-based error applied! address=0xc05bcf280 additional_latency=2459910500 cycles
Simulation CPU 0 warning: IPC 0.035289 < 0.05
Simulation CPU 0 panic: IPC 0.001935 < 0.01
Simulation CPU 0 critical: IPC 0.016398 < 0.02
Simulation CPU 0 warning: IPC 0.045658 < 0.05
Simulation CPU 0 panic: IPC 0.0062005 < 0.01
[ERROR_CYCLE] Error added at CPU cycle 9343316361, interval 201, pending count: 1
[DRAM_CYCLE_ERROR] Cycle-based error applied! address=0x587e6a398 additional_latency=2459910500 cycles
Simulation CPU 0 panic: IPC 0 < 0.01
Simulation CPU 0 critical: IPC 0.012413 < 0.02
Simulation CPU 0 panic: IPC 0.0031006 < 0.01
Simulation CPU 0 critical: IPC 0.018607 < 0.02
[ERROR_CYCLE] Error added at CPU cycle 9389800522, interval 202, pending count: 1
Simulation CPU 0 warning: IPC 0.027901 < 0.05
[DRAM_CYCLE_ERROR] Cycle-based error applied! address=0x1ae02bd70 additional_latency=2459910500 cycles
Simulation CPU 0 panic: IPC 0 < 0.01
Simulation CPU 0 panic: IPC 0.0079078 < 0.01
Simulation CPU 0 critical: IPC 0.019532 < 0.02
[ERROR_CYCLE] Error added at CPU cycle 9436284683, interval 203, pending count: 1
[DRAM_CYCLE_ERROR] Cycle-based error applied! address=0x3315fb368 additional_latency=2459910500 cycles
Simulation CPU 0 panic: IPC 0 < 0.01
Simulation CPU 0 warning: IPC 0.034121 < 0.05
[ERROR_CYCLE] Error added at CPU cycle 9482768845, interval 204, pending count: 1
[DRAM_CYCLE_ERROR] Cycle-based error applied! address=0x76b565528 additional_latency=2459910500 cycles
Simulation CPU 0 panic: IPC 0 < 0.01
Simulation CPU 0 warning: IPC 0.021734 < 0.05
Simulation CPU 0 panic: IPC 0.0062449 < 0.01
Simulation CPU 0 warning: IPC 0.040363 < 0.05
[ERROR_CYCLE] Error added at CPU cycle 9529253006, interval 205, pending count: 1
Simulation CPU 0 warning: IPC 0.030228 < 0.05
[DRAM_CYCLE_ERROR] Cycle-based error applied! address=0x254602398 additional_latency=2459910500 cycles
Simulation CPU 0 panic: IPC 0 < 0.01
Simulation CPU 0 warning: IPC 0.024807 < 0.05
[ERROR_CYCLE] Error added at CPU cycle 9575737167, interval 206, pending count: 1
[DRAM_CYCLE_ERROR] Cycle-based error applied! address=0xdf58da9b8 additional_latency=2459910500 cycles
Simulation CPU 0 panic: IPC 0 < 0.01
Simulation CPU 0 warning: IPC 0.041678 < 0.05
Heartbeat CPU 0 instructions: 210000042 cycles: 9609079987 heartbeat IPC: 0.02685 cumulative IPC: 0.02185 (Simulation time: 13 hr 01 min 31 sec)
Simulation CPU 0 warning: IPC 0.02102 < 0.05
[ERROR_CYCLE] Error added at CPU cycle 9622221328, interval 207, pending count: 1
[DRAM_CYCLE_ERROR] Cycle-based error applied! address=0x2546092d0 additional_latency=2459910500 cycles
Simulation CPU 0 panic: IPC 0 < 0.01
Simulation CPU 0 warning: IPC 0.031015 < 0.05
Simulation CPU 0 warning: IPC 0.027771 < 0.05
Simulation CPU 0 warning: IPC 0.037359 < 0.05
[ERROR_CYCLE] Error added at CPU cycle 9668705488, interval 208, pending count: 1
[DRAM_CYCLE_ERROR] Cycle-based error applied! address=0x6b3a77ed8 additional_latency=2459910500 cycles
Simulation CPU 0 panic: IPC 0.0012128 < 0.01
Simulation CPU 0 warning: IPC 0.026714 < 0.05
Simulation CPU 0 warning: IPC 0.029891 < 0.05
Simulation CPU 0 warning: IPC 0.038322 < 0.05
Simulation CPU 0 warning: IPC 0.049715 < 0.05
[ERROR_CYCLE] Error added at CPU cycle 9715189649, interval 209, pending count: 1
[DRAM_CYCLE_ERROR] Cycle-based error applied! address=0xe13100000 additional_latency=2459910500 cycles
Simulation CPU 0 panic: IPC 0.0043463 < 0.01
Simulation CPU 0 warning: IPC 0.031384 < 0.05
Simulation CPU 0 warning: IPC 0.029254 < 0.05
[ERROR_CYCLE] Error added at CPU cycle 9761673810, interval 210, pending count: 1
[DRAM_CYCLE_ERROR] Cycle-based error applied! address=0x254614408 additional_latency=2459910500 cycles
Simulation CPU 0 panic: IPC 0.0031024 < 0.01
Simulation CPU 0 panic: IPC 0 < 0.01
Simulation CPU 0 warning: IPC 0.024819 < 0.05
Simulation CPU 0 critical: IPC 0.014141 < 0.02
[ERROR_CYCLE] Error added at CPU cycle 9808157971, interval 211, pending count: 1
[DRAM_CYCLE_ERROR] Cycle-based error applied! address=0x7eea76598 additional_latency=2459910500 cycles
Simulation CPU 0 warning: IPC 0.023099 < 0.05
Simulation CPU 0 panic: IPC 0.0093087 < 0.01
Simulation CPU 0 critical: IPC 0.012407 < 0.02
Simulation CPU 0 warning: IPC 0.024806 < 0.05
Simulation CPU 0 critical: IPC 0.012416 < 0.02
[ERROR_CYCLE] Error added at CPU cycle 9854642132, interval 212, pending count: 1
[DRAM_CYCLE_ERROR] Cycle-based error applied! address=0x997cfcb68 additional_latency=2459910500 cycles
Simulation CPU 0 panic: IPC 0 < 0.01
Simulation CPU 0 panic: IPC 0.0062276 < 0.01
[...]
Simulation CPU 0 panic: IPC 0 < 0.01
Heartbeat CPU 0 instructions: 460000083 cycles: 20184760248 heartbeat IPC: 0.0384 cumulative IPC: 0.02279 (Simulation time: 03 hr 08 min 45 sec)
Simulation CPU 0 panic: IPC 0.0093073 < 0.01
[ERROR_CYCLE] Error added at CPU cycle 20220610036, interval 435, pending count: 1
[DRAM_CYCLE_ERROR] Cycle-based error applied! address=0x84d94c088 additional_latency=2459910500 cycles
Simulation CPU 0 panic: IPC 0 < 0.01
Simulation CPU 0 warning: IPC 0.0361 < 0.05
[ERROR_CYCLE] Error added at CPU cycle 20267094197, interval 436, pending count: 1
[DRAM_CYCLE_ERROR] Cycle-based error applied! address=0xd9a700000 additional_latency=2459910500 cycles
Simulation CPU 0 panic: IPC 0 < 0.01
[ERROR_CYCLE] Error added at CPU cycle 20313578358, interval 437, pending count: 1
[DRAM_CYCLE_ERROR] Cycle-based error applied! address=0xab853d1f0 additional_latency=2459910500 cycles
Simulation CPU 0 panic: IPC 0 < 0.01
Simulation CPU 0 critical: IPC 0.019389 < 0.02
[ERROR_CYCLE] Error added at CPU cycle 20360062518, interval 438, pending count: 1
[DRAM_CYCLE_ERROR] Cycle-based error applied! address=0x84d9560d0 additional_latency=2459910500 cycles
Simulation CPU 0 panic: IPC 0 < 0.01
Heartbeat CPU 0 instructions: 470000085 cycles: 20379270448 heartbeat IPC: 0.05141 cumulative IPC: 0.02306 (Simulation time: 03 hr 25 min 02 sec)
Simulation CPU 0 warning: IPC 0.047535 < 0.05
Simulation CPU 0 warning: IPC 0.044404 < 0.05
[ERROR_CYCLE] Error added at CPU cycle 20406546679, interval 439, pending count: 1
[DRAM_CYCLE_ERROR] Cycle-based error applied! address=0x84d9590e8 additional_latency=2459910500 cycles
Simulation CPU 0 panic: IPC 0 < 0.01
Simulation CPU 0 critical: IPC 0.01758 < 0.02
[ERROR_CYCLE] Error added at CPU cycle 20453030840, interval 440, pending count: 1
[DRAM_CYCLE_ERROR] Cycle-based error applied! address=0xab0600008 additional_latency=2459910500 cycles
Simulation CPU 0 panic: IPC 0 < 0.01
Simulation CPU 0 panic: IPC 0.0007367 < 0.01
[ERROR_CYCLE] Error added at CPU cycle 20499515001, interval 441, pending count: 1
[DRAM_CYCLE_ERROR] Cycle-based error applied! address=0x84d960110 additional_latency=2459910500 cycles
Simulation CPU 0 panic: IPC 0 < 0.01
[ERROR_CYCLE] Error added at CPU cycle 20545999162, interval 442, pending count: 1
[DRAM_CYCLE_ERROR] Cycle-based error applied! address=0x9b7400020 additional_latency=2459910500 cycles
Simulation CPU 0 critical: IPC 0.012905 < 0.02
Simulation CPU 0 warning: IPC 0.022536 < 0.05
Simulation CPU 0 warning: IPC 0.029794 < 0.05
Simulation CPU 0 warning: IPC 0.029228 < 0.05
Heartbeat CPU 0 instructions: 480000086 cycles: 20592278738 heartbeat IPC: 0.04695 cumulative IPC: 0.02331 (Simulation time: 03 hr 40 min 49 sec)
[ERROR_CYCLE] Error added at CPU cycle 20592483323, interval 443, pending count: 1
[DRAM_CYCLE_ERROR] Cycle-based error applied! address=0x793874ec8 additional_latency=2459910500 cycles
Simulation CPU 0 warning: IPC 0.043903 < 0.05
Simulation CPU 0 critical: IPC 0.017764 < 0.02
Simulation CPU 0 warning: IPC 0.045766 < 0.05
[ERROR_CYCLE] Error added at CPU cycle 20638967484, interval 444, pending count: 1
[DRAM_CYCLE_ERROR] Cycle-based error applied! address=0x84d96aeb8 additional_latency=2459910500 cycles
Simulation CPU 0 warning: IPC 0.035068 < 0.05
Simulation CPU 0 panic: IPC 0 < 0.01
Simulation CPU 0 warning: IPC 0.048391 < 0.05
[ERROR_CYCLE] Error added at CPU cycle 20685451646, interval 445, pending count: 1
[DRAM_CYCLE_ERROR] Cycle-based error applied! address=0xf83d00000 additional_latency=2459910500 cycles
Simulation CPU 0 panic: IPC 0 < 0.01
Simulation CPU 0 warning: IPC 0.030561 < 0.05
[ERROR_CYCLE] Error added at CPU cycle 20731935807, interval 446, pending count: 1
[DRAM_CYCLE_ERROR] Cycle-based error applied! address=0x19ff00010 additional_latency=2459910500 cycles
Simulation CPU 0 panic: IPC 0 < 0.01
Simulation CPU 0 critical: IPC 0.016004 < 0.02
[ERROR_CYCLE] Error added at CPU cycle 20778419968, interval 447, pending count: 1
[DRAM_CYCLE_ERROR] Cycle-based error applied! address=0x84d974190 additional_latency=2459910500 cycles
Simulation CPU 0 warning: IPC 0.027933 < 0.05
Simulation CPU 0 panic: IPC 0 < 0.01
Heartbeat CPU 0 instructions: 490000086 cycles: 20805870469 heartbeat IPC: 0.04682 cumulative IPC: 0.02355 (Simulation time: 03 hr 58 min 59 sec)
Simulation CPU 0 warning: IPC 0.035792 < 0.05
[ERROR_CYCLE] Error added at CPU cycle 20824904129, interval 448, pending count: 1
[DRAM_CYCLE_ERROR] Cycle-based error applied! address=0x694dfed88 additional_latency=2459910500 cycles
Simulation CPU 0 panic: IPC 0 < 0.01
Simulation CPU 0 warning: IPC 0.028962 < 0.05
[ERROR_CYCLE] Error added at CPU cycle 20871388289, interval 449, pending count: 1
[DRAM_CYCLE_ERROR] Cycle-based error applied! address=0x84d97b098 additional_latency=2459910500 cycles
Simulation CPU 0 panic: IPC 0 < 0.01
Simulation CPU 0 warning: IPC 0.036221 < 0.05
Simulation CPU 0 critical: IPC 0.019593 < 0.02
Simulation CPU 0 warning: IPC 0.039355 < 0.05
[ERROR_CYCLE] Error added at CPU cycle 20917872450, interval 450, pending count: 1
[DRAM_CYCLE_ERROR] Cycle-based error applied! address=0xda1e00020 additional_latency=2459910500 cycles
Simulation CPU 0 critical: IPC 0.012543 < 0.02
Simulation CPU 0 warning: IPC 0.023322 < 0.05
Simulation CPU 0 warning: IPC 0.042619 < 0.05
Simulation CPU 0 critical: IPC 0.016207 < 0.02
Simulation CPU 0 warning: IPC 0.029313 < 0.05
[ERROR_CYCLE] Error added at CPU cycle 20964356611, interval 451, pending count: 1
[DRAM_CYCLE_ERROR] Cycle-based error applied! address=0x84d982068 additional_latency=2459910500 cycles
Simulation CPU 0 panic: IPC 0.0040957 < 0.01
Simulation CPU 0 panic: IPC 0.00311 < 0.01
Simulation CPU 0 critical: IPC 0.015505 < 0.02
Simulation CPU 0 critical: IPC 0.01241 < 0.02
[ERROR_CYCLE] Error added at CPU cycle 21010840772, interval 452, pending count: 1
[DRAM_CYCLE_ERROR] Cycle-based error applied! address=0x84d986998 additional_latency=2459910500 cycles
Simulation CPU 0 panic: IPC 0 < 0.01
Simulation CPU 0 warning: IPC 0.0426 < 0.05
Simulation CPU 0 panic: IPC 0.0031031 < 0.01
[ERROR_CYCLE] Error added at CPU cycle 21057324933, interval 453, pending count: 1
[DRAM_CYCLE_ERROR] Cycle-based error applied! address=0x835510578 additional_latency=2459910500 cycles
Simulation CPU 0 panic: IPC 0 < 0.01
Simulation CPU 0 warning: IPC 0.034128 < 0.05
Simulation CPU 0 warning: IPC 0.024813 < 0.05
Simulation CPU 0 panic: IPC 0.006206 < 0.01
Simulation CPU 0 warning: IPC 0.027904 < 0.05
[ERROR_CYCLE] Error added at CPU cycle 21103809094, interval 454, pending count: 1
[DRAM_CYCLE_ERROR] Cycle-based error applied! address=0xa788dfda8 additional_latency=2459910500 cycles
Simulation CPU 0 panic: IPC 0 < 0.01
Simulation CPU 0 panic: IPC 6.5e-06 < 0.01
Simulation CPU 0 warning: IPC 0.021711 < 0.05
Simulation CPU 0 panic: IPC 0.0031018 < 0.01
Simulation CPU 0 warning: IPC 0.043448 < 0.05
[ERROR_CYCLE] Error added at CPU cycle 21150293255, interval 455, pending count: 1
[DRAM_CYCLE_ERROR] Cycle-based error applied! address=0x84d991020 additional_latency=2459910500 cycles
Simulation CPU 0 panic: IPC 0 < 0.01
Simulation CPU 0 panic: IPC 0.0031031 < 0.01
Simulation CPU 0 warning: IPC 0.031037 < 0.05
Simulation CPU 0 panic: IPC 0.0031036 < 0.01
[ERROR_CYCLE] Error added at CPU cycle 21196777417, interval 456, pending count: 1
[DRAM_CYCLE_ERROR] Cycle-based error applied! address=0x84d995010 additional_latency=2459910500 cycles
Simulation CPU 0 critical: IPC 0.018612 < 0.02
Simulation CPU 0 panic: IPC 0 < 0.01
Simulation CPU 0 critical: IPC 0.015505 < 0.02
Simulation CPU 0 panic: IPC 0.000472 < 0.01
Simulation CPU 0 warning: IPC 0.036742 < 0.05
[ERROR_CYCLE] Error added at CPU cycle 21243261578, interval 457, pending count: 1
[DRAM_CYCLE_ERROR] Cycle-based error applied! address=0xe94642ef0 additional_latency=2459910500 cycles
Simulation CPU 0 panic: IPC 0 < 0.01
Heartbeat CPU 0 instructions: 500000086 cycles: 21253455249 heartbeat IPC: 0.02234 cumulative IPC: 0.02353 (Simulation time: 04 hr 33 min 51 sec)
Simulation CPU 0 warning: IPC 0.025715 < 0.05
Simulation CPU 0 warning: IPC 0.023917 < 0.05
Simulation CPU 0 warning: IPC 0.021717 < 0.05
[ERROR_CYCLE] Error added at CPU cycle 21289745739, interval 458, pending count: 1
Simulation CPU 0 warning: IPC 0.031016 < 0.05
[DRAM_CYCLE_ERROR] Cycle-based error applied! address=0x84d99d238 additional_latency=2459910500 cycles
Simulation CPU 0 panic: IPC 0 < 0.01
Simulation CPU 0 panic: IPC 0.0031072 < 0.01
Simulation CPU 0 panic: IPC 0.0030873 < 0.01
[ERROR_CYCLE] Error added at CPU cycle 21336229900, interval 459, pending count: 1
[DRAM_CYCLE_ERROR] Cycle-based error applied! address=0x2f808a778 additional_latency=2459910500 cycles
Simulation CPU 0 panic: IPC 0 < 0.01
Simulation CPU 0 panic: IPC 2.58e-05 < 0.01
Simulation CPU 0 warning: IPC 0.02791 < 0.05
Simulation CPU 0 panic: IPC 0.0062088 < 0.01
Simulation CPU 0 warning: IPC 0.049653 < 0.05
[ERROR_CYCLE] Error added at CPU cycle 21382714060, interval 460, pending count: 1
[DRAM_CYCLE_ERROR] Cycle-based error applied! address=0x3a567fed0 additional_latency=2459910500 cycles
Simulation CPU 0 panic: IPC 0 < 0.01
Simulation CPU 0 panic: IPC 0.0031018 < 0.01
Simulation CPU 0 warning: IPC 0.029531 < 0.05
Simulation CPU 0 warning: IPC 0.0418 < 0.05
[ERROR_CYCLE] Error added at CPU cycle 21429198221, interval 461, pending count: 1
Simulation CPU 0 critical: IPC 0.018623 < 0.02
[DRAM_CYCLE_ERROR] Cycle-based error applied! address=0x84d9a8268 additional_latency=2459910500 cycles
Simulation CPU 0 panic: IPC 0 < 0.01
Simulation CPU 0 warning: IPC 0.044458 < 0.05
Simulation CPU 0 warning: IPC 0.039301 < 0.05
Simulation CPU 0 panic: IPC 0.0062048 < 0.01
[ERROR_CYCLE] Error added at CPU cycle 21475682382, interval 462, pending count: 1
Simulation CPU 0 warning: IPC 0.024799 < 0.05
[DRAM_CYCLE_ERROR] Cycle-based error applied! address=0x84d9ac0f0 additional_latency=2459910500 cycles
Simulation CPU 0 panic: IPC 0 < 0.01
Simulation CPU 0 panic: IPC 0.0031179 < 0.01
Simulation CPU 0 critical: IPC 0.012416 < 0.02
[ERROR_CYCLE] Error added at CPU cycle 21522166543, interval 463, pending count: 1
[DRAM_CYCLE_ERROR] Cycle-based error applied! address=0xc1bc00008 additional_latency=2459910500 cycles
Simulation CPU 0 panic: IPC 0 < 0.01
Simulation CPU 0 critical: IPC 0.016063 < 0.02
Simulation CPU 0 warning: IPC 0.021708 < 0.05
[ERROR_CYCLE] Error added at CPU cycle 21568650704, interval 464, pending count: 1
[DRAM_CYCLE_ERROR] Cycle-based error applied! address=0x84d9b3298 additional_latency=2459910500 cycles
Simulation CPU 0 panic: IPC 0 < 0.01
Simulation CPU 0 warning: IPC 0.029222 < 0.05
Heartbeat CPU 0 instructions: 510000087 cycles: 21611444921 heartbeat IPC: 0.02793 cumulative IPC: 0.0236 (Simulation time: 05 hr 01 min 03 sec)
[ERROR_CYCLE] Error added at CPU cycle 21615134865, interval 465, pending count: 1
[DRAM_CYCLE_ERROR] Cycle-based error applied! address=0x84d9b62b0 additional_latency=2459910500 cycles
Simulation CPU 0 panic: IPC 0 < 0.01
Simulation CPU 0 warning: IPC 0.048599 < 0.05
[ERROR_CYCLE] Error added at CPU cycle 21661619026, interval 466, pending count: 1
[DRAM_CYCLE_ERROR] Cycle-based error applied! address=0x2ccbb840 additional_latency=2459910500 cycles
Simulation CPU 0 panic: IPC 0 < 0.01
Simulation CPU 0 panic: IPC 0.0062253 < 0.01
Simulation CPU 0 critical: IPC 0.019365 < 0.02
[ERROR_CYCLE] Error added at CPU cycle 21708103188, interval 467, pending count: 1
[DRAM_CYCLE_ERROR] Cycle-based error applied! address=0x84d9bd2d0 additional_latency=2459910500 cycles
Simulation CPU 0 panic: IPC 0 < 0.01
Simulation CPU 0 warning: IPC 0.03502 < 0.05
[ERROR_CYCLE] Error added at CPU cycle 21754587349, interval 468, pending count: 1
[DRAM_CYCLE_ERROR] Cycle-based error applied! address=0x88c100020 additional_latency=2459910500 cycles
Simulation CPU 0 panic: IPC 0 < 0.01
Simulation CPU 0 warning: IPC 0.031936 < 0.05
[ERROR_CYCLE] Error added at CPU cycle 21801071510, interval 469, pending count: 1
[DRAM_CYCLE_ERROR] Cycle-based error applied! address=0xe19000000 additional_latency=2459910500 cycles
Simulation CPU 0 panic: IPC 0 < 0.01
Simulation CPU 0 warning: IPC 0.049596 < 0.05
Heartbeat CPU 0 instructions: 520000087 cycles: 21834272708 heartbeat IPC: 0.04488 cumulative IPC: 0.02382 (Simulation time: 05 hr 17 min 26 sec)
[ERROR_CYCLE] Error added at CPU cycle 21847555671, interval 470, pending count: 1
[DRAM_CYCLE_ERROR] Cycle-based error applied! address=0x84d9c7310 additional_latency=2459910500 cycles
Simulation CPU 0 panic: IPC 0 < 0.01
Simulation CPU 0 warning: IPC 0.02924 < 0.05
[ERROR_CYCLE] Error added at CPU cycle 21894039831, interval 471, pending count: 1
[DRAM_CYCLE_ERROR] Cycle-based error applied! address=0x84d9ca328 additional_latency=2459910500 cycles
Simulation CPU 0 panic: IPC 0 < 0.01
Simulation CPU 0 warning: IPC 0.03936 < 0.05
[ERROR_CYCLE] Error added at CPU cycle 21940523992, interval 472, pending count: 1
[DRAM_CYCLE_ERROR] Cycle-based error applied! address=0xbc4900010 additional_latency=2459910500 cycles
Simulation CPU 0 panic: IPC 0 < 0.01
Simulation CPU 0 critical: IPC 0.018923 < 0.02
[ERROR_CYCLE] Error added at CPU cycle 21987008153, interval 473, pending count: 1
[DRAM_CYCLE_ERROR] Cycle-based error applied! address=0x84d9d1348 additional_latency=2459910500 cycles
Simulation CPU 0 critical: IPC 0.012418 < 0.02
Simulation CPU 0 panic: IPC 0 < 0.01
Simulation CPU 0 warning: IPC 0.037228 < 0.05
Simulation CPU 0 critical: IPC 0.010808 < 0.02
[ERROR_CYCLE] Error added at CPU cycle 22033492314, interval 474, pending count: 1
[DRAM_CYCLE_ERROR] Cycle-based error applied! address=0x4a6ad24b8 additional_latency=2459910500 cycles
Simulation CPU 0 panic: IPC 0 < 0.01
Simulation CPU 0 warning: IPC 0.037229 < 0.05
Simulation CPU 0 panic: IPC 0.0062005 < 0.01
Simulation CPU 0 warning: IPC 0.041528 < 0.05
[ERROR_CYCLE] Error added at CPU cycle 22079976475, interval 475, pending count: 1
Simulation CPU 0 warning: IPC 0.045293 < 0.05
[DRAM_CYCLE_ERROR] Cycle-based error applied! address=0xd97fc1038 additional_latency=2459910500 cycles
Simulation CPU 0 panic: IPC 0 < 0.01
Heartbeat CPU 0 instructions: 530000091 cycles: 22094679563 heartbeat IPC: 0.0384 cumulative IPC: 0.02399 (Simulation time: 05 hr 37 min 50 sec)
Simulation CPU 0 warning: IPC 0.041228 < 0.05
Simulation CPU 0 warning: IPC 0.033212 < 0.05
Simulation CPU 0 warning: IPC 0.031023 < 0.05
[ERROR_CYCLE] Error added at CPU cycle 22126460636, interval 476, pending count: 1
[DRAM_CYCLE_ERROR] Cycle-based error applied! address=0x84d9dce70 additional_latency=2459910500 cycles
Simulation CPU 0 panic: IPC 0.0031006 < 0.01
Simulation CPU 0 panic: IPC 0 < 0.01
Simulation CPU 0 panic: IPC 2.6e-06 < 0.01
Simulation CPU 0 panic: IPC 0.0031085 < 0.01
[ERROR_CYCLE] Error added at CPU cycle 22172944797, interval 477, pending count: 1
[DRAM_CYCLE_ERROR] Cycle-based error applied! address=0xec66331c8 additional_latency=2459910500 cycles
Simulation CPU 0 panic: IPC 0 < 0.01
Simulation CPU 0 critical: IPC 0.015545 < 0.02
Simulation CPU 0 warning: IPC 0.024851 < 0.05
Simulation CPU 0 critical: IPC 0.018638 < 0.02
[ERROR_CYCLE] Error added at CPU cycle 22219428959, interval 478, pending count: 1
Simulation CPU 0 critical: IPC 0.010807 < 0.02
[DRAM_CYCLE_ERROR] Cycle-based error applied! address=0x3dbc704e0 additional_latency=2459910500 cycles
Simulation CPU 0 panic: IPC 0 < 0.01
Simulation CPU 0 critical: IPC 0.010916 < 0.02
Simulation CPU 0 panic: IPC 0.0030953 < 0.01
Simulation CPU 0 critical: IPC 0.013755 < 0.02
[ERROR_CYCLE] Error added at CPU cycle 22265913120, interval 479, pending count: 1
Simulation CPU 0 warning: IPC 0.029686 < 0.05
[DRAM_CYCLE_ERROR] Cycle-based error applied! address=0xf94b836c0 additional_latency=2459910500 cycles
Simulation CPU 0 panic: IPC 0.0058546 < 0.01
Simulation CPU 0 warning: IPC 0.029763 < 0.05
Simulation CPU 0 warning: IPC 0.02946 < 0.05
Simulation CPU 0 warning: IPC 0.029597 < 0.05
[ERROR_CYCLE] Error added at CPU cycle 22312397281, interval 480, pending count: 1
[DRAM_CYCLE_ERROR] Cycle-based error applied! address=0x84d9eb3b0 additional_latency=2459910500 cycles
Simulation CPU 0 panic: IPC 0 < 0.01
Simulation CPU 0 warning: IPC 0.021799 < 0.05
Simulation CPU 0 warning: IPC 0.043373 < 0.05
[ERROR_CYCLE] Error added at CPU cycle 22358881442, interval 481, pending count: 1
Simulation CPU 0 critical: IPC 0.018611 < 0.02
[DRAM_CYCLE_ERROR] Cycle-based error applied! address=0x5b3ee2b10 additional_latency=2459910500 cycles
Simulation CPU 0 panic: IPC 0 < 0.01
Simulation CPU 0 warning: IPC 0.040398 < 0.05
Simulation CPU 0 critical: IPC 0.010828 < 0.02
Simulation CPU 0 warning: IPC 0.034764 < 0.05
[ERROR_CYCLE] Error added at CPU cycle 22405365602, interval 482, pending count: 1
[DRAM_CYCLE_ERROR] Cycle-based error applied! address=0x84d9f23d8 additional_latency=2459910500 cycles
Simulation CPU 0 warning: IPC 0.047565 < 0.05
Simulation CPU 0 panic: IPC 0 < 0.01
Simulation CPU 0 warning: IPC 0.037259 < 0.05
Simulation CPU 0 warning: IPC 0.037231 < 0.05
Simulation CPU 0 panic: IPC 0.0031012 < 0.01
[ERROR_CYCLE] Error added at CPU cycle 22451849763, interval 483, pending count: 1
[DRAM_CYCLE_ERROR] Cycle-based error applied! address=0x34f4c3b00 additional_latency=2459910500 cycles
Simulation CPU 0 panic: IPC 0.0030705 < 0.01
Simulation CPU 0 panic: IPC 0.008757 < 0.01
Simulation CPU 0 critical: IPC 0.011338 < 0.02
[ERROR_CYCLE] Error added at CPU cycle 22498333924, interval 484, pending count: 1
Simulation CPU 0 warning: IPC 0.048143 < 0.05
[DRAM_CYCLE_ERROR] Cycle-based error applied! address=0x426a45970 additional_latency=2459910500 cycles
Simulation CPU 0 panic: IPC 0 < 0.01
Simulation CPU 0 critical: IPC 0.016998 < 0.02
Simulation CPU 0 warning: IPC 0.029285 < 0.05
Simulation CPU 0 warning: IPC 0.029625 < 0.05
[ERROR_CYCLE] Error added at CPU cycle 22544818085, interval 485, pending count: 1
[DRAM_CYCLE_ERROR] Cycle-based error applied! address=0xd23b198a8 additional_latency=2459910500 cycles
Simulation CPU 0 panic: IPC 0.0017186 < 0.01
Simulation CPU 0 panic: IPC 0.0062294 < 0.01
Simulation CPU 0 panic: IPC 0.0062046 < 0.01
Simulation CPU 0 panic: IPC 0.0093065 < 0.01
Simulation CPU 0 critical: IPC 0.012414 < 0.02
[ERROR_CYCLE] Error added at CPU cycle 22591302246, interval 486, pending count: 1
[DRAM_CYCLE_ERROR] Cycle-based error applied! address=0xaf2d01db8 additional_latency=2459910500 cycles
Simulation CPU 0 panic: IPC 0 < 0.01
Heartbeat CPU 0 instructions: 540000093 cycles: 22607534160 heartbeat IPC: 0.0195 cumulative IPC: 0.02389 (Simulation time: 06 hr 16 min 31 sec)
Simulation CPU 0 warning: IPC 0.048105 < 0.05
[ERROR_CYCLE] Error added at CPU cycle 22637786407, interval 487, pending count: 1
[DRAM_CYCLE_ERROR] Cycle-based error applied! address=0x3eb400020 additional_latency=2459910500 cycles
Simulation CPU 0 panic: IPC 0 < 0.01
Simulation CPU 0 panic: IPC 0.0046229 < 0.01
Simulation CPU 0 warning: IPC 0.043443 < 0.05
Simulation CPU 0 panic: IPC 3.42e-05 < 0.01
Simulation CPU 0 critical: IPC 0.012407 < 0.02
[ERROR_CYCLE] Error added at CPU cycle 22684270568, interval 488, pending count: 1
[DRAM_CYCLE_ERROR] Cycle-based error applied! address=0x68681e80 additional_latency=2459910500 cycles
Simulation CPU 0 panic: IPC 0 < 0.01
Simulation CPU 0 warning: IPC 0.027921 < 0.05
Simulation CPU 0 panic: IPC 0.0031054 < 0.01
Simulation CPU 0 warning: IPC 0.031014 < 0.05
Simulation CPU 0 warning: IPC 0.031042 < 0.05
[ERROR_CYCLE] Error added at CPU cycle 22730754730, interval 489, pending count: 1
[DRAM_CYCLE_ERROR] Cycle-based error applied! address=0xaf2d0c438 additional_latency=2459910500 cycles
Simulation CPU 0 panic: IPC 0 < 0.01
Simulation CPU 0 panic: IPC 0.0031036 < 0.01
Simulation CPU 0 warning: IPC 0.021338 < 0.05
[ERROR_CYCLE] Error added at CPU cycle 22777238891, interval 490, pending count: 1
[DRAM_CYCLE_ERROR] Cycle-based error applied! address=0x4a17b3210 addition