
*** ChampSim Multicore Out-of-Order Simulator ***
Warmup Instructions: 0
Simulation Instructions: 9223372036854775807
Number of CPUs: 1
Page size: 1048576

Off-chip DRAM Size: 128 GiB Channels: 2 Width: 32-bit Data Rate: 4807 MT/s
[ERROR_PAGE_MANAGER] Error latency: 2459910500 
[ERROR_PAGE_MANAGER] Random seed: 54321 (fixed for preload reproducibility)
[ERROR_PAGE_MANAGER] Cycle-based error modeling enabled
[ERROR_PAGE_MANAGER] Errors per interval: 1
[ERROR_PAGE_MANAGER] Error cycle interval: 25763047 cycles

=== ERROR PAGE STATISTICS ===
Mode: CYCLE
Error Cycle Interval: 25763047 CPU cycles
Total Error Accesses: 0
==============================
Warmup finished CPU 0 instructions: 0 cycles: 1 cumulative IPC: 0 (Simulation time: 00 hr 00 min 00 sec)
Warmup complete CPU 0 instructions: 0 cycles: 1 cumulative IPC: 0 (Simulation time: 00 hr 00 min 00 sec)
Simulation CPU 0 panic: IPC 0 < 0.01
Simulation CPU 0 panic: IPC 2e-07 < 0.01
[ERROR_CYCLE] Error added at CPU cycle 25763048, interval 1, pending count: 1
[DRAM_CYCLE_ERROR] Cycle-based error applied! address=0x1959c05f60 additional_latency=2459910500 cycles
Simulation CPU 0 panic: IPC 0 < 0.01
Simulation CPU 0 panic: IPC 0 < 0.01
Simulation CPU 0 panic: IPC 8.5e-06 < 0.01
[ERROR_CYCLE] Error added at CPU cycle 51526094, interval 2, pending count: 1
[DRAM_CYCLE_ERROR] Cycle-based error applied! address=0x1403de2228 additional_latency=2459910500 cycles
Simulation CPU 0 panic: IPC 0 < 0.01
Simulation CPU 0 panic: IPC 5.64e-05 < 0.01
[ERROR_CYCLE] Error added at CPU cycle 77289142, interval 3, pending count: 1
[DRAM_CYCLE_ERROR] Cycle-based error applied! address=0x1959c0a020 additional_latency=2459910500 cycles
Simulation CPU 0 panic: IPC 7e-07 < 0.01
Simulation CPU 0 panic: IPC 0 < 0.01
Simulation CPU 0 panic: IPC 0 < 0.01
[ERROR_CYCLE] Error added at CPU cycle 103052188, interval 4, pending count: 1
[DRAM_CYCLE_ERROR] Cycle-based error applied! address=0x8962110e8 additional_latency=2459910500 cycles
Simulation CPU 0 panic: IPC 0 < 0.01
Simulation CPU 0 panic: IPC 0.0002751 < 0.01
[ERROR_CYCLE] Error added at CPU cycle 128815235, interval 5, pending count: 1
Simulation CPU 0 panic: IPC 0 < 0.01
[DRAM_CYCLE_ERROR] Cycle-based error applied! address=0x1959c00fd0 additional_latency=2459910500 cycles
Simulation CPU 0 panic: IPC 3.3e-06 < 0.01
Simulation CPU 0 panic: IPC 0 < 0.01
[ERROR_CYCLE] Error added at CPU cycle 154578283, interval 6, pending count: 1
[DRAM_CYCLE_ERROR] Cycle-based error applied! address=0x1959c27c30 additional_latency=2459910500 cycles
Simulation CPU 0 panic: IPC 1e-07 < 0.01
Simulation CPU 0 panic: IPC 0 < 0.01
Simulation CPU 0 panic: IPC 8e-07 < 0.01
[ERROR_CYCLE] Error added at CPU cycle 180341329, interval 7, pending count: 1
[DRAM_CYCLE_ERROR] Cycle-based error applied! address=0x1959c00f60 additional_latency=2459910500 cycles
Simulation CPU 0 panic: IPC 1.5e-06 < 0.01
Simulation CPU 0 panic: IPC 3e-06 < 0.01
[ERROR_CYCLE] Error added at CPU cycle 206104376, interval 8, pending count: 1
[DRAM_CYCLE_ERROR] Cycle-based error applied! address=0x1ecfe23f48 additional_latency=2459910500 cycles
Simulation CPU 0 panic: IPC 0 < 0.01
Simulation CPU 0 panic: IPC 3.82e-05 < 0.01
Simulation CPU 0 panic: IPC 2.12e-05 < 0.01
[ERROR_CYCLE] Error added at CPU cycle 231867424, interval 9, pending count: 1
[DRAM_CYCLE_ERROR] Cycle-based error applied! address=0xd40b04848 additional_latency=2459910500 cycles
Simulation CPU 0 panic: IPC 0 < 0.01
Simulation CPU 0 panic: IPC 1.04e-05 < 0.01
[ERROR_CYCLE] Error added at CPU cycle 257630470, interval 10, pending count: 1
[DRAM_CYCLE_ERROR] Cycle-based error applied! address=0x1959c4d348 additional_latency=2459910500 cycles
Simulation CPU 0 panic: IPC 3.11e-05 < 0.01
Simulation CPU 0 panic: IPC 6e-07 < 0.01
Simulation CPU 0 panic: IPC 2.12e-05 < 0.01
[ERROR_CYCLE] Error added at CPU cycle 283393517, interval 11, pending count: 1
[DRAM_CYCLE_ERROR] Cycle-based error applied! address=0x1959c50c00 additional_latency=2459910500 cycles
Simulation CPU 0 panic: IPC 1.01e-05 < 0.01
Simulation CPU 0 panic: IPC 0 < 0.01
[ERROR_CYCLE] Error added at CPU cycle 309156565, interval 12, pending count: 1
Simulation CPU 0 panic: IPC 2.12e-05 < 0.01
[DRAM_CYCLE_ERROR] Cycle-based error applied! address=0x45d41b848 additional_latency=2459910500 cycles
Simulation CPU 0 panic: IPC 0 < 0.01
Heartbeat CPU 0 instructions: 10000002 cycles: 334179833 heartbeat IPC: 0.02992 cumulative IPC: 0.02992 (Simulation time: 00 hr 34 min 50 sec)
[ERROR_CYCLE] Error added at CPU cycle 334919611, interval 13, pending count: 1
[DRAM_CYCLE_ERROR] Cycle-based error applied! address=0x1959c56cb8 additional_latency=2459910500 cycles
Simulation CPU 0 panic: IPC 0 < 0.01
Heartbeat CPU 0 instructions: 20000002 cycles: 358182729 heartbeat IPC: 0.4166 cumulative IPC: 0.05584 (Simulation time: 00 hr 38 min 03 sec)
[ERROR_CYCLE] Error added at CPU cycle 360682659, interval 14, pending count: 1
[DRAM_CYCLE_ERROR] Cycle-based error applied! address=0x1959c57918 additional_latency=2459910500 cycles
Simulation CPU 0 warning: IPC 0.026965 < 0.05
[ERROR_CYCLE] Error added at CPU cycle 386445705, interval 15, pending count: 1
[DRAM_CYCLE_ERROR] Cycle-based error applied! address=0x124da00000 additional_latency=2459910500 cycles
Simulation CPU 0 critical: IPC 0.013756 < 0.02
Heartbeat CPU 0 instructions: 30000006 cycles: 401200058 heartbeat IPC: 0.2325 cumulative IPC: 0.07478 (Simulation time: 00 hr 43 min 14 sec)
[ERROR_CYCLE] Error added at CPU cycle 412208752, interval 16, pending count: 1
[DRAM_CYCLE_ERROR] Cycle-based error applied! address=0x1491400000 additional_latency=2459910500 cycles
Simulation CPU 0 panic: IPC 0.0001903 < 0.01
Heartbeat CPU 0 instructions: 40000007 cycles: 434364520 heartbeat IPC: 0.3015 cumulative IPC: 0.09209 (Simulation time: 00 hr 46 min 26 sec)
[ERROR_CYCLE] Error added at CPU cycle 437971800, interval 17, pending count: 1
[DRAM_CYCLE_ERROR] Cycle-based error applied! address=0xce5d0d600 additional_latency=2459910500 cycles
Heartbeat CPU 0 instructions: 50000007 cycles: 458340336 heartbeat IPC: 0.4171 cumulative IPC: 0.1091 (Simulation time: 00 hr 49 min 19 sec)
[ERROR_CYCLE] Error added at CPU cycle 463734846, interval 18, pending count: 1
[DRAM_CYCLE_ERROR] Cycle-based error applied! address=0x1959c5d0e0 additional_latency=2459910500 cycles
Simulation CPU 0 panic: IPC 0 < 0.01
Simulation CPU 0 critical: IPC 0.011888 < 0.02
[ERROR_CYCLE] Error added at CPU cycle 489497893, interval 19, pending count: 1
Simulation CPU 0 panic: IPC 2.3e-06 < 0.01
[DRAM_CYCLE_ERROR] Cycle-based error applied! address=0x1959c66ea8 additional_latency=2459910500 cycles
Simulation CPU 0 panic: IPC 0 < 0.01
Simulation CPU 0 panic: IPC 1.3e-06 < 0.01
[ERROR_CYCLE] Error added at CPU cycle 515260941, interval 20, pending count: 1
[DRAM_CYCLE_ERROR] Cycle-based error applied! address=0x8372af5c8 additional_latency=2459910500 cycles
Simulation CPU 0 panic: IPC 2.2e-06 < 0.01
Simulation CPU 0 panic: IPC 8.6e-06 < 0.01
Simulation CPU 0 panic: IPC 1.1e-05 < 0.01
[ERROR_CYCLE] Error added at CPU cycle 541023987, interval 21, pending count: 1
[DRAM_CYCLE_ERROR] Cycle-based error applied! address=0x8cd3d8948 additional_latency=2459910500 cycles
Simulation CPU 0 panic: IPC 6.3e-06 < 0.01
Simulation CPU 0 panic: IPC 9.3e-06 < 0.01
[ERROR_CYCLE] Error added at CPU cycle 566787034, interval 22, pending count: 1
[DRAM_CYCLE_ERROR] Cycle-based error applied! address=0x1959c82db8 additional_latency=2459910500 cycles
Simulation CPU 0 panic: IPC 9.2e-06 < 0.01
Simulation CPU 0 panic: IPC 2.1e-06 < 0.01
Simulation CPU 0 panic: IPC 8.9e-06 < 0.01
[ERROR_CYCLE] Error added at CPU cycle 592550082, interval 23, pending count: 1
[DRAM_CYCLE_ERROR] Cycle-based error applied! address=0x1959c88a20 additional_latency=2459910500 cycles
Simulation CPU 0 panic: IPC 8.2e-06 < 0.01
Simulation CPU 0 panic: IPC 0 < 0.01
[ERROR_CYCLE] Error added at CPU cycle 618313128, interval 24, pending count: 1
[DRAM_CYCLE_ERROR] Cycle-based error applied! address=0x15add90cc8 additional_latency=2459910500 cycles
Simulation CPU 0 panic: IPC 7.7e-06 < 0.01
Simulation CPU 0 panic: IPC 1.02e-05 < 0.01
Simulation CPU 0 panic: IPC 7.8e-06 < 0.01
[ERROR_CYCLE] Error added at CPU cycle 644076176, interval 25, pending count: 1
[DRAM_CYCLE_ERROR] Cycle-based error applied! address=0x1b7f062b48 additional_latency=2459910500 cycles
Simulation CPU 0 panic: IPC 1.2e-06 < 0.01
Simulation CPU 0 panic: IPC 7.4e-06 < 0.01
[ERROR_CYCLE] Error added at CPU cycle 669839223, interval 26, pending count: 1
Simulation CPU 0 panic: IPC 8.9e-06 < 0.01
[DRAM_CYCLE_ERROR] Cycle-based error applied! address=0x1959c935b8 additional_latency=2459910500 cycles
Simulation CPU 0 panic: IPC 0 < 0.01
Simulation CPU 0 panic: IPC 7.4e-06 < 0.01
[ERROR_CYCLE] Error added at CPU cycle 695602269, interval 27, pending count: 1
[DRAM_CYCLE_ERROR] Cycle-based error applied! address=0x1959c96438 additional_latency=2459910500 cycles
Simulation CPU 0 panic: IPC 9.5e-06 < 0.01
Simulation CPU 0 panic: IPC 8e-07 < 0.01
Simulation CPU 0 panic: IPC 9.3e-06 < 0.01
[ERROR_CYCLE] Error added at CPU cycle 721365317, interval 28, pending count: 1
[DRAM_CYCLE_ERROR] Cycle-based error applied! address=0x13819a25c0 additional_latency=2459910500 cycles
Simulation CPU 0 panic: IPC 0 < 0.01
Simulation CPU 0 panic: IPC 7.5e-06 < 0.01
[ERROR_CYCLE] Error added at CPU cycle 747128363, interval 29, pending count: 1
[DRAM_CYCLE_ERROR] Cycle-based error applied! address=0x1959c9d220 additional_latency=2459910500 cycles
Simulation CPU 0 panic: IPC 9.3e-06 < 0.01
Simulation CPU 0 panic: IPC 0 < 0.01
Simulation CPU 0 panic: IPC 8.4e-06 < 0.01
[ERROR_CYCLE] Error added at CPU cycle 772891410, interval 30, pending count: 1
[DRAM_CYCLE_ERROR] Cycle-based error applied! address=0x1959ca1ad8 additional_latency=2459910500 cycles
Simulation CPU 0 panic: IPC 8.4e-06 < 0.01
Simulation CPU 0 panic: IPC 0 < 0.01
[ERROR_CYCLE] Error added at CPU cycle 798654458, interval 31, pending count: 1
[DRAM_CYCLE_ERROR] Cycle-based error applied! address=0x1d2bc455b8 additional_latency=2459910500 cycles
Simulation CPU 0 panic: IPC 9.1e-06 < 0.01
Simulation CPU 0 panic: IPC 7.7e-06 < 0.01
Simulation CPU 0 panic: IPC 8.2e-06 < 0.01
[ERROR_CYCLE] Error added at CPU cycle 824417504, interval 32, pending count: 1
[DRAM_CYCLE_ERROR] Cycle-based error applied! address=0x9654615d0 additional_latency=2459910500 cycles
Simulation CPU 0 panic: IPC 0 < 0.01
Simulation CPU 0 panic: IPC 7.8e-06 < 0.01
Simulation CPU 0 panic: IPC 9e-06 < 0.01
[ERROR_CYCLE] Error added at CPU cycle 850180551, interval 33, pending count: 1
[DRAM_CYCLE_ERROR] Cycle-based error applied! address=0x1959cacff0 additional_latency=2459910500 cycles
Simulation CPU 0 panic: IPC 0 < 0.01
Simulation CPU 0 panic: IPC 7.8e-06 < 0.01
[ERROR_CYCLE] Error added at CPU cycle 875943599, interval 34, pending count: 1
[DRAM_CYCLE_ERROR] Cycle-based error applied! address=0xf7a7608c0 additional_latency=2459910500 cycles
Heartbeat CPU 0 instructions: 60000008 cycles: 889405364 heartbeat IPC: 0.0232 cumulative IPC: 0.06746 (Simulation time: 01 hr 34 min 43 sec)
Heartbeat CPU 0 instructions: 70000012 cycles: 895855647 heartbeat IPC: 1.55 cumulative IPC: 0.07814 (Simulation time: 01 hr 35 min 48 sec)
[ERROR_CYCLE] Error added at CPU cycle 901706645, interval 35, pending count: 1
[DRAM_CYCLE_ERROR] Cycle-based error applied! address=0x1959cb2740 additional_latency=2459910500 cycles
Simulation CPU 0 panic: IPC 0 < 0.01
Heartbeat CPU 0 instructions: 80000013 cycles: 921368474 heartbeat IPC: 0.392 cumulative IPC: 0.08683 (Simulation time: 01 hr 38 min 43 sec)
[ERROR_CYCLE] Error added at CPU cycle 927469692, interval 36, pending count: 1
[DRAM_CYCLE_ERROR] Cycle-based error applied! address=0x1959cb3fe0 additional_latency=2459910500 cycles
Simulation CPU 0 panic: IPC 0 < 0.01
[ERROR_CYCLE] Error added at CPU cycle 953232740, interval 37, pending count: 1
[DRAM_CYCLE_ERROR] Cycle-based error applied! address=0x8c2900000 additional_latency=2459910500 cycles
Simulation CPU 0 panic: IPC 0 < 0.01
Heartbeat CPU 0 instructions: 90000014 cycles: 975206037 heartbeat IPC: 0.1857 cumulative IPC: 0.09229 (Simulation time: 01 hr 45 min 31 sec)
[ERROR_CYCLE] Error added at CPU cycle 978995786, interval 38, pending count: 1
[DRAM_CYCLE_ERROR] Cycle-based error applied! address=0x1fbc415940 additional_latency=2459910500 cycles
Heartbeat CPU 0 instructions: 100000018 cycles: 1000727509 heartbeat IPC: 0.3918 cumulative IPC: 0.09993 (Simulation time: 01 hr 49 min 03 sec)
[ERROR_CYCLE] Error added at CPU cycle 1004758834, interval 39, pending count: 1
[DRAM_CYCLE_ERROR] Cycle-based error applied! address=0x17d46ec680 additional_latency=2459910500 cycles
Heartbeat CPU 0 instructions: 110000019 cycles: 1016422720 heartbeat IPC: 0.6371 cumulative IPC: 0.1082 (Simulation time: 01 hr 51 min 16 sec)
[ERROR_CYCLE] Error added at CPU cycle 1030521880, interval 40, pending count: 1
[DRAM_CYCLE_ERROR] Cycle-based error applied! address=0x1959cb90a8 additional_latency=2459910500 cycles
Simulation CPU 0 panic: IPC 0 < 0.01
Heartbeat CPU 0 instructions: 120000019 cycles: 1051215751 heartbeat IPC: 0.2874 cumulative IPC: 0.1142 (Simulation time: 01 hr 55 min 12 sec)
[ERROR_CYCLE] Error added at CPU cycle 1056284927, interval 41, pending count: 1
[DRAM_CYCLE_ERROR] Cycle-based error applied! address=0x1959cba5d0 additional_latency=2459910500 cycles
Simulation CPU 0 panic: IPC 0 < 0.01
Heartbeat CPU 0 instructions: 130000020 cycles: 1076802717 heartbeat IPC: 0.3908 cumulative IPC: 0.1207 (Simulation time: 01 hr 57 min 47 sec)
[ERROR_CYCLE] Error added at CPU cycle 1082047975, interval 42, pending count: 1
[DRAM_CYCLE_ERROR] Cycle-based error applied! address=0x1959cbb9d0 additional_latency=2459910500 cycles
Simulation CPU 0 critical: IPC 0.019264 < 0.02
[ERROR_CYCLE] Error added at CPU cycle 1107811021, interval 43, pending count: 1
[DRAM_CYCLE_ERROR] Cycle-based error applied! address=0x1302c00000 additional_latency=2459910500 cycles
Simulation CPU 0 panic: IPC 0 < 0.01
Heartbeat CPU 0 instructions: 140000022 cycles: 1121422778 heartbeat IPC: 0.2241 cumulative IPC: 0.1248 (Simulation time: 02 hr 02 min 47 sec)
[ERROR_CYCLE] Error added at CPU cycle 1133574068, interval 44, pending count: 1
[DRAM_CYCLE_ERROR] Cycle-based error applied! address=0x135000000 additional_latency=2459910500 cycles
Simulation CPU 0 panic: IPC 0 < 0.01
Heartbeat CPU 0 instructions: 150000024 cycles: 1147007718 heartbeat IPC: 0.3909 cumulative IPC: 0.1308 (Simulation time: 02 hr 06 min 04 sec)
[ERROR_CYCLE] Error added at CPU cycle 1159337116, interval 45, pending count: 1
[DRAM_CYCLE_ERROR] Cycle-based error applied! address=0x1d80700000 additional_latency=2459910500 cycles
Heartbeat CPU 0 instructions: 160000025 cycles: 1181780853 heartbeat IPC: 0.2876 cumulative IPC: 0.1354 (Simulation time: 02 hr 10 min 11 sec)
[ERROR_CYCLE] Error added at CPU cycle 1185100162, interval 46, pending count: 1
[DRAM_CYCLE_ERROR] Cycle-based error applied! address=0x1959cc0c78 additional_latency=2459910500 cycles
Simulation CPU 0 panic: IPC 0 < 0.01
Heartbeat CPU 0 instructions: 170000025 cycles: 1207353441 heartbeat IPC: 0.391 cumulative IPC: 0.1408 (Simulation time: 02 hr 13 min 22 sec)
[ERROR_CYCLE] Error added at CPU cycle 1210863209, interval 47, pending count: 1
[DRAM_CYCLE_ERROR] Cycle-based error applied! address=0xeb5828840 additional_latency=2459910500 cycles
Heartbeat CPU 0 instructions: 180000026 cycles: 1232313114 heartbeat IPC: 0.4006 cumulative IPC: 0.1461 (Simulation time: 02 hr 16 min 21 sec)
[ERROR_CYCLE] Error added at CPU cycle 1236626257, interval 48, pending count: 1
[DRAM_CYCLE_ERROR] Cycle-based error applied! address=0x1959cc33c0 additional_latency=2459910500 cycles
Simulation CPU 0 panic: IPC 0 < 0.01
Heartbeat CPU 0 instructions: 190000027 cycles: 1257865273 heartbeat IPC: 0.3914 cumulative IPC: 0.151 (Simulation time: 02 hr 19 min 11 sec)
[ERROR_CYCLE] Error added at CPU cycle 1262389303, interval 49, pending count: 1
[DRAM_CYCLE_ERROR] Cycle-based error applied! address=0x187ac90f80 additional_latency=2459910500 cycles
Heartbeat CPU 0 instructions: 200000029 cycles: 1274187540 heartbeat IPC: 0.6127 cumulative IPC: 0.157 (Simulation time: 02 hr 21 min 08 sec)
[ERROR_CYCLE] Error added at CPU cycle 1288152351, interval 50, pending count: 1
[DRAM_CYCLE_ERROR] Cycle-based error applied! address=0x1959cc5b08 additional_latency=2459910500 cycles
Simulation CPU 0 panic: IPC 0 < 0.01
Heartbeat CPU 0 instructions: 210000030 cycles: 1309003918 heartbeat IPC: 0.2872 cumulative IPC: 0.1604 (Simulation time: 02 hr 24 min 56 sec)
[ERROR_CYCLE] Error added at CPU cycle 1313915398, interval 51, pending count: 1
[DRAM_CYCLE_ERROR] Cycle-based error applied! address=0x6c356e400 additional_latency=2459910500 cycles
Heartbeat CPU 0 instructions: 220000032 cycles: 1325350082 heartbeat IPC: 0.6118 cumulative IPC: 0.166 (Simulation time: 02 hr 27 min 17 sec)
[ERROR_CYCLE] Error added at CPU cycle 1339678444, interval 52, pending count: 1
[DRAM_CYCLE_ERROR] Cycle-based error applied! address=0x198341d600 additional_latency=2459910500 cycles
Heartbeat CPU 0 instructions: 230000034 cycles: 1350951681 heartbeat IPC: 0.3906 cumulative IPC: 0.1703 (Simulation time: 02 hr 30 min 35 sec)
[ERROR_CYCLE] Error added at CPU cycle 1365441492, interval 53, pending count: 1
[DRAM_CYCLE_ERROR] Cycle-based error applied! address=0x1959cc8db0 additional_latency=2459910500 cycles
Simulation CPU 0 panic: IPC 0 < 0.01
Heartbeat CPU 0 instructions: 240000038 cycles: 1385846170 heartbeat IPC: 0.2866 cumulative IPC: 0.1732 (Simulation time: 02 hr 34 min 51 sec)
[ERROR_CYCLE] Error added at CPU cycle 1391204538, interval 54, pending count: 1
[DRAM_CYCLE_ERROR] Cycle-based error applied! address=0x1959cc9c58 additional_latency=2459910500 cycles
Simulation CPU 0 warning: IPC 0.024943 < 0.05
Heartbeat CPU 0 instructions: 250000040 cycles: 1411404872 heartbeat IPC: 0.3913 cumulative IPC: 0.1771 (Simulation time: 02 hr 37 min 08 sec)
[ERROR_CYCLE] Error added at CPU cycle 1416967585, interval 55, pending count: 1
[DRAM_CYCLE_ERROR] Cycle-based error applied! address=0x1959cca4f8 additional_latency=2459910500 cycles
Simulation CPU 0 panic: IPC 0 < 0.01
Heartbeat CPU 0 instructions: 260000043 cycles: 1436984673 heartbeat IPC: 0.3909 cumulative IPC: 0.1809 (Simulation time: 02 hr 39 min 40 sec)
[ERROR_CYCLE] Error added at CPU cycle 1442730633, interval 56, pending count: 1
[DRAM_CYCLE_ERROR] Cycle-based error applied! address=0xf10141c0 additional_latency=2459910500 cycles
Heartbeat CPU 0 instructions: 270000046 cycles: 1443491600 heartbeat IPC: 1.537 cumulative IPC: 0.187 (Simulation time: 02 hr 40 min 44 sec)
Heartbeat CPU 0 instructions: 280000048 cycles: 1468456162 heartbeat IPC: 0.4006 cumulative IPC: 0.1907 (Simulation time: 02 hr 43 min 13 sec)
[ERROR_CYCLE] Error added at CPU cycle 1468493679, interval 57, pending count: 1
[DRAM_CYCLE_ERROR] Cycle-based error applied! address=0xfbcaa4080 additional_latency=2459910500 cycles
Heartbeat CPU 0 instructions: 290000048 cycles: 1484175151 heartbeat IPC: 0.6362 cumulative IPC: 0.1954 (Simulation time: 02 hr 44 min 53 sec)
[ERROR_CYCLE] Error added at CPU cycle 1494256726, interval 58, pending count: 1
[DRAM_CYCLE_ERROR] Cycle-based error applied! address=0x14d2200000 additional_latency=2459910500 cycles
Simulation CPU 0 panic: IPC 0 < 0.01
Heartbeat CPU 0 instructions: 300000049 cycles: 1509739658 heartbeat IPC: 0.3912 cumulative IPC: 0.1987 (Simulation time: 02 hr 47 min 44 sec)
[ERROR_CYCLE] Error added at CPU cycle 1520019774, interval 59, pending count: 1
[DRAM_CYCLE_ERROR] Cycle-based error applied! address=0x1e8de00000 additional_latency=2459910500 cycles
Simulation CPU 0 panic: IPC 0 < 0.01
[ERROR_CYCLE] Error added at CPU cycle 1545782820, interval 60, pending count: 1
[DRAM_CYCLE_ERROR] Cycle-based error applied! address=0x1959cd1d08 additional_latency=2459910500 cycles
Simulation CPU 0 panic: IPC 0 < 0.01
Heartbeat CPU 0 instructions: 310000049 cycles: 1563599083 heartbeat IPC: 0.1857 cumulative IPC: 0.1983 (Simulation time: 02 hr 52 min 34 sec)
[ERROR_CYCLE] Error added at CPU cycle 1571545867, interval 61, pending count: 1
[DRAM_CYCLE_ERROR] Cycle-based error applied! address=0x1959cd2230 additional_latency=2459910500 cycles
Simulation CPU 0 panic: IPC 0 < 0.01
Heartbeat CPU 0 instructions: 320000053 cycles: 1589110165 heartbeat IPC: 0.392 cumulative IPC: 0.2014 (Simulation time: 02 hr 55 min 14 sec)
Heartbeat CPU 0 instructions: 330000054 cycles: 1595562304 heartbeat IPC: 1.55 cumulative IPC: 0.2068 (Simulation time: 02 hr 56 min 23 sec)
[ERROR_CYCLE] Error added at CPU cycle 1597308915, interval 62, pending count: 1
[DRAM_CYCLE_ERROR] Cycle-based error applied! address=0x1959cd3630 additional_latency=2459910500 cycles
Simulation CPU 0 panic: IPC 0 < 0.01
[ERROR_CYCLE] Error added at CPU cycle 1623071961, interval 63, pending count: 1
[DRAM_CYCLE_ERROR] Cycle-based error applied! address=0x14f4d00000 additional_latency=2459910500 cycles
Simulation CPU 0 panic: IPC 0 < 0.01
[ERROR_CYCLE] Error added at CPU cycle 1648835009, interval 64, pending count: 1
[DRAM_CYCLE_ERROR] Cycle-based error applied! address=0x137a04bd80 additional_latency=2459910500 cycles
Heartbeat CPU 0 instructions: 340000056 cycles: 1659302358 heartbeat IPC: 0.1569 cumulative IPC: 0.2049 (Simulation time: 03 hr 02 min 37 sec)
Heartbeat CPU 0 instructions: 350000059 cycles: 1665753706 heartbeat IPC: 1.55 cumulative IPC: 0.2101 (Simulation time: 03 hr 03 min 36 sec)
[ERROR_CYCLE] Error added at CPU cycle 1674598055, interval 65, pending count: 1
[DRAM_CYCLE_ERROR] Cycle-based error applied! address=0x16a4100000 additional_latency=2459910500 cycles
Simulation CPU 0 panic: IPC 0 < 0.01
[ERROR_CYCLE] Error added at CPU cycle 1700361102, interval 66, pending count: 1
[DRAM_CYCLE_ERROR] Cycle-based error applied! address=0x137a058340 additional_latency=2459910500 cycles
Heartbeat CPU 0 instructions: 360000061 cycles: 1710383760 heartbeat IPC: 0.2241 cumulative IPC: 0.2105 (Simulation time: 03 hr 08 min 45 sec)
Heartbeat CPU 0 instructions: 370000061 cycles: 1716854789 heartbeat IPC: 1.545 cumulative IPC: 0.2155 (Simulation time: 03 hr 09 min 46 sec)
[ERROR_CYCLE] Error added at CPU cycle 1726124150, interval 67, pending count: 1
[DRAM_CYCLE_ERROR] Cycle-based error applied! address=0x1b35800000 additional_latency=2459910500 cycles
Simulation CPU 0 panic: IPC 0 < 0.01
[ERROR_CYCLE] Error added at CPU cycle 1751887196, interval 68, pending count: 1
[DRAM_CYCLE_ERROR] Cycle-based error applied! address=0x1959cda020 additional_latency=2459910500 cycles
Simulation CPU 0 panic: IPC 0 < 0.01
Heartbeat CPU 0 instructions: 380000061 cycles: 1770724672 heartbeat IPC: 0.1856 cumulative IPC: 0.2146 (Simulation time: 03 hr 15 min 46 sec)
Heartbeat CPU 0 instructions: 390000065 cycles: 1777234433 heartbeat IPC: 1.536 cumulative IPC: 0.2194 (Simulation time: 03 hr 16 min 55 sec)
[ERROR_CYCLE] Error added at CPU cycle 1777650243, interval 69, pending count: 1
[DRAM_CYCLE_ERROR] Cycle-based error applied! address=0x19f9d62e00 additional_latency=2459910500 cycles
Heartbeat CPU 0 instructions: 400000067 cycles: 1802830224 heartbeat IPC: 0.3907 cumulative IPC: 0.2219 (Simulation time: 03 hr 20 min 04 sec)
[ERROR_CYCLE] Error added at CPU cycle 1803413291, interval 70, pending count: 1
[DRAM_CYCLE_ERROR] Cycle-based error applied! address=0x940e67380 additional_latency=2459910500 cycles
Heartbeat CPU 0 instructions: 410000069 cycles: 1818608120 heartbeat IPC: 0.6338 cumulative IPC: 0.2254 (Simulation time: 03 hr 21 min 43 sec)
Heartbeat CPU 0 instructions: 420000070 cycles: 1825156133 heartbeat IPC: 1.527 cumulative IPC: 0.2301 (Simulation time: 03 hr 22 min 30 sec)
[ERROR_CYCLE] Error added at CPU cycle 1829176337, interval 71, pending count: 1
[DRAM_CYCLE_ERROR] Cycle-based error applied! address=0x1959cdd170 additional_latency=2459910500 cycles
Simulation CPU 0 panic: IPC 0 < 0.01
[ERROR_CYCLE] Error added at CPU cycle 1854939384, interval 72, pending count: 1
[DRAM_CYCLE_ERROR] Cycle-based error applied! address=0x3922017c8 additional_latency=2459910500 cycles
Simulation CPU 0 panic: IPC 0 < 0.01
Heartbeat CPU 0 instructions: 430000072 cycles: 1869960134 heartbeat IPC: 0.2232 cumulative IPC: 0.23 (Simulation time: 03 hr 27 min 53 sec)
Heartbeat CPU 0 instructions: 440000074 cycles: 1876551831 heartbeat IPC: 1.517 cumulative IPC: 0.2345 (Simulation time: 03 hr 29 min 02 sec)
[ERROR_CYCLE] Error added at CPU cycle 1880702432, interval 73, pending count: 1
[DRAM_CYCLE_ERROR] Cycle-based error applied! address=0x1959cdf8b8 additional_latency=2459910500 cycles
Simulation CPU 0 panic: IPC 0 < 0.01
[ERROR_CYCLE] Error added at CPU cycle 1906465478, interval 74, pending count: 1
[DRAM_CYCLE_ERROR] Cycle-based error applied! address=0xa6a100000 additional_latency=2459910500 cycles
Simulation CPU 0 panic: IPC 0 < 0.01
Heartbeat CPU 0 instructions: 450000076 cycles: 1921260484 heartbeat IPC: 0.2237 cumulative IPC: 0.2342 (Simulation time: 03 hr 33 min 15 sec)
[ERROR_CYCLE] Error added at CPU cycle 1932228526, interval 75, pending count: 1
[DRAM_CYCLE_ERROR] Cycle-based error applied! address=0x171ac67b80 additional_latency=2459910500 cycles
Heartbeat CPU 0 instructions: 460000077 cycles: 1946845492 heartbeat IPC: 0.3909 cumulative IPC: 0.2363 (Simulation time: 03 hr 35 min 39 sec)
[ERROR_CYCLE] Error added at CPU cycle 1957991572, interval 76, pending count: 1
[DRAM_CYCLE_ERROR] Cycle-based error applied! address=0x1aa4900000 additional_latency=2459910500 cycles
Simulation CPU 0 warning: IPC 0.030629 < 0.05
Heartbeat CPU 0 instructions: 470000077 cycles: 1972416569 heartbeat IPC: 0.3911 cumulative IPC: 0.2383 (Simulation time: 03 hr 38 min 29 sec)
[ERROR_CYCLE] Error added at CPU cycle 1983754619, interval 77, pending count: 1
[DRAM_CYCLE_ERROR] Cycle-based error applied! address=0x1675600000 additional_latency=2459910500 cycles
Simulation CPU 0 panic: IPC 0 < 0.01
Heartbeat CPU 0 instructions: 480000079 cycles: 1997984339 heartbeat IPC: 0.3911 cumulative IPC: 0.2402 (Simulation time: 03 hr 41 min 40 sec)
[ERROR_CYCLE] Error added at CPU cycle 2009517667, interval 78, pending count: 1
[DRAM_CYCLE_ERROR] Cycle-based error applied! address=0x72ea00000 additional_latency=2459910500 cycles
Simulation CPU 0 panic: IPC 0 < 0.01
Heartbeat CPU 0 instructions: 490000079 cycles: 2023547587 heartbeat IPC: 0.3912 cumulative IPC: 0.2421 (Simulation time: 03 hr 44 min 52 sec)
[ERROR_CYCLE] Error added at CPU cycle 2035280713, interval 79, pending count: 1
[DRAM_CYCLE_ERROR] Cycle-based error applied! address=0x31f100000 additional_latency=2459910500 cycles
Simulation CPU 0 panic: IPC 0 < 0.01
Heartbeat CPU 0 instructions: 500000082 cycles: 2049109556 heartbeat IPC: 0.3912 cumulative IPC: 0.244 (Simulation time: 03 hr 48 min 05 sec)
[ERROR_CYCLE] Error added at CPU cycle 2061043760, interval 80, pending count: 1
[DRAM_CYCLE_ERROR] Cycle-based error applied! address=0x1d807d67c0 additional_latency=2459910500 cycles
Simulation CPU 0 warning: IPC 0.027894 < 0.05
Heartbeat CPU 0 instructions: 510000083 cycles: 2083871770 heartbeat IPC: 0.2877 cumulative IPC: 0.2447 (Simulation time: 03 hr 52 min 18 sec)
[ERROR_CYCLE] Error added at CPU cycle 2086806808, interval 81, pending count: 1
[DRAM_CYCLE_ERROR] Cycle-based error applied! address=0x1959ce8e90 additional_latency=2459910500 cycles
Simulation CPU 0 panic: IPC 0 < 0.01
[ERROR_CYCLE] Error added at CPU cycle 2112569854, interval 82, pending count: 1
[DRAM_CYCLE_ERROR] Cycle-based error applied! address=0x1959ce9730 additional_latency=2459910500 cycles
Simulation CPU 0 panic: IPC 0 < 0.01
Heartbeat CPU 0 instructions: 520000083 cycles: 2128535353 heartbeat IPC: 0.2239 cumulative IPC: 0.2443 (Simulation time: 03 hr 57 min 36 sec)
[ERROR_CYCLE] Error added at CPU cycle 2138332901, interval 83, pending count: 1
[DRAM_CYCLE_ERROR] Cycle-based error applied! address=0x1407800000 additional_latency=2459910500 cycles
Simulation CPU 0 warning: IPC 0.028938 < 0.05
Heartbeat CPU 0 instructions: 530000083 cycles: 2163271725 heartbeat IPC: 0.2879 cumulative IPC: 0.245 (Simulation time: 04 hr 01 min 51 sec)
[ERROR_CYCLE] Error added at CPU cycle 2164095949, interval 84, pending count: 1
[DRAM_CYCLE_ERROR] Cycle-based error applied! address=0x341f4580 additional_latency=2459910500 cycles
Heartbeat CPU 0 instructions: 540000085 cycles: 2178952065 heartbeat IPC: 0.6377 cumulative IPC: 0.2478 (Simulation time: 04 hr 03 min 56 sec)
[ERROR_CYCLE] Error added at CPU cycle 2189858995, interval 85, pending count: 1
[DRAM_CYCLE_ERROR] Cycle-based error applied! address=0x10dda00000 additional_latency=2459910500 cycles
Simulation CPU 0 panic: IPC 0 < 0.01
Heartbeat CPU 0 instructions: 550000085 cycles: 2213688481 heartbeat IPC: 0.2879 cumulative IPC: 0.2485 (Simulation time: 04 hr 08 min 05 sec)
[ERROR_CYCLE] Error added at CPU cycle 2215622043, interval 86, pending count: 1
[DRAM_CYCLE_ERROR] Cycle-based error applied! address=0x137a0cfac0 additional_latency=2459910500 cycles
Heartbeat CPU 0 instructions: 560000085 cycles: 2239185828 heartbeat IPC: 0.3922 cumulative IPC: 0.2501 (Simulation time: 04 hr 10 min 58 sec)
[ERROR_CYCLE] Error added at CPU cycle 2241385090, interval 87, pending count: 1
[DRAM_CYCLE_ERROR] Cycle-based error applied! address=0x137a0d5e40 additional_latency=2459910500 cycles
Heartbeat CPU 0 instructions: 570000085 cycles: 2255446724 heartbeat IPC: 0.615 cumulative IPC: 0.2527 (Simulation time: 04 hr 12 min 26 sec)
[ERROR_CYCLE] Error added at CPU cycle 2267148136, interval 88, pending count: 1
[DRAM_CYCLE_ERROR] Cycle-based error applied! address=0x1959cf1f40 additional_latency=2459910500 cycles
Simulation CPU 0 panic: IPC 0 < 0.01
[ERROR_CYCLE] Error added at CPU cycle 2292911184, interval 89, pending count: 1
[DRAM_CYCLE_ERROR] Cycle-based error applied! address=0x3b6600000 additional_latency=2459910500 cycles
Simulation CPU 0 panic: IPC 0 < 0.01
Heartbeat CPU 0 instructions: 580000087 cycles: 2309244791 heartbeat IPC: 0.1859 cumulative IPC: 0.2512 (Simulation time: 04 hr 17 min 59 sec)
Heartbeat CPU 0 instructions: 590000090 cycles: 2315668627 heartbeat IPC: 1.557 cumulative IPC: 0.2548 (Simulation time: 04 hr 19 min 07 sec)
[ERROR_CYCLE] Error added at CPU cycle 2318674230, interval 90, pending count: 1
[DRAM_CYCLE_ERROR] Cycle-based error applied! address=0x1959cf3868 additional_latency=2459910500 cycles
Simulation CPU 0 panic: IPC 0 < 0.01
[ERROR_CYCLE] Error added at CPU cycle 2344437277, interval 91, pending count: 1
[DRAM_CYCLE_ERROR] Cycle-based error applied! address=0xe03400000 additional_latency=2459910500 cycles
Simulation CPU 0 panic: IPC 0 < 0.01
Heartbeat CPU 0 instructions: 600000094 cycles: 2369501053 heartbeat IPC: 0.1858 cumulative IPC: 0.2532 (Simulation time: 04 hr 24 min 14 sec)
[ERROR_CYCLE] Error added at CPU cycle 2370200325, interval 92, pending count: 1
[DRAM_CYCLE_ERROR] Cycle-based error applied! address=0x137a0ec640 additional_latency=2459910500 cycles
Simulation CPU 0 warning: IPC 0.031727 < 0.05
Heartbeat CPU 0 instructions: 610000096 cycles: 2385781374 heartbeat IPC: 0.6142 cumulative IPC: 0.2557 (Simulation time: 04 hr 26 min 22 sec)
[ERROR_CYCLE] Error added at CPU cycle 2395963371, interval 93, pending count: 1
[DRAM_CYCLE_ERROR] Cycle-based error applied! address=0x6ce00000 additional_latency=2459910500 cycles
Simulation CPU 0 panic: IPC 0 < 0.01
Heartbeat CPU 0 instructions: 620000098 cycles: 2420619896 heartbeat IPC: 0.287 cumulative IPC: 0.2561 (Simulation time: 04 hr 29 min 58 sec)
[ERROR_CYCLE] Error added at CPU cycle 2421726418, interval 94, pending count: 1
[DRAM_CYCLE_ERROR] Cycle-based error applied! address=0x137a086240 additional_latency=2459910500 cycles
Heartbeat CPU 0 instructions: 630000101 cycles: 2436947811 heartbeat IPC: 0.6124 cumulative IPC: 0.2585 (Simulation time: 04 hr 31 min 49 sec)
[ERROR_CYCLE] Error added at CPU cycle 2447489466, interval 95, pending count: 1
[DRAM_CYCLE_ERROR] Cycle-based error applied! address=0x1c49c00000 additional_latency=2459910500 cycles
Simulation CPU 0 panic: IPC 0 < 0.01
Heartbeat CPU 0 instructions: 640000105 cycles: 2462499818 heartbeat IPC: 0.3914 cumulative IPC: 0.2599 (Simulation time: 04 hr 34 min 41 sec)
[ERROR_CYCLE] Error added at CPU cycle 2473252512, interval 96, pending count: 1
[DRAM_CYCLE_ERROR] Cycle-based error applied! address=0x10dda38b00 additional_latency=2459910500 cycles
Heartbeat CPU 0 instructions: 650000105 cycles: 2487448059 heartbeat IPC: 0.4008 cumulative IPC: 0.2613 (Simulation time: 04 hr 37 min 31 sec)
Heartbeat CPU 0 instructions: 660000105 cycles: 2493892310 heartbeat IPC: 1.552 cumulative IPC: 0.2646 (Simulation time: 04 hr 38 min 32 sec)
[ERROR_CYCLE] Error added at CPU cycle 2499015559, interval 97, pending count: 1
[DRAM_CYCLE_ERROR] Cycle-based error applied! address=0x1959cfbc60 additional_latency=2459910500 cycles
Simulation CPU 0 panic: IPC 0 < 0.01
Heartbeat CPU 0 instructions: 670000107 cycles: 2519394006 heartbeat IPC: 0.3921 cumulative IPC: 0.2659 (Simulation time: 04 hr 41 min 32 sec)
[ERROR_CYCLE] Error added at CPU cycle 2524778607, interval 98, pending count: 1
[DRAM_CYCLE_ERROR] Cycle-based error applied! address=0x648a00000 additional_latency=2459910500 cycles
Simulation CPU 0 panic: IPC 0 < 0.01
Heartbeat CPU 0 instructions: 680000110 cycles: 2544898516 heartbeat IPC: 0.3921 cumulative IPC: 0.2672 (Simulation time: 04 hr 43 min 40 sec)
[ERROR_CYCLE] Error added at CPU cycle 2550541653, interval 99, pending count: 1
[DRAM_CYCLE_ERROR] Cycle-based error applied! address=0x1959cfd3a8 additional_latency=2459910500 cycles
Simulation CPU 0 panic: IPC 0 < 0.01
Heartbeat CPU 0 instructions: 690000112 cycles: 2570387291 heartbeat IPC: 0.3923 cumulative IPC: 0.2684 (Simulation time: 04 hr 45 min 59 sec)
[ERROR_CYCLE] Error added at CPU cycle 2576304701, interval 100, pending count: 1
[DRAM_CYCLE_ERROR] Cycle-based error applied! address=0x1959cfec48 additional_latency=2459910500 cycles
Simulation CPU 0 panic: IPC 0 < 0.01
Heartbeat CPU 0 instructions: 700000113 cycles: 2595876134 heartbeat IPC: 0.3923 cumulative IPC: 0.2697 (Simulation time: 04 hr 48 min 25 sec)
[ERROR_CYCLE] Error added at CPU cycle 2602067747, interval 101, pending count: 1
[DRAM_CYCLE_ERROR] Cycle-based error applied! address=0x661600000 additional_latency=2459910500 cycles
Simulation CPU 0 panic: IPC 0 < 0.01
[ERROR_CYCLE] Error added at CPU cycle 2627830794, interval 102, pending count: 1
[DRAM_CYCLE_ERROR] Cycle-based error applied! address=0x1c789048c0 additional_latency=2459910500 cycles
Simulation CPU 0 panic: IPC 0.007659 < 0.01
Heartbeat CPU 0 instructions: 710000114 cycles: 2640486425 heartbeat IPC: 0.2242 cumulative IPC: 0.2689 (Simulation time: 04 hr 53 min 40 sec)
[ERROR_CYCLE] Error added at CPU cycle 2653593842, interval 103, pending count: 1
[DRAM_CYCLE_ERROR] Cycle-based error applied! address=0x13cd135140 additional_latency=2459910500 cycles
Heartbeat CPU 0 instructions: 720000115 cycles: 2675187883 heartbeat IPC: 0.2882 cumulative IPC: 0.2691 (Simulation time: 04 hr 57 min 51 sec)
[ERROR_CYCLE] Error added at CPU cycle 2679356888, interval 104, pending count: 1
[DRAM_CYCLE_ERROR] Cycle-based error applied! address=0x1d35603d10 additional_latency=2459910500 cycles
Simulation CPU 0 panic: IPC 0 < 0.01
[ERROR_CYCLE] Error added at CPU cycle 2705119935, interval 105, pending count: 1
[DRAM_CYCLE_ERROR] Cycle-based error applied! address=0x1223c00000 additional_latency=2459910500 cycles
Simulation CPU 0 panic: IPC 0 < 0.01
Heartbeat CPU 0 instructions: 730000118 cycles: 2719736965 heartbeat IPC: 0.2245 cumulative IPC: 0.2684 (Simulation time: 05 hr 02 min 28 sec)
Heartbeat CPU 0 instructions: 740000119 cycles: 2726139580 heartbeat IPC: 1.562 cumulative IPC: 0.2714 (Simulation time: 05 hr 03 min 26 sec)
[ERROR_CYCLE] Error added at CPU cycle 2730882983, interval 106, pending count: 1
[DRAM_CYCLE_ERROR] Cycle-based error applied! address=0x1d35605638 additional_latency=2459910500 cycles
Simulation CPU 0 panic: IPC 0 < 0.01
[ERROR_CYCLE] Error added at CPU cycle 2756646029, interval 107, pending count: 1
[DRAM_CYCLE_ERROR] Cycle-based error applied! address=0x1e3e000000 additional_latency=2459910500 cycles
Simulation CPU 0 panic: IPC 0 < 0.01
Heartbeat CPU 0 instructions: 750000120 cycles: 2770682986 heartbeat IPC: 0.2245 cumulative IPC: 0.2707 (Simulation time: 05 hr 07 min 17 sec)
[ERROR_CYCLE] Error added at CPU cycle 2782409076, interval 108, pending count: 1
[DRAM_CYCLE_ERROR] Cycle-based error applied! address=0x1b31290ac0 additional_latency=2459910500 cycles
Heartbeat CPU 0 instructions: 760000122 cycles: 2796140825 heartbeat IPC: 0.3928 cumulative IPC: 0.2718 (Simulation time: 05 hr 09 min 48 sec)
[ERROR_CYCLE] Error added at CPU cycle 2808172124, interval 109, pending count: 1
[DRAM_CYCLE_ERROR] Cycle-based error applied! address=0xad600000 additional_latency=2459910500 cycles
Simulation CPU 0 panic: IPC 0.0093029 < 0.01
Heartbeat CPU 0 instructions: 770000124 cycles: 2830803380 heartbeat IPC: 0.2885 cumulative IPC: 0.272 (Simulation time: 05 hr 13 min 19 sec)
[ERROR_CYCLE] Error added at CPU cycle 2833935170, interval 110, pending count: 1
[DRAM_CYCLE_ERROR] Cycle-based error applied! address=0x46d76de40 additional_latency=2459910500 cycles
Heartbeat CPU 0 instructions: 780000126 cycles: 2837163678 heartbeat IPC: 1.572 cumulative IPC: 0.2749 (Simulation time: 05 hr 14 min 27 sec)
Heartbeat CPU 0 instructions: 790000126 cycles: 2852767338 heartbeat IPC: 0.6409 cumulative IPC: 0.2769 (Simulation time: 05 hr 16 min 25 sec)
[ERROR_CYCLE] Error added at CPU cycle 2859698218, interval 111, pending count: 1
[DRAM_CYCLE_ERROR] Cycle-based error applied! address=0x1f59100000 additional_latency=2459910500 cycles
Simulation CPU 0 panic: IPC 0 < 0.01
[ERROR_CYCLE] Error added at CPU cycle 2885461265, interval 112, pending count: 1
[DRAM_CYCLE_ERROR] Cycle-based error applied! address=0x1e3e01fac0 additional_latency=2459910500 cycles
Heartbeat CPU 0 instructions: 800000127 cycles: 2897374552 heartbeat IPC: 0.2242 cumulative IPC: 0.2761 (Simulation time: 05 hr 21 min 15 sec)
Heartbeat CPU 0 instructions: 810000128 cycles: 2903765479 heartbeat IPC: 1.565 cumulative IPC: 0.2789 (Simulation time: 05 hr 22 min 11 sec)
[ERROR_CYCLE] Error added at CPU cycle 2911224311, interval 113, pending count: 1
[DRAM_CYCLE_ERROR] Cycle-based error applied! address=0x28c700028 additional_latency=2459910500 cycles
Simulation CPU 0 panic: IPC 0 < 0.01
[ERROR_CYCLE] Error added at CPU cycle 2936987359, interval 114, pending count: 1
[DRAM_CYCLE_ERROR] Cycle-based error applied! address=0x3c1386c80 additional_latency=2459910500 cycles
Heartbeat CPU 0 instructions: 820000131 cycles: 2938485119 heartbeat IPC: 0.288 cumulative IPC: 0.2791 (Simulation time: 05 hr 25 min 47 sec)
Heartbeat CPU 0 instructions: 830000135 cycles: 2944916020 heartbeat IPC: 1.555 cumulative IPC: 0.2818 (Simulation time: 05 hr 26 min 37 sec)
[ERROR_CYCLE] Error added at CPU cycle 2962750405, interval 115, pending count: 1
[DRAM_CYCLE_ERROR] Cycle-based error applied! address=0x1d35610eb8 additional_latency=2459910500 cycles
Simulation CPU 0 panic: IPC 0 < 0.01
Heartbeat CPU 0 instructions: 840000135 cycles: 2979694089 heartbeat IPC: 0.2875 cumulative IPC: 0.2819 (Simulation time: 05 hr 30 min 47 sec)
Heartbeat CPU 0 instructions: 850000139 cycles: 2986177875 heartbeat IPC: 1.542 cumulative IPC: 0.2846 (Simulation time: 05 hr 31 min 46 sec)
[ERROR_CYCLE] Error added at CPU cycle 2988513452, interval 116, pending count: 1
[DRAM_CYCLE_ERROR] Cycle-based error applied! address=0x13cd189400 additional_latency=2459910500 cycles
Heartbeat CPU 0 instructions: 860000143 cycles: 3011729345 heartbeat IPC: 0.3914 cumulative IPC: 0.2856 (Simulation time: 05 hr 34 min 49 sec)
[ERROR_CYCLE] Error added at CPU cycle 3014276500, interval 117, pending count: 1
[DRAM_CYCLE_ERROR] Cycle-based error applied! address=0x1d35612600 additional_latency=2459910500 cycles
Simulation CPU 0 panic: IPC 0 < 0.01
[ERROR_CYCLE] Error added at CPU cycle 3040039546, interval 118, pending count: 1
[DRAM_CYCLE_ERROR] Cycle-based error applied! address=0x2f4700000 additional_latency=2459910500 cycles
Simulation CPU 0 panic: IPC 0 < 0.01
Heartbeat CPU 0 instructions: 870000143 cycles: 3056321524 heartbeat IPC: 0.2243 cumulative IPC: 0.2847 (Simulation time: 05 hr 39 min 47 sec)
Heartbeat CPU 0 instructions: 880000145 cycles: 3062721462 heartbeat IPC: 1.563 cumulative IPC: 0.2873 (Simulation time: 05 hr 40 min 55 sec)
[ERROR_CYCLE] Error added at CPU cycle 3065802593, interval 119, pending count: 1
[DRAM_CYCLE_ERROR] Cycle-based error applied! address=0x1d35614008 additional_latency=2459910500 cycles
Simulation CPU 0 panic: IPC 0 < 0.01
Heartbeat CPU 0 instructions: 890000148 cycles: 3088185120 heartbeat IPC: 0.3927 cumulative IPC: 0.2882 (Simulation time: 05 hr 44 min 10