
*** ChampSim Multicore Out-of-Order Simulator ***
Warmup Instructions: 0
Simulation Instructions: 9223372036854775807
Number of CPUs: 1
Page size: 2097152

Off-chip DRAM Size: 128 GiB Channels: 2 Width: 32-bit Data Rate: 4807 MT/s
[ERROR_PAGE_MANAGER] Error latency: 1990500 
[ERROR_PAGE_MANAGER] Random seed: 54321 (fixed for preload reproducibility)
[ERROR_PAGE_MANAGER] Cycle-based error modeling enabled
[ERROR_PAGE_MANAGER] Errors per interval: 1
[ERROR_PAGE_MANAGER] Error cycle interval: 257630478 cycles

=== ERROR PAGE STATISTICS ===
Mode: CYCLE
Error Cycle Interval: 257630478 CPU cycles
Total Error Accesses: 0
==============================
Warmup finished CPU 0 instructions: 0 cycles: 1 cumulative IPC: 0 (Simulation time: 00 hr 00 min 00 sec)
Warmup complete CPU 0 instructions: 0 cycles: 1 cumulative IPC: 0 (Simulation time: 00 hr 00 min 00 sec)
Heartbeat CPU 0 instructions: 10000002 cycles: 4932183 heartbeat IPC: 2.028 cumulative IPC: 2.028 (Simulation time: 00 hr 01 min 01 sec)
Heartbeat CPU 0 instructions: 20000002 cycles: 9813832 heartbeat IPC: 2.048 cumulative IPC: 2.038 (Simulation time: 00 hr 02 min 01 sec)
Heartbeat CPU 0 instructions: 30000006 cycles: 14668737 heartbeat IPC: 2.06 cumulative IPC: 2.045 (Simulation time: 00 hr 02 min 57 sec)
Heartbeat CPU 0 instructions: 40000007 cycles: 19531568 heartbeat IPC: 2.056 cumulative IPC: 2.048 (Simulation time: 00 hr 03 min 39 sec)
Heartbeat CPU 0 instructions: 50000007 cycles: 24405159 heartbeat IPC: 2.052 cumulative IPC: 2.049 (Simulation time: 00 hr 04 min 30 sec)
Heartbeat CPU 0 instructions: 60000008 cycles: 30769460 heartbeat IPC: 1.571 cumulative IPC: 1.95 (Simulation time: 00 hr 05 min 29 sec)
Heartbeat CPU 0 instructions: 70000012 cycles: 36969098 heartbeat IPC: 1.613 cumulative IPC: 1.893 (Simulation time: 00 hr 06 min 37 sec)
Heartbeat CPU 0 instructions: 80000013 cycles: 43166495 heartbeat IPC: 1.614 cumulative IPC: 1.853 (Simulation time: 00 hr 07 min 46 sec)
Heartbeat CPU 0 instructions: 90000016 cycles: 49398529 heartbeat IPC: 1.605 cumulative IPC: 1.822 (Simulation time: 00 hr 08 min 55 sec)
Heartbeat CPU 0 instructions: 100000018 cycles: 55618404 heartbeat IPC: 1.608 cumulative IPC: 1.798 (Simulation time: 00 hr 10 min 04 sec)
Heartbeat CPU 0 instructions: 110000019 cycles: 61834262 heartbeat IPC: 1.609 cumulative IPC: 1.779 (Simulation time: 00 hr 11 min 13 sec)
Heartbeat CPU 0 instructions: 120000020 cycles: 68043900 heartbeat IPC: 1.61 cumulative IPC: 1.764 (Simulation time: 00 hr 12 min 21 sec)
Heartbeat CPU 0 instructions: 130000020 cycles: 74268956 heartbeat IPC: 1.606 cumulative IPC: 1.75 (Simulation time: 00 hr 13 min 19 sec)
Heartbeat CPU 0 instructions: 140000022 cycles: 80516657 heartbeat IPC: 1.601 cumulative IPC: 1.739 (Simulation time: 00 hr 14 min 07 sec)
Heartbeat CPU 0 instructions: 150000024 cycles: 86831608 heartbeat IPC: 1.584 cumulative IPC: 1.727 (Simulation time: 00 hr 14 min 57 sec)
Heartbeat CPU 0 instructions: 160000024 cycles: 93084353 heartbeat IPC: 1.599 cumulative IPC: 1.719 (Simulation time: 00 hr 15 min 42 sec)
Heartbeat CPU 0 instructions: 170000027 cycles: 99343640 heartbeat IPC: 1.598 cumulative IPC: 1.711 (Simulation time: 00 hr 16 min 38 sec)
Heartbeat CPU 0 instructions: 180000028 cycles: 105619311 heartbeat IPC: 1.593 cumulative IPC: 1.704 (Simulation time: 00 hr 17 min 43 sec)
Heartbeat CPU 0 instructions: 190000032 cycles: 111901367 heartbeat IPC: 1.592 cumulative IPC: 1.698 (Simulation time: 00 hr 18 min 43 sec)
Heartbeat CPU 0 instructions: 200000034 cycles: 118180668 heartbeat IPC: 1.593 cumulative IPC: 1.692 (Simulation time: 00 hr 19 min 28 sec)
Heartbeat CPU 0 instructions: 210000034 cycles: 124433634 heartbeat IPC: 1.599 cumulative IPC: 1.688 (Simulation time: 00 hr 20 min 13 sec)
Heartbeat CPU 0 instructions: 220000036 cycles: 130687228 heartbeat IPC: 1.599 cumulative IPC: 1.683 (Simulation time: 00 hr 21 min 12 sec)
Heartbeat CPU 0 instructions: 230000039 cycles: 136961644 heartbeat IPC: 1.594 cumulative IPC: 1.679 (Simulation time: 00 hr 21 min 58 sec)
Heartbeat CPU 0 instructions: 240000043 cycles: 143374528 heartbeat IPC: 1.559 cumulative IPC: 1.674 (Simulation time: 00 hr 22 min 50 sec)
Heartbeat CPU 0 instructions: 250000045 cycles: 149684113 heartbeat IPC: 1.585 cumulative IPC: 1.67 (Simulation time: 00 hr 23 min 56 sec)
Heartbeat CPU 0 instructions: 260000048 cycles: 155982560 heartbeat IPC: 1.588 cumulative IPC: 1.667 (Simulation time: 00 hr 25 min 03 sec)
Heartbeat CPU 0 instructions: 270000051 cycles: 162283198 heartbeat IPC: 1.587 cumulative IPC: 1.664 (Simulation time: 00 hr 26 min 09 sec)
Heartbeat CPU 0 instructions: 280000051 cycles: 168590435 heartbeat IPC: 1.585 cumulative IPC: 1.661 (Simulation time: 00 hr 27 min 01 sec)
Heartbeat CPU 0 instructions: 290000051 cycles: 174885375 heartbeat IPC: 1.589 cumulative IPC: 1.658 (Simulation time: 00 hr 28 min 01 sec)
Heartbeat CPU 0 instructions: 300000054 cycles: 181171323 heartbeat IPC: 1.591 cumulative IPC: 1.656 (Simulation time: 00 hr 28 min 57 sec)
Heartbeat CPU 0 instructions: 310000054 cycles: 187443040 heartbeat IPC: 1.594 cumulative IPC: 1.654 (Simulation time: 00 hr 29 min 59 sec)
Heartbeat CPU 0 instructions: 320000058 cycles: 193735011 heartbeat IPC: 1.589 cumulative IPC: 1.652 (Simulation time: 00 hr 30 min 53 sec)
Heartbeat CPU 0 instructions: 330000062 cycles: 200031091 heartbeat IPC: 1.588 cumulative IPC: 1.65 (Simulation time: 00 hr 31 min 41 sec)
Heartbeat CPU 0 instructions: 340000063 cycles: 206431151 heartbeat IPC: 1.562 cumulative IPC: 1.647 (Simulation time: 00 hr 32 min 48 sec)
Heartbeat CPU 0 instructions: 350000067 cycles: 212775175 heartbeat IPC: 1.576 cumulative IPC: 1.645 (Simulation time: 00 hr 33 min 58 sec)
Heartbeat CPU 0 instructions: 360000070 cycles: 219136153 heartbeat IPC: 1.572 cumulative IPC: 1.643 (Simulation time: 00 hr 35 min 08 sec)
Heartbeat CPU 0 instructions: 370000071 cycles: 225495906 heartbeat IPC: 1.572 cumulative IPC: 1.641 (Simulation time: 00 hr 36 min 19 sec)
Heartbeat CPU 0 instructions: 380000071 cycles: 231862838 heartbeat IPC: 1.571 cumulative IPC: 1.639 (Simulation time: 00 hr 37 min 29 sec)
Heartbeat CPU 0 instructions: 390000073 cycles: 238169565 heartbeat IPC: 1.586 cumulative IPC: 1.637 (Simulation time: 00 hr 38 min 39 sec)
Heartbeat CPU 0 instructions: 400000077 cycles: 244441707 heartbeat IPC: 1.594 cumulative IPC: 1.636 (Simulation time: 00 hr 39 min 49 sec)
Heartbeat CPU 0 instructions: 410000077 cycles: 250689584 heartbeat IPC: 1.601 cumulative IPC: 1.635 (Simulation time: 00 hr 40 min 58 sec)
Heartbeat CPU 0 instructions: 420000080 cycles: 256942637 heartbeat IPC: 1.599 cumulative IPC: 1.635 (Simulation time: 00 hr 42 min 07 sec)
[ERROR_CYCLE] Error added at CPU cycle 257630478, interval 1, pending count: 1
[DRAM_CYCLE_ERROR] Cycle-based error applied! address=0x5a92f5dc0 additional_latency=1990500 cycles
Heartbeat CPU 0 instructions: 430000084 cycles: 263315621 heartbeat IPC: 1.569 cumulative IPC: 1.633 (Simulation time: 00 hr 43 min 18 sec)
Heartbeat CPU 0 instructions: 440000087 cycles: 269635595 heartbeat IPC: 1.582 cumulative IPC: 1.632 (Simulation time: 00 hr 44 min 28 sec)
Heartbeat CPU 0 instructions: 450000089 cycles: 275953545 heartbeat IPC: 1.583 cumulative IPC: 1.631 (Simulation time: 00 hr 45 min 32 sec)
Heartbeat CPU 0 instructions: 460000092 cycles: 282246397 heartbeat IPC: 1.589 cumulative IPC: 1.63 (Simulation time: 00 hr 46 min 34 sec)
Heartbeat CPU 0 instructions: 470000092 cycles: 288518127 heartbeat IPC: 1.594 cumulative IPC: 1.629 (Simulation time: 00 hr 47 min 42 sec)
Heartbeat CPU 0 instructions: 480000094 cycles: 294782458 heartbeat IPC: 1.596 cumulative IPC: 1.628 (Simulation time: 00 hr 48 min 34 sec)
Heartbeat CPU 0 instructions: 490000094 cycles: 301021818 heartbeat IPC: 1.603 cumulative IPC: 1.628 (Simulation time: 00 hr 49 min 20 sec)
Heartbeat CPU 0 instructions: 500000096 cycles: 307246226 heartbeat IPC: 1.607 cumulative IPC: 1.627 (Simulation time: 00 hr 50 min 11 sec)
Heartbeat CPU 0 instructions: 510000099 cycles: 313438892 heartbeat IPC: 1.615 cumulative IPC: 1.627 (Simulation time: 00 hr 51 min 06 sec)
Heartbeat CPU 0 instructions: 520000100 cycles: 319713897 heartbeat IPC: 1.594 cumulative IPC: 1.626 (Simulation time: 00 hr 51 min 53 sec)
Heartbeat CPU 0 instructions: 530000104 cycles: 325951930 heartbeat IPC: 1.603 cumulative IPC: 1.626 (Simulation time: 00 hr 52 min 48 sec)
Heartbeat CPU 0 instructions: 540000106 cycles: 332171963 heartbeat IPC: 1.608 cumulative IPC: 1.626 (Simulation time: 00 hr 53 min 46 sec)
Heartbeat CPU 0 instructions: 550000108 cycles: 338420052 heartbeat IPC: 1.6 cumulative IPC: 1.625 (Simulation time: 00 hr 54 min 32 sec)
Heartbeat CPU 0 instructions: 560000109 cycles: 344682954 heartbeat IPC: 1.597 cumulative IPC: 1.625 (Simulation time: 00 hr 55 min 27 sec)
Heartbeat CPU 0 instructions: 570000113 cycles: 350967929 heartbeat IPC: 1.591 cumulative IPC: 1.624 (Simulation time: 00 hr 56 min 12 sec)
Heartbeat CPU 0 instructions: 580000115 cycles: 357335954 heartbeat IPC: 1.57 cumulative IPC: 1.623 (Simulation time: 00 hr 57 min 19 sec)
Heartbeat CPU 0 instructions: 590000117 cycles: 363655679 heartbeat IPC: 1.582 cumulative IPC: 1.622 (Simulation time: 00 hr 58 min 30 sec)
Heartbeat CPU 0 instructions: 600000117 cycles: 369978964 heartbeat IPC: 1.581 cumulative IPC: 1.622 (Simulation time: 00 hr 59 min 28 sec)
Heartbeat CPU 0 instructions: 610000118 cycles: 376313687 heartbeat IPC: 1.579 cumulative IPC: 1.621 (Simulation time: 01 hr 00 min 23 sec)
Heartbeat CPU 0 instructions: 620000121 cycles: 382745359 heartbeat IPC: 1.555 cumulative IPC: 1.62 (Simulation time: 01 hr 01 min 10 sec)
Heartbeat CPU 0 instructions: 630000123 cycles: 389121536 heartbeat IPC: 1.568 cumulative IPC: 1.619 (Simulation time: 01 hr 02 min 01 sec)
Heartbeat CPU 0 instructions: 640000125 cycles: 395471178 heartbeat IPC: 1.575 cumulative IPC: 1.618 (Simulation time: 01 hr 02 min 49 sec)
Heartbeat CPU 0 instructions: 650000128 cycles: 401790671 heartbeat IPC: 1.582 cumulative IPC: 1.618 (Simulation time: 01 hr 03 min 35 sec)
Heartbeat CPU 0 instructions: 660000130 cycles: 408086188 heartbeat IPC: 1.588 cumulative IPC: 1.617 (Simulation time: 01 hr 04 min 24 sec)
Heartbeat CPU 0 instructions: 670000130 cycles: 414428224 heartbeat IPC: 1.577 cumulative IPC: 1.617 (Simulation time: 01 hr 05 min 33 sec)
Heartbeat CPU 0 instructions: 680000130 cycles: 420778954 heartbeat IPC: 1.575 cumulative IPC: 1.616 (Simulation time: 01 hr 06 min 41 sec)
Heartbeat CPU 0 instructions: 690000131 cycles: 427048017 heartbeat IPC: 1.595 cumulative IPC: 1.616 (Simulation time: 01 hr 07 min 49 sec)
Heartbeat CPU 0 instructions: 700000131 cycles: 433283830 heartbeat IPC: 1.604 cumulative IPC: 1.616 (Simulation time: 01 hr 08 min 57 sec)
Heartbeat CPU 0 instructions: 710000131 cycles: 439584649 heartbeat IPC: 1.587 cumulative IPC: 1.615 (Simulation time: 01 hr 10 min 04 sec)
Heartbeat CPU 0 instructions: 720000133 cycles: 445852501 heartbeat IPC: 1.595 cumulative IPC: 1.615 (Simulation time: 01 hr 11 min 12 sec)
Heartbeat CPU 0 instructions: 730000135 cycles: 452111333 heartbeat IPC: 1.598 cumulative IPC: 1.615 (Simulation time: 01 hr 12 min 20 sec)
Heartbeat CPU 0 instructions: 740000139 cycles: 458361885 heartbeat IPC: 1.6 cumulative IPC: 1.614 (Simulation time: 01 hr 13 min 27 sec)
Heartbeat CPU 0 instructions: 750000140 cycles: 464605732 heartbeat IPC: 1.602 cumulative IPC: 1.614 (Simulation time: 01 hr 14 min 35 sec)
Heartbeat CPU 0 instructions: 760000142 cycles: 470845889 heartbeat IPC: 1.603 cumulative IPC: 1.614 (Simulation time: 01 hr 15 min 42 sec)
Heartbeat CPU 0 instructions: 770000144 cycles: 477112635 heartbeat IPC: 1.596 cumulative IPC: 1.614 (Simulation time: 01 hr 16 min 50 sec)
Heartbeat CPU 0 instructions: 780000144 cycles: 483369246 heartbeat IPC: 1.598 cumulative IPC: 1.614 (Simulation time: 01 hr 17 min 57 sec)
Heartbeat CPU 0 instructions: 790000148 cycles: 489654356 heartbeat IPC: 1.591 cumulative IPC: 1.613 (Simulation time: 01 hr 19 min 05 sec)
Heartbeat CPU 0 instructions: 800000150 cycles: 496008974 heartbeat IPC: 1.574 cumulative IPC: 1.613 (Simulation time: 01 hr 20 min 13 sec)
Heartbeat CPU 0 instructions: 810000153 cycles: 502324903 heartbeat IPC: 1.583 cumulative IPC: 1.613 (Simulation time: 01 hr 21 min 20 sec)
Heartbeat CPU 0 instructions: 820000156 cycles: 508701229 heartbeat IPC: 1.568 cumulative IPC: 1.612 (Simulation time: 01 hr 22 min 28 sec)
Heartbeat CPU 0 instructions: 830000160 cycles: 515064557 heartbeat IPC: 1.572 cumulative IPC: 1.611 (Simulation time: 01 hr 23 min 35 sec)
[ERROR_CYCLE] Error added at CPU cycle 515260956, interval 2, pending count: 1
[DRAM_CYCLE_ERROR] Cycle-based error applied! address=0x12bf4dc540 additional_latency=1990500 cycles
Heartbeat CPU 0 instructions: 840000161 cycles: 521390860 heartbeat IPC: 1.581 cumulative IPC: 1.611 (Simulation time: 01 hr 24 min 43 sec)
Heartbeat CPU 0 instructions: 850000161 cycles: 527715457 heartbeat IPC: 1.581 cumulative IPC: 1.611 (Simulation time: 01 hr 25 min 50 sec)
Heartbeat CPU 0 instructions: 860000163 cycles: 534060176 heartbeat IPC: 1.576 cumulative IPC: 1.61 (Simulation time: 01 hr 26 min 58 sec)
Heartbeat CPU 0 instructions: 870000164 cycles: 540409057 heartbeat IPC: 1.575 cumulative IPC: 1.61 (Simulation time: 01 hr 28 min 06 sec)
Heartbeat CPU 0 instructions: 880000164 cycles: 546713592 heartbeat IPC: 1.586 cumulative IPC: 1.61 (Simulation time: 01 hr 29 min 13 sec)
Heartbeat CPU 0 instructions: 890000168 cycles: 552979755 heartbeat IPC: 1.596 cumulative IPC: 1.609 (Simulation time: 01 hr 30 min 07 sec)
Heartbeat CPU 0 instructions: 900000168 cycles: 559290918 heartbeat IPC: 1.584 cumulative IPC: 1.609 (Simulation time: 01 hr 31 min 07 sec)
Heartbeat CPU 0 instructions: 910000169 cycles: 565550466 heartbeat IPC: 1.598 cumulative IPC: 1.609 (Simulation time: 01 hr 32 min 16 sec)
Heartbeat CPU 0 instructions: 920000171 cycles: 571829993 heartbeat IPC: 1.592 cumulative IPC: 1.609 (Simulation time: 01 hr 33 min 26 sec)
Heartbeat CPU 0 instructions: 930000175 cycles: 578077634 heartbeat IPC: 1.601 cumulative IPC: 1.609 (Simulation time: 01 hr 34 min 35 sec)
Heartbeat CPU 0 instructions: 940000178 cycles: 584331158 heartbeat IPC: 1.599 cumulative IPC: 1.609 (Simulation time: 01 hr 35 min 45 sec)
Heartbeat CPU 0 instructions: 950000181 cycles: 590592209 heartbeat IPC: 1.597 cumulative IPC: 1.609 (Simulation time: 01 hr 36 min 54 sec)
Heartbeat CPU 0 instructions: 960000182 cycles: 596845246 heartbeat IPC: 1.599 cumulative IPC: 1.608 (Simulation time: 01 hr 38 min 04 sec)
Heartbeat CPU 0 instructions: 970000182 cycles: 603131994 heartbeat IPC: 1.591 cumulative IPC: 1.608 (Simulation time: 01 hr 39 min 14 sec)
Heartbeat CPU 0 instructions: 980000183 cycles: 609426361 heartbeat IPC: 1.589 cumulative IPC: 1.608 (Simulation time: 01 hr 40 min 24 sec)
Heartbeat CPU 0 instructions: 990000183 cycles: 615761381 heartbeat IPC: 1.579 cumulative IPC: 1.608 (Simulation time: 01 hr 41 min 34 sec)
Heartbeat CPU 0 instructions: 1000000183 cycles: 622013720 heartbeat IPC: 1.599 cumulative IPC: 1.608 (Simulation time: 01 hr 42 min 44 sec)
Heartbeat CPU 0 instructions: 1010000186 cycles: 628310957 heartbeat IPC: 1.588 cumulative IPC: 1.607 (Simulation time: 01 hr 43 min 54 sec)
Heartbeat CPU 0 instructions: 1020000187 cycles: 634607142 heartbeat IPC: 1.588 cumulative IPC: 1.607 (Simulation time: 01 hr 45 min 03 sec)
Heartbeat CPU 0 instructions: 1030000187 cycles: 640872804 heartbeat IPC: 1.596 cumulative IPC: 1.607 (Simulation time: 01 hr 46 min 13 sec)
Heartbeat CPU 0 instructions: 1040000188 cycles: 647117154 heartbeat IPC: 1.601 cumulative IPC: 1.607 (Simulation time: 01 hr 47 min 22 sec)
Heartbeat CPU 0 instructions: 1050000188 cycles: 653367060 heartbeat IPC: 1.6 cumulative IPC: 1.607 (Simulation time: 01 hr 48 min 31 sec)
Heartbeat CPU 0 instructions: 1060000189 cycles: 659654102 heartbeat IPC: 1.591 cumulative IPC: 1.607 (Simulation time: 01 hr 49 min 41 sec)
Heartbeat CPU 0 instructions: 1070000192 cycles: 665956616 heartbeat IPC: 1.587 cumulative IPC: 1.607 (Simulation time: 01 hr 50 min 50 sec)
Heartbeat CPU 0 instructions: 1080000194 cycles: 672283798 heartbeat IPC: 1.58 cumulative IPC: 1.606 (Simulation time: 01 hr 51 min 59 sec)
Heartbeat CPU 0 instructions: 1090000197 cycles: 678565798 heartbeat IPC: 1.592 cumulative IPC: 1.606 (Simulation time: 01 hr 53 min 09 sec)
Heartbeat CPU 0 instructions: 1100000199 cycles: 684862113 heartbeat IPC: 1.588 cumulative IPC: 1.606 (Simulation time: 01 hr 54 min 18 sec)
Heartbeat CPU 0 instructions: 1110000200 cycles: 691182209 heartbeat IPC: 1.582 cumulative IPC: 1.606 (Simulation time: 01 hr 55 min 28 sec)
Heartbeat CPU 0 instructions: 1120000200 cycles: 697488943 heartbeat IPC: 1.586 cumulative IPC: 1.606 (Simulation time: 01 hr 56 min 38 sec)
Heartbeat CPU 0 instructions: 1130000200 cycles: 703775044 heartbeat IPC: 1.591 cumulative IPC: 1.606 (Simulation time: 01 hr 57 min 48 sec)
Heartbeat CPU 0 instructions: 1140000203 cycles: 710037358 heartbeat IPC: 1.597 cumulative IPC: 1.606 (Simulation time: 01 hr 58 min 57 sec)
Heartbeat CPU 0 instructions: 1150000204 cycles: 716308127 heartbeat IPC: 1.595 cumulative IPC: 1.605 (Simulation time: 02 hr 00 min 07 sec)
Heartbeat CPU 0 instructions: 1160000205 cycles: 722598515 heartbeat IPC: 1.59 cumulative IPC: 1.605 (Simulation time: 02 hr 01 min 17 sec)
Heartbeat CPU 0 instructions: 1170000209 cycles: 728917515 heartbeat IPC: 1.583 cumulative IPC: 1.605 (Simulation time: 02 hr 02 min 27 sec)
Heartbeat CPU 0 instructions: 1180000213 cycles: 735261110 heartbeat IPC: 1.576 cumulative IPC: 1.605 (Simulation time: 02 hr 03 min 37 sec)
Heartbeat CPU 0 instructions: 1190000214 cycles: 741546131 heartbeat IPC: 1.591 cumulative IPC: 1.605 (Simulation time: 02 hr 04 min 47 sec)
Heartbeat CPU 0 instructions: 1200000214 cycles: 747822515 heartbeat IPC: 1.593 cumulative IPC: 1.605 (Simulation time: 02 hr 05 min 57 sec)
Heartbeat CPU 0 instructions: 1210000215 cycles: 754190734 heartbeat IPC: 1.57 cumulative IPC: 1.604 (Simulation time: 02 hr 07 min 07 sec)
Heartbeat CPU 0 instructions: 1220000216 cycles: 760519839 heartbeat IPC: 1.58 cumulative IPC: 1.604 (Simulation time: 02 hr 08 min 18 sec)
Heartbeat CPU 0 instructions: 1230000216 cycles: 766814821 heartbeat IPC: 1.589 cumulative IPC: 1.604 (Simulation time: 02 hr 09 min 27 sec)
[ERROR_CYCLE] Error added at CPU cycle 772891435, interval 3, pending count: 1
[DRAM_CYCLE_ERROR] Cycle-based error applied! address=0x3bef701c0 additional_latency=1990500 cycles
Heartbeat CPU 0 instructions: 1240000217 cycles: 773086835 heartbeat IPC: 1.594 cumulative IPC: 1.604 (Simulation time: 02 hr 10 min 37 sec)
Heartbeat CPU 0 instructions: 1250000220 cycles: 779364720 heartbeat IPC: 1.593 cumulative IPC: 1.604 (Simulation time: 02 hr 11 min 46 sec)
Heartbeat CPU 0 instructions: 1260000224 cycles: 785709998 heartbeat IPC: 1.576 cumulative IPC: 1.604 (Simulation time: 02 hr 12 min 56 sec)
Heartbeat CPU 0 instructions: 1270000226 cycles: 792117976 heartbeat IPC: 1.561 cumulative IPC: 1.603 (Simulation time: 02 hr 14 min 07 sec)
Heartbeat CPU 0 instructions: 1280000229 cycles: 798453537 heartbeat IPC: 1.578 cumulative IPC: 1.603 (Simulation time: 02 hr 15 min 18 sec)
Heartbeat CPU 0 instructions: 1290000231 cycles: 804764925 heartbeat IPC: 1.584 cumulative IPC: 1.603 (Simulation time: 02 hr 16 min 28 sec)
Heartbeat CPU 0 instructions: 1300000232 cycles: 811101049 heartbeat IPC: 1.578 cumulative IPC: 1.603 (Simulation time: 02 hr 17 min 38 sec)
Heartbeat CPU 0 instructions: 1310000232 cycles: 817436629 heartbeat IPC: 1.578 cumulative IPC: 1.603 (Simulation time: 02 hr 18 min 48 sec)
Heartbeat CPU 0 instructions: 1320000235 cycles: 823739804 heartbeat IPC: 1.587 cumulative IPC: 1.602 (Simulation time: 02 hr 19 min 58 sec)
Heartbeat CPU 0 instructions: 1330000239 cycles: 830018600 heartbeat IPC: 1.593 cumulative IPC: 1.602 (Simulation time: 02 hr 21 min 07 sec)
Heartbeat CPU 0 instructions: 1340000241 cycles: 836274124 heartbeat IPC: 1.599 cumulative IPC: 1.602 (Simulation time: 02 hr 22 min 16 sec)
Heartbeat CPU 0 instructions: 1350000241 cycles: 842543010 heartbeat IPC: 1.595 cumulative IPC: 1.602 (Simulation time: 02 hr 23 min 25 sec)
Heartbeat CPU 0 instructions: 1360000243 cycles: 848916863 heartbeat IPC: 1.569 cumulative IPC: 1.602 (Simulation time: 02 hr 24 min 35 sec)
Heartbeat CPU 0 instructions: 1370000244 cycles: 855220589 heartbeat IPC: 1.586 cumulative IPC: 1.602 (Simulation time: 02 hr 25 min 45 sec)
Heartbeat CPU 0 instructions: 1380000246 cycles: 861521327 heartbeat IPC: 1.587 cumulative IPC: 1.602 (Simulation time: 02 hr 26 min 54 sec)
Heartbeat CPU 0 instructions: 1390000247 cycles: 867836734 heartbeat IPC: 1.583 cumulative IPC: 1.602 (Simulation time: 02 hr 28 min 04 sec)
Heartbeat CPU 0 instructions: 1400000248 cycles: 874186596 heartbeat IPC: 1.575 cumulative IPC: 1.601 (Simulation time: 02 hr 29 min 14 sec)
Heartbeat CPU 0 instructions: 1410000248 cycles: 880539891 heartbeat IPC: 1.574 cumulative IPC: 1.601 (Simulation time: 02 hr 30 min 23 sec)
Heartbeat CPU 0 instructions: 1420000251 cycles: 886875390 heartbeat IPC: 1.578 cumulative IPC: 1.601 (Simulation time: 02 hr 31 min 33 sec)
Heartbeat CPU 0 instructions: 1430000253 cycles: 893196024 heartbeat IPC: 1.582 cumulative IPC: 1.601 (Simulation time: 02 hr 32 min 42 sec)
Heartbeat CPU 0 instructions: 1440000257 cycles: 899522838 heartbeat IPC: 1.581 cumulative IPC: 1.601 (Simulation time: 02 hr 33 min 52 sec)
Heartbeat CPU 0 instructions: 1450000257 cycles: 905881192 heartbeat IPC: 1.573 cumulative IPC: 1.601 (Simulation time: 02 hr 35 min 00 sec)
Heartbeat CPU 0 instructions: 1460000261 cycles: 912300191 heartbeat IPC: 1.558 cumulative IPC: 1.6 (Simulation time: 02 hr 35 min 54 sec)
Heartbeat CPU 0 instructions: 1470000261 cycles: 918610879 heartbeat IPC: 1.585 cumulative IPC: 1.6 (Simulation time: 02 hr 37 min 01 sec)
Heartbeat CPU 0 instructions: 1480000264 cycles: 924890663 heartbeat IPC: 1.592 cumulative IPC: 1.6 (Simulation time: 02 hr 38 min 09 sec)
Heartbeat CPU 0 instructions: 1490000268 cycles: 931154944 heartbeat IPC: 1.596 cumulative IPC: 1.6 (Simulation time: 02 hr 39 min 16 sec)
Heartbeat CPU 0 instructions: 1500000270 cycles: 937458588 heartbeat IPC: 1.586 cumulative IPC: 1.6 (Simulation time: 02 hr 40 min 23 sec)
Heartbeat CPU 0 instructions: 1510000274 cycles: 943745906 heartbeat IPC: 1.591 cumulative IPC: 1.6 (Simulation time: 02 hr 41 min 31 sec)
Heartbeat CPU 0 instructions: 1520000278 cycles: 949993486 heartbeat IPC: 1.601 cumulative IPC: 1.6 (Simulation time: 02 hr 42 min 38 sec)
Heartbeat CPU 0 instructions: 1530000278 cycles: 956226524 heartbeat IPC: 1.604 cumulative IPC: 1.6 (Simulation time: 02 hr 43 min 45 sec)
Heartbeat CPU 0 instructions: 1540000282 cycles: 962464629 heartbeat IPC: 1.603 cumulative IPC: 1.6 (Simulation time: 02 hr 44 min 52 sec)
Heartbeat CPU 0 instructions: 1550000286 cycles: 968803106 heartbeat IPC: 1.578 cumulative IPC: 1.6 (Simulation time: 02 hr 46 min 00 sec)
Heartbeat CPU 0 instructions: 1560000287 cycles: 975076048 heartbeat IPC: 1.594 cumulative IPC: 1.6 (Simulation time: 02 hr 47 min 08 sec)
Heartbeat CPU 0 instructions: 1570000288 cycles: 981345961 heartbeat IPC: 1.595 cumulative IPC: 1.6 (Simulation time: 02 hr 48 min 15 sec)
Heartbeat CPU 0 instructions: 1580000289 cycles: 987607587 heartbeat IPC: 1.597 cumulative IPC: 1.6 (Simulation time: 02 hr 49 min 23 sec)
Heartbeat CPU 0 instructions: 1590000292 cycles: 993859831 heartbeat IPC: 1.599 cumulative IPC: 1.6 (Simulation time: 02 hr 50 min 30 sec)
Heartbeat CPU 0 instructions: 1600000295 cycles: 1000158022 heartbeat IPC: 1.588 cumulative IPC: 1.6 (Simulation time: 02 hr 51 min 38 sec)
Heartbeat CPU 0 instructions: 1610000297 cycles: 1006473137 heartbeat IPC: 1.584 cumulative IPC: 1.6 (Simulation time: 02 hr 52 min 46 sec)
Heartbeat CPU 0 instructions: 1620000299 cycles: 1012791704 heartbeat IPC: 1.583 cumulative IPC: 1.6 (Simulation time: 02 hr 53 min 55 sec)
Heartbeat CPU 0 instructions: 1630000299 cycles: 1019103421 heartbeat IPC: 1.584 cumulative IPC: 1.599 (Simulation time: 02 hr 55 min 03 sec)
Heartbeat CPU 0 instructions: 1640000301 cycles: 1025478677 heartbeat IPC: 1.569 cumulative IPC: 1.599 (Simulation time: 02 hr 56 min 11 sec)
[ERROR_CYCLE] Error added at CPU cycle 1030521912, interval 4, pending count: 1
[DRAM_CYCLE_ERROR] Cycle-based error applied! address=0xf62375d00 additional_latency=1990500 cycles
Heartbeat CPU 0 instructions: 1650000301 cycles: 1031823543 heartbeat IPC: 1.576 cumulative IPC: 1.599 (Simulation time: 02 hr 57 min 20 sec)
Heartbeat CPU 0 instructions: 1660000303 cycles: 1038145330 heartbeat IPC: 1.582 cumulative IPC: 1.599 (Simulation time: 02 hr 58 min 28 sec)
Heartbeat CPU 0 instructions: 1670000305 cycles: 1044470130 heartbeat IPC: 1.581 cumulative IPC: 1.599 (Simulation time: 02 hr 59 min 35 sec)
Heartbeat CPU 0 instructions: 1680000306 cycles: 1050782279 heartbeat IPC: 1.584 cumulative IPC: 1.599 (Simulation time: 03 hr 00 min 43 sec)
Heartbeat CPU 0 instructions: 1690000307 cycles: 1057125641 heartbeat IPC: 1.576 cumulative IPC: 1.599 (Simulation time: 03 hr 01 min 51 sec)
Heartbeat CPU 0 instructions: 1700000310 cycles: 1063483390 heartbeat IPC: 1.573 cumulative IPC: 1.599 (Simulation time: 03 hr 02 min 59 sec)
Heartbeat CPU 0 instructions: 1710000313 cycles: 1069800826 heartbeat IPC: 1.583 cumulative IPC: 1.598 (Simulation time: 03 hr 04 min 07 sec)
Heartbeat CPU 0 instructions: 1720000315 cycles: 1076076887 heartbeat IPC: 1.593 cumulative IPC: 1.598 (Simulation time: 03 hr 05 min 15 sec)
Heartbeat CPU 0 instructions: 1730000315 cycles: 1082352131 heartbeat IPC: 1.594 cumulative IPC: 1.598 (Simulation time: 03 hr 06 min 03 sec)
Heartbeat CPU 0 instructions: 1740000316 cycles: 1088696721 heartbeat IPC: 1.576 cumulative IPC: 1.598 (Simulation time: 03 hr 06 min 55 sec)
Heartbeat CPU 0 instructions: 1750000318 cycles: 1094965036 heartbeat IPC: 1.595 cumulative IPC: 1.598 (Simulation time: 03 hr 08 min 03 sec)
Heartbeat CPU 0 instructions: 1760000320 cycles: 1101217073 heartbeat IPC: 1.599 cumulative IPC: 1.598 (Simulation time: 03 hr 09 min 11 sec)
Heartbeat CPU 0 instructions: 1770000320 cycles: 1107476349 heartbeat IPC: 1.598 cumulative IPC: 1.598 (Simulation time: 03 hr 10 min 19 sec)
Heartbeat CPU 0 instructions: 1780000320 cycles: 1113741413 heartbeat IPC: 1.596 cumulative IPC: 1.598 (Simulation time: 03 hr 11 min 28 sec)
Heartbeat CPU 0 instructions: 1790000324 cycles: 1120004567 heartbeat IPC: 1.597 cumulative IPC: 1.598 (Simulation time: 03 hr 12 min 36 sec)
Heartbeat CPU 0 instructions: 1800000327 cycles: 1126349718 heartbeat IPC: 1.576 cumulative IPC: 1.598 (Simulation time: 03 hr 13 min 45 sec)
Heartbeat CPU 0 instructions: 1810000331 cycles: 1132684711 heartbeat IPC: 1.579 cumulative IPC: 1.598 (Simulation time: 03 hr 14 min 56 sec)
Heartbeat CPU 0 instructions: 1820000331 cycles: 1138966854 heartbeat IPC: 1.592 cumulative IPC: 1.598 (Simulation time: 03 hr 16 min 07 sec)
Heartbeat CPU 0 instructions: 1830000331 cycles: 1145298508 heartbeat IPC: 1.579 cumulative IPC: 1.598 (Simulation time: 03 hr 17 min 17 sec)
Heartbeat CPU 0 instructions: 1840000331 cycles: 1151596839 heartbeat IPC: 1.588 cumulative IPC: 1.598 (Simulation time: 03 hr 18 min 27 sec)
Heartbeat CPU 0 instructions: 1850000332 cycles: 1157869415 heartbeat IPC: 1.594 cumulative IPC: 1.598 (Simulation time: 03 hr 19 min 38 sec)
Heartbeat CPU 0 instructions: 1860000332 cycles: 1164137431 heartbeat IPC: 1.595 cumulative IPC: 1.598 (Simulation time: 03 hr 20 min 48 sec)
Heartbeat CPU 0 instructions: 1870000334 cycles: 1170413126 heartbeat IPC: 1.593 cumulative IPC: 1.598 (Simulation time: 03 hr 21 min 58 sec)
Heartbeat CPU 0 instructions: 1880000335 cycles: 1176687980 heartbeat IPC: 1.594 cumulative IPC: 1.598 (Simulation time: 03 hr 23 min 06 sec)
Heartbeat CPU 0 instructions: 1890000338 cycles: 1183034795 heartbeat IPC: 1.576 cumulative IPC: 1.598 (Simulation time: 03 hr 24 min 15 sec)
Heartbeat CPU 0 instructions: 1900000338 cycles: 1189380071 heartbeat IPC: 1.576 cumulative IPC: 1.597 (Simulation time: 03 hr 25 min 22 sec)
Heartbeat CPU 0 instructions: 1910000340 cycles: 1195673545 heartbeat IPC: 1.589 cumulative IPC: 1.597 (Simulation time: 03 hr 26 min 30 sec)
Heartbeat CPU 0 instructions: 1920000340 cycles: 1202006239 heartbeat IPC: 1.579 cumulative IPC: 1.597 (Simulation time: 03 hr 27 min 40 sec)
Heartbeat CPU 0 instructions: 1930000340 cycles: 1208257217 heartbeat IPC: 1.6 cumulative IPC: 1.597 (Simulation time: 03 hr 28 min 48 sec)
Heartbeat CPU 0 instructions: 1940000341 cycles: 1214530218 heartbeat IPC: 1.594 cumulative IPC: 1.597 (Simulation time: 03 hr 29 min 56 sec)
Heartbeat CPU 0 instructions: 1950000343 cycles: 1220784659 heartbeat IPC: 1.599 cumulative IPC: 1.597 (Simulation time: 03 hr 30 min 45 sec)
Heartbeat CPU 0 instructions: 1960000344 cycles: 1227052139 heartbeat IPC: 1.596 cumulative IPC: 1.597 (Simulation time: 03 hr 31 min 36 sec)
Heartbeat CPU 0 instructions: 1970000344 cycles: 1233304262 heartbeat IPC: 1.599 cumulative IPC: 1.597 (Simulation time: 03 hr 32 min 35 sec)
Heartbeat CPU 0 instructions: 1980000345 cycles: 1239564862 heartbeat IPC: 1.597 cumulative IPC: 1.597 (Simulation time: 03 hr 33 min 30 sec)
Heartbeat CPU 0 instructions: 1990000348 cycles: 1245862579 heartbeat IPC: 1.588 cumulative IPC: 1.597 (Simulation time: 03 hr 34 min 25 sec)

=== ERROR PAGE STATISTICS ===
Mode: CYCLE
Error Cycle Interval: 257630478 CPU cycles
Total Error Accesses: 4
==============================
Simulation finished CPU 0 instructions: 1999999510 cycles: 1252193045 cumulative IPC: 1.597 (Simulation time: 03 hr 35 min 34 sec)
Simulation complete CPU 0 instructions: 1999999510 cycles: 1252193045 cumulative IPC: 1.597 (Simulation time: 03 hr 35 min 34 sec)

ChampSim completed all CPUs

=== Simulation ===
CPU 0 runs test_traces/607.cactuBSSN_s-2421B.champsimtrace.xz

Region of Interest Statistics

CPU 0 cumulative IPC: 1.597 instructions: 1999999510 cycles: 1252193045
CPU 0 Branch Prediction Accuracy: 98.41% MPKI: 0.0223 Average ROB Occupancy at Mispredict: 322.1
Branch type MPKI
BRANCH_DIRECT_JUMP: 3.4e-05
BRANCH_INDIRECT: 4.45e-05
BRANCH_CONDITIONAL: 0.0122
BRANCH_DIRECT_CALL: 0.000332
BRANCH_INDIRECT_CALL: 1.5e-06
BRANCH_RETURN: 0.009687

cpu0->cpu0_STLB TOTAL        ACCESS:   18066013 HIT:   18065770 MISS:        243 MSHR_MERGE:          0
cpu0->cpu0_STLB LOAD         ACCESS:   18066013 HIT:   18065770 MISS:        243 MSHR_MERGE:          0
cpu0->cpu0_STLB RFO          ACCESS:          0 HIT:          0 MISS:          0 MSHR_MERGE:          0
cpu0->cpu0_STLB PREFETCH     ACCESS:          0 HIT:          0 MISS:          0 MSHR_MERGE:          0
cpu0->cpu0_STLB WRITE        ACCESS:          0 HIT:          0 MISS:          0 MSHR_MERGE:          0
cpu0->cpu0_STLB TRANSLATION  ACCESS:          0 HIT:          0 MISS:          0 MSHR_MERGE:          0
cpu0->cpu0_STLB PREFETCH REQUESTED:          0 ISSUED:          0 USEFUL:          0 USELESS:          0
cpu0->cpu0_STLB AVERAGE MISS LATENCY: 9084 cycles
cpu0->cpu0_L2C TOTAL        ACCESS:  251087546 HIT:  230704820 MISS:   20382726 MSHR_MERGE:          0
cpu0->cpu0_L2C LOAD         ACCESS:  217006533 HIT:  196654433 MISS:   20352100 MSHR_MERGE:          0
cpu0->cpu0_L2C RFO          ACCESS:   16173493 HIT:   16142885 MISS:      30608 MSHR_MERGE:          0
cpu0->cpu0_L2C PREFETCH     ACCESS:          0 HIT:          0 MISS:          0 MSHR_MERGE:          0
cpu0->cpu0_L2C WRITE        ACCESS:   17907520 HIT:   17907502 MISS:         18 MSHR_MERGE:          0
cpu0->cpu0_L2C TRANSLATION  ACCESS:          0 HIT:          0 MISS:          0 MSHR_MERGE:          0
cpu0->cpu0_L2C PREFETCH REQUESTED:          0 ISSUED:          0 USEFUL:          0 USELESS:          0
cpu0->cpu0_L2C AVERAGE MISS LATENCY: 98.59 cycles
cpu0->cpu0_L1I TOTAL        ACCESS:  392727003 HIT:  390069333 MISS:    2657670 MSHR_MERGE:    1307527
cpu0->cpu0_L1I LOAD         ACCESS:  392727003 HIT:  390069333 MISS:    2657670 MSHR_MERGE:    1307527
cpu0->cpu0_L1I RFO          ACCESS:          0 HIT:          0 MISS:          0 MSHR_MERGE:          0
cpu0->cpu0_L1I PREFETCH     ACCESS:          0 HIT:          0 MISS:          0 MSHR_MERGE:          0
cpu0->cpu0_L1I WRITE        ACCESS:          0 HIT:          0 MISS:          0 MSHR_MERGE:          0
cpu0->cpu0_L1I TRANSLATION  ACCESS:          0 HIT:          0 MISS:          0 MSHR_MERGE:          0
cpu0->cpu0_L1I PREFETCH REQUESTED:          0 ISSUED:          0 USEFUL:          0 USELESS:          0
cpu0->cpu0_L1I AVERAGE MISS LATENCY: 7.272 cycles
cpu0->cpu0_L1D TOTAL        ACCESS:  651074982 HIT:  376370555 MISS:  274704427 MSHR_MERGE:   42204817
cpu0->cpu0_L1D LOAD         ACCESS:  424324940 HIT:  167546010 MISS:  256778930 MSHR_MERGE:   40459853
cpu0->cpu0_L1D RFO          ACCESS:          0 HIT:          0 MISS:          0 MSHR_MERGE:          0
cpu0->cpu0_L1D PREFETCH     ACCESS:          0 HIT:          0 MISS:          0 MSHR_MERGE:          0
cpu0->cpu0_L1D WRITE        ACCESS:  226750042 HIT:  208824545 MISS:   17925497 MSHR_MERGE:    1744964
cpu0->cpu0_L1D TRANSLATION  ACCESS:          0 HIT:          0 MISS:          0 MSHR_MERGE:          0
cpu0->cpu0_L1D PREFETCH REQUESTED:          0 ISSUED:          0 USEFUL:          0 USELESS:          0
cpu0->cpu0_L1D AVERAGE MISS LATENCY: 17.81 cycles
cpu0->cpu0_ITLB TOTAL        ACCESS:  319373715 HIT:  319373702 MISS:         13 MSHR_MERGE:         10
cpu0->cpu0_ITLB LOAD         ACCESS:  319373715 HIT:  319373702 MISS:         13 MSHR_MERGE:         10
cpu0->cpu0_ITLB RFO          ACCESS:          0 HIT:          0 MISS:          0 MSHR_MERGE:          0
cpu0->cpu0_ITLB PREFETCH     ACCESS:          0 HIT:          0 MISS:          0 MSHR_MERGE:          0
cpu0->cpu0_ITLB WRITE        ACCESS:          0 HIT:          0 MISS:          0 MSHR_MERGE:          0
cpu0->cpu0_ITLB TRANSLATION  ACCESS:          0 HIT:          0 MISS:          0 MSHR_MERGE:          0
cpu0->cpu0_ITLB PREFETCH REQUESTED:          0 ISSUED:          0 USEFUL:          0 USELESS:          0
cpu0->cpu0_ITLB AVERAGE MISS LATENCY: 8735 cycles
cpu0->cpu0_DTLB TOTAL        ACCESS:  491456737 HIT:  454367647 MISS:   37089090 MSHR_MERGE:   19023080
cpu0->cpu0_DTLB LOAD         ACCESS:  491456737 HIT:  454367647 MISS:   37089090 MSHR_MERGE:   19023080
cpu0->cpu0_DTLB RFO          ACCESS:          0 HIT:          0 MISS:          0 MSHR_MERGE:          0
cpu0->cpu0_DTLB PREFETCH     ACCESS:          0 HIT:          0 MISS:          0 MSHR_MERGE:          0
cpu0->cpu0_DTLB WRITE        ACCESS:          0 HIT:          0 MISS:          0 MSHR_MERGE:          0
cpu0->cpu0_DTLB TRANSLATION  ACCESS:          0 HIT:          0 MISS:          0 MSHR_MERGE:          0
cpu0->cpu0_DTLB PREFETCH REQUESTED:          0 ISSUED:          0 USEFUL:          0 USELESS:          0
cpu0->cpu0_DTLB AVERAGE MISS LATENCY: 5.143 cycles
cpu0->LLC TOTAL        ACCESS:   22275847 HIT:    7173040 MISS:   15102807 MSHR_MERGE:          0
cpu0->LLC LOAD         ACCESS:   20352100 HIT:    5279949 MISS:   15072151 MSHR_MERGE:          0
cpu0->LLC RFO          ACCESS:      30608 HIT:          0 MISS:      30608 MSHR_MERGE:          0
cpu0->LLC PREFETCH     ACCESS:          0 HIT:          0 MISS:          0 MSHR_MERGE:          0
cpu0->LLC WRITE        ACCESS:    1893139 HIT:    1893091 MISS:         48 MSHR_MERGE:          0
cpu0->LLC TRANSLATION  ACCESS:          0 HIT:          0 MISS:          0 MSHR_MERGE:          0
cpu0->LLC PREFETCH REQUESTED:          0 ISSUED:          0 USEFUL:          0 USELESS:          0
cpu0->LLC AVERAGE MISS LATENCY: 111.8 cycles

DRAM Statistics

Channel 0 RQ ROW_BUFFER_HIT:      34043
  ROW_BUFFER_MISS:    7517559
  AVG DBUS CONGESTED CYCLE: 10.06
Channel 0 WQ ROW_BUFFER_HIT:     255337
  ROW_BUFFER_MISS:     688827
  FULL:          0
Channel 0 REFRESHES ISSUED:     104342

Channel 1 RQ ROW_BUFFER_HIT:      33859
  ROW_BUFFER_MISS:    7517777
  AVG DBUS CONGESTED CYCLE: 10.06
Channel 1 WQ ROW_BUFFER_HIT:     254683
  ROW_BUFFER_MISS:     689500
  FULL:          0
Channel 1 REFRESHES ISSUED:     104342
