
*** ChampSim Multicore Out-of-Order Simulator ***
Warmup Instructions: 0
Simulation Instructions: 9223372036854775807
Number of CPUs: 1
Page size: 1048576

Off-chip DRAM Size: 32 GiB Channels: 2 Width: 32-bit Data Rate: 4807 MT/s
[ERROR_PAGE_MANAGER] Error latency: 2459910500 
[ERROR_PAGE_MANAGER] Random seed: 54321 (fixed for preload reproducibility)
[ERROR_PAGE_MANAGER] Cycle-based error modeling enabled
[ERROR_PAGE_MANAGER] Errors per interval: 1
[ERROR_PAGE_MANAGER] Error cycle interval: 705324015 cycles

=== ERROR PAGE STATISTICS ===
Mode: CYCLE
Error Cycle Interval: 705324015 CPU cycles
Total Error Accesses: 0
==============================
Warmup finished CPU 0 instructions: 0 cycles: 1 cumulative IPC: 0 (Simulation time: 00 hr 00 min 00 sec)
Warmup complete CPU 0 instructions: 0 cycles: 1 cumulative IPC: 0 (Simulation time: 00 hr 00 min 00 sec)
Simulation CPU 0 panic: IPC 0 < 0.01
Simulation CPU 0 panic: IPC 2e-07 < 0.01
Simulation CPU 0 panic: IPC 0 < 0.01
Simulation CPU 0 panic: IPC 8.5e-06 < 0.01
Simulation CPU 0 panic: IPC 5.64e-05 < 0.01
Simulation CPU 0 panic: IPC 7e-07 < 0.01
Simulation CPU 0 panic: IPC 0 < 0.01
Simulation CPU 0 panic: IPC 0.0002781 < 0.01
Simulation CPU 0 panic: IPC 0 < 0.01
Simulation CPU 0 panic: IPC 0 < 0.01
Simulation CPU 0 panic: IPC 4e-07 < 0.01
Simulation CPU 0 panic: IPC 0 < 0.01
Simulation CPU 0 panic: IPC 2.3e-06 < 0.01
Simulation CPU 0 panic: IPC 1.4e-06 < 0.01
Simulation CPU 0 panic: IPC 1.6e-06 < 0.01
Simulation CPU 0 panic: IPC 3.82e-05 < 0.01
Simulation CPU 0 panic: IPC 2.12e-05 < 0.01
Simulation CPU 0 panic: IPC 1.04e-05 < 0.01
Simulation CPU 0 panic: IPC 3.11e-05 < 0.01
Simulation CPU 0 panic: IPC 2.18e-05 < 0.01
Simulation CPU 0 panic: IPC 1.01e-05 < 0.01
Simulation CPU 0 panic: IPC 2.12e-05 < 0.01
Simulation CPU 0 panic: IPC 2.89e-05 < 0.01
Heartbeat CPU 0 instructions: 10000002 cycles: 235746739 heartbeat IPC: 0.04242 cumulative IPC: 0.04242 (Simulation time: 00 hr 23 min 57 sec)
Heartbeat CPU 0 instructions: 20000002 cycles: 249856147 heartbeat IPC: 0.7087 cumulative IPC: 0.08005 (Simulation time: 00 hr 25 min 55 sec)
Heartbeat CPU 0 instructions: 30000006 cycles: 273142501 heartbeat IPC: 0.4294 cumulative IPC: 0.1098 (Simulation time: 00 hr 29 min 05 sec)
Heartbeat CPU 0 instructions: 40000007 cycles: 296420036 heartbeat IPC: 0.4296 cumulative IPC: 0.1349 (Simulation time: 00 hr 31 min 34 sec)
Heartbeat CPU 0 instructions: 50000007 cycles: 310510951 heartbeat IPC: 0.7097 cumulative IPC: 0.161 (Simulation time: 00 hr 33 min 15 sec)
Simulation CPU 0 critical: IPC 0.011888 < 0.02
Simulation CPU 0 panic: IPC 4.9e-06 < 0.01
Simulation CPU 0 panic: IPC 3e-07 < 0.01
Simulation CPU 0 panic: IPC 9.2e-06 < 0.01
Simulation CPU 0 panic: IPC 1.1e-05 < 0.01
Simulation CPU 0 panic: IPC 9.2e-06 < 0.01
Simulation CPU 0 panic: IPC 8.8e-06 < 0.01
Simulation CPU 0 panic: IPC 6.8e-06 < 0.01
Simulation CPU 0 panic: IPC 8.4e-06 < 0.01
Simulation CPU 0 panic: IPC 1.08e-05 < 0.01
Simulation CPU 0 panic: IPC 6.9e-06 < 0.01
Simulation CPU 0 panic: IPC 1.1e-05 < 0.01
Simulation CPU 0 panic: IPC 7.8e-06 < 0.01
Simulation CPU 0 panic: IPC 1.75e-05 < 0.01
Simulation CPU 0 panic: IPC 7.4e-06 < 0.01
Simulation CPU 0 panic: IPC 9.5e-06 < 0.01
Simulation CPU 0 panic: IPC 7.3e-06 < 0.01
Simulation CPU 0 panic: IPC 9.5e-06 < 0.01
Simulation CPU 0 panic: IPC 7.3e-06 < 0.01
Simulation CPU 0 panic: IPC 9.5e-06 < 0.01
Simulation CPU 0 panic: IPC 7.3e-06 < 0.01
Simulation CPU 0 panic: IPC 9.5e-06 < 0.01
Simulation CPU 0 panic: IPC 8e-06 < 0.01
Simulation CPU 0 panic: IPC 7.5e-06 < 0.01
Simulation CPU 0 panic: IPC 9.1e-06 < 0.01
Simulation CPU 0 panic: IPC 1.68e-05 < 0.01
Simulation CPU 0 panic: IPC 7.5e-06 < 0.01
Heartbeat CPU 0 instructions: 60000008 cycles: 612383616 heartbeat IPC: 0.03313 cumulative IPC: 0.09798 (Simulation time: 01 hr 04 min 03 sec)
Heartbeat CPU 0 instructions: 70000012 cycles: 618754391 heartbeat IPC: 1.57 cumulative IPC: 0.1131 (Simulation time: 01 hr 04 min 51 sec)
Heartbeat CPU 0 instructions: 80000013 cycles: 634380749 heartbeat IPC: 0.6399 cumulative IPC: 0.1261 (Simulation time: 01 hr 06 min 49 sec)
Heartbeat CPU 0 instructions: 90000014 cycles: 668491907 heartbeat IPC: 0.2932 cumulative IPC: 0.1346 (Simulation time: 01 hr 10 min 43 sec)
Heartbeat CPU 0 instructions: 100000018 cycles: 684123320 heartbeat IPC: 0.6397 cumulative IPC: 0.1462 (Simulation time: 01 hr 12 min 50 sec)
Heartbeat CPU 0 instructions: 110000019 cycles: 699754039 heartbeat IPC: 0.6398 cumulative IPC: 0.1572 (Simulation time: 01 hr 15 min 06 sec)
[ERROR_CYCLE] Error added at CPU cycle 705324016, interval 1, pending count: 1
[DRAM_CYCLE_ERROR] Cycle-based error applied! address=0x537cb8288 additional_latency=2459910500 cycles
Simulation CPU 0 critical: IPC 0.016342 < 0.02
Heartbeat CPU 0 instructions: 120000019 cycles: 734445191 heartbeat IPC: 0.2883 cumulative IPC: 0.1634 (Simulation time: 01 hr 18 min 50 sec)
Heartbeat CPU 0 instructions: 130000020 cycles: 750064952 heartbeat IPC: 0.6402 cumulative IPC: 0.1733 (Simulation time: 01 hr 20 min 21 sec)
Heartbeat CPU 0 instructions: 140000022 cycles: 774858898 heartbeat IPC: 0.4033 cumulative IPC: 0.1807 (Simulation time: 01 hr 22 min 56 sec)
Heartbeat CPU 0 instructions: 150000024 cycles: 790456496 heartbeat IPC: 0.6411 cumulative IPC: 0.1898 (Simulation time: 01 hr 25 min 08 sec)
Heartbeat CPU 0 instructions: 160000025 cycles: 815279396 heartbeat IPC: 0.4029 cumulative IPC: 0.1963 (Simulation time: 01 hr 28 min 29 sec)
Heartbeat CPU 0 instructions: 170000025 cycles: 830905598 heartbeat IPC: 0.64 cumulative IPC: 0.2046 (Simulation time: 01 hr 30 min 25 sec)
Heartbeat CPU 0 instructions: 180000026 cycles: 855765190 heartbeat IPC: 0.4023 cumulative IPC: 0.2103 (Simulation time: 01 hr 33 min 30 sec)
Heartbeat CPU 0 instructions: 190000027 cycles: 871377814 heartbeat IPC: 0.6405 cumulative IPC: 0.218 (Simulation time: 01 hr 35 min 43 sec)
Heartbeat CPU 0 instructions: 200000029 cycles: 877746317 heartbeat IPC: 1.57 cumulative IPC: 0.2279 (Simulation time: 01 hr 36 min 43 sec)
Heartbeat CPU 0 instructions: 210000030 cycles: 902588490 heartbeat IPC: 0.4025 cumulative IPC: 0.2327 (Simulation time: 01 hr 39 min 50 sec)
Heartbeat CPU 0 instructions: 220000032 cycles: 908973454 heartbeat IPC: 1.566 cumulative IPC: 0.242 (Simulation time: 01 hr 40 min 53 sec)
Heartbeat CPU 0 instructions: 230000034 cycles: 924608116 heartbeat IPC: 0.6396 cumulative IPC: 0.2488 (Simulation time: 01 hr 42 min 59 sec)
Heartbeat CPU 0 instructions: 240000034 cycles: 949538129 heartbeat IPC: 0.4011 cumulative IPC: 0.2528 (Simulation time: 01 hr 45 min 43 sec)
Heartbeat CPU 0 instructions: 250000034 cycles: 965140491 heartbeat IPC: 0.6409 cumulative IPC: 0.259 (Simulation time: 01 hr 47 min 42 sec)
Heartbeat CPU 0 instructions: 260000037 cycles: 980781702 heartbeat IPC: 0.6393 cumulative IPC: 0.2651 (Simulation time: 01 hr 49 min 47 sec)
Heartbeat CPU 0 instructions: 270000041 cycles: 987180102 heartbeat IPC: 1.563 cumulative IPC: 0.2735 (Simulation time: 01 hr 50 min 58 sec)
Heartbeat CPU 0 instructions: 280000041 cycles: 1012039719 heartbeat IPC: 0.4023 cumulative IPC: 0.2767 (Simulation time: 01 hr 53 min 58 sec)
Heartbeat CPU 0 instructions: 290000042 cycles: 1027666834 heartbeat IPC: 0.6399 cumulative IPC: 0.2822 (Simulation time: 01 hr 55 min 49 sec)
Heartbeat CPU 0 instructions: 300000044 cycles: 1043309923 heartbeat IPC: 0.6393 cumulative IPC: 0.2875 (Simulation time: 01 hr 58 min 04 sec)
Heartbeat CPU 0 instructions: 310000045 cycles: 1077399064 heartbeat IPC: 0.2933 cumulative IPC: 0.2877 (Simulation time: 02 hr 01 min 51 sec)
Heartbeat CPU 0 instructions: 320000048 cycles: 1092985625 heartbeat IPC: 0.6416 cumulative IPC: 0.2928 (Simulation time: 02 hr 03 min 54 sec)
Heartbeat CPU 0 instructions: 330000049 cycles: 1099359635 heartbeat IPC: 1.569 cumulative IPC: 0.3002 (Simulation time: 02 hr 04 min 58 sec)
Heartbeat CPU 0 instructions: 340000051 cycles: 1133475195 heartbeat IPC: 0.2931 cumulative IPC: 0.3 (Simulation time: 02 hr 09 min 14 sec)
Heartbeat CPU 0 instructions: 350000052 cycles: 1139818959 heartbeat IPC: 1.576 cumulative IPC: 0.3071 (Simulation time: 02 hr 10 min 23 sec)
Heartbeat CPU 0 instructions: 360000056 cycles: 1164632939 heartbeat IPC: 0.403 cumulative IPC: 0.3091 (Simulation time: 02 hr 13 min 41 sec)
Heartbeat CPU 0 instructions: 370000056 cycles: 1170994863 heartbeat IPC: 1.572 cumulative IPC: 0.316 (Simulation time: 02 hr 14 min 51 sec)
Heartbeat CPU 0 instructions: 380000056 cycles: 1205101660 heartbeat IPC: 0.2932 cumulative IPC: 0.3153 (Simulation time: 02 hr 19 min 17 sec)
Heartbeat CPU 0 instructions: 390000060 cycles: 1211530623 heartbeat IPC: 1.555 cumulative IPC: 0.3219 (Simulation time: 02 hr 20 min 28 sec)
Heartbeat CPU 0 instructions: 400000062 cycles: 1227178895 heartbeat IPC: 0.639 cumulative IPC: 0.326 (Simulation time: 02 hr 22 min 38 sec)
Heartbeat CPU 0 instructions: 410000064 cycles: 1242806458 heartbeat IPC: 0.6399 cumulative IPC: 0.3299 (Simulation time: 02 hr 24 min 49 sec)
Heartbeat CPU 0 instructions: 420000065 cycles: 1249201299 heartbeat IPC: 1.564 cumulative IPC: 0.3362 (Simulation time: 02 hr 25 min 57 sec)
Heartbeat CPU 0 instructions: 430000067 cycles: 1274156560 heartbeat IPC: 0.4007 cumulative IPC: 0.3375 (Simulation time: 02 hr 29 min 04 sec)
Heartbeat CPU 0 instructions: 440000068 cycles: 1280569361 heartbeat IPC: 1.559 cumulative IPC: 0.3436 (Simulation time: 02 hr 30 min 01 sec)
Heartbeat CPU 0 instructions: 450000068 cycles: 1305424571 heartbeat IPC: 0.4023 cumulative IPC: 0.3447 (Simulation time: 02 hr 32 min 57 sec)
Heartbeat CPU 0 instructions: 460000072 cycles: 1321033176 heartbeat IPC: 0.6407 cumulative IPC: 0.3482 (Simulation time: 02 hr 34 min 43 sec)
Heartbeat CPU 0 instructions: 470000073 cycles: 1336635014 heartbeat IPC: 0.641 cumulative IPC: 0.3516 (Simulation time: 02 hr 36 min 28 sec)
Heartbeat CPU 0 instructions: 480000074 cycles: 1352238879 heartbeat IPC: 0.6409 cumulative IPC: 0.355 (Simulation time: 02 hr 38 min 27 sec)
Heartbeat CPU 0 instructions: 490000074 cycles: 1367837892 heartbeat IPC: 0.6411 cumulative IPC: 0.3582 (Simulation time: 02 hr 40 min 27 sec)
Heartbeat CPU 0 instructions: 500000077 cycles: 1383448711 heartbeat IPC: 0.6406 cumulative IPC: 0.3614 (Simulation time: 02 hr 42 min 38 sec)
Heartbeat CPU 0 instructions: 510000078 cycles: 1408302297 heartbeat IPC: 0.4024 cumulative IPC: 0.3621 (Simulation time: 02 hr 45 min 57 sec)
[ERROR_CYCLE] Error added at CPU cycle 1410648031, interval 2, pending count: 1
[DRAM_CYCLE_ERROR] Cycle-based error applied! address=0x537ce8e90 additional_latency=2459910500 cycles
Simulation CPU 0 critical: IPC 0.017445 < 0.02
Heartbeat CPU 0 instructions: 520000078 cycles: 1443056050 heartbeat IPC: 0.2877 cumulative IPC: 0.3603 (Simulation time: 02 hr 50 min 28 sec)
Heartbeat CPU 0 instructions: 530000079 cycles: 1467921609 heartbeat IPC: 0.4022 cumulative IPC: 0.3611 (Simulation time: 02 hr 53 min 51 sec)
Heartbeat CPU 0 instructions: 540000081 cycles: 1483563795 heartbeat IPC: 0.6393 cumulative IPC: 0.364 (Simulation time: 02 hr 56 min 05 sec)
Heartbeat CPU 0 instructions: 550000081 cycles: 1508428562 heartbeat IPC: 0.4022 cumulative IPC: 0.3646 (Simulation time: 02 hr 59 min 13 sec)
Heartbeat CPU 0 instructions: 560000081 cycles: 1524035980 heartbeat IPC: 0.6407 cumulative IPC: 0.3674 (Simulation time: 03 hr 01 min 02 sec)
Heartbeat CPU 0 instructions: 570000084 cycles: 1530389300 heartbeat IPC: 1.574 cumulative IPC: 0.3725 (Simulation time: 03 hr 02 min 10 sec)
Heartbeat CPU 0 instructions: 580000087 cycles: 1564465559 heartbeat IPC: 0.2935 cumulative IPC: 0.3707 (Simulation time: 03 hr 06 min 33 sec)
Heartbeat CPU 0 instructions: 590000088 cycles: 1570831968 heartbeat IPC: 1.571 cumulative IPC: 0.3756 (Simulation time: 03 hr 07 min 42 sec)
Heartbeat CPU 0 instructions: 600000089 cycles: 1604910142 heartbeat IPC: 0.2934 cumulative IPC: 0.3739 (Simulation time: 03 hr 12 min 12 sec)
Heartbeat CPU 0 instructions: 610000089 cycles: 1611269054 heartbeat IPC: 1.573 cumulative IPC: 0.3786 (Simulation time: 03 hr 13 min 21 sec)
Heartbeat CPU 0 instructions: 620000089 cycles: 1636177430 heartbeat IPC: 0.4015 cumulative IPC: 0.3789 (Simulation time: 03 hr 16 min 41 sec)
Heartbeat CPU 0 instructions: 630000091 cycles: 1642555139 heartbeat IPC: 1.568 cumulative IPC: 0.3835 (Simulation time: 03 hr 17 min 51 sec)
Heartbeat CPU 0 instructions: 640000095 cycles: 1658153613 heartbeat IPC: 0.6411 cumulative IPC: 0.386 (Simulation time: 03 hr 20 min 03 sec)
Heartbeat CPU 0 instructions: 650000095 cycles: 1682997873 heartbeat IPC: 0.4025 cumulative IPC: 0.3862 (Simulation time: 03 hr 22 min 52 sec)
Heartbeat CPU 0 instructions: 660000096 cycles: 1689347051 heartbeat IPC: 1.575 cumulative IPC: 0.3907 (Simulation time: 03 hr 23 min 45 sec)
Heartbeat CPU 0 instructions: 670000097 cycles: 1704937320 heartbeat IPC: 0.6414 cumulative IPC: 0.393 (Simulation time: 03 hr 25 min 30 sec)
Heartbeat CPU 0 instructions: 680000100 cycles: 1720529890 heartbeat IPC: 0.6413 cumulative IPC: 0.3952 (Simulation time: 03 hr 27 min 19 sec)
Heartbeat CPU 0 instructions: 690000102 cycles: 1736096223 heartbeat IPC: 0.6424 cumulative IPC: 0.3974 (Simulation time: 03 hr 28 min 52 sec)
Heartbeat CPU 0 instructions: 700000105 cycles: 1751671859 heartbeat IPC: 0.642 cumulative IPC: 0.3996 (Simulation time: 03 hr 30 min 37 sec)
Heartbeat CPU 0 instructions: 710000108 cycles: 1776549296 heartbeat IPC: 0.402 cumulative IPC: 0.3997 (Simulation time: 03 hr 33 min 35 sec)
Heartbeat CPU 0 instructions: 720000109 cycles: 1801365156 heartbeat IPC: 0.403 cumulative IPC: 0.3997 (Simulation time: 03 hr 36 min 34 sec)
Heartbeat CPU 0 instructions: 730000113 cycles: 1826181605 heartbeat IPC: 0.403 cumulative IPC: 0.3997 (Simulation time: 03 hr 39 min 41 sec)
Heartbeat CPU 0 instructions: 740000114 cycles: 1832524059 heartbeat IPC: 1.577 cumulative IPC: 0.4038 (Simulation time: 03 hr 40 min 50 sec)
Heartbeat CPU 0 instructions: 750000114 cycles: 1857334906 heartbeat IPC: 0.403 cumulative IPC: 0.4038 (Simulation time: 03 hr 43 min 59 sec)
Heartbeat CPU 0 instructions: 760000117 cycles: 1872910937 heartbeat IPC: 0.642 cumulative IPC: 0.4058 (Simulation time: 03 hr 45 min 34 sec)
Heartbeat CPU 0 instructions: 770000118 cycles: 1897695051 heartbeat IPC: 0.4035 cumulative IPC: 0.4058 (Simulation time: 03 hr 48 min 20 sec)
Heartbeat CPU 0 instructions: 780000118 cycles: 1904004209 heartbeat IPC: 1.585 cumulative IPC: 0.4097 (Simulation time: 03 hr 49 min 13 sec)
Heartbeat CPU 0 instructions: 790000121 cycles: 1919560195 heartbeat IPC: 0.6428 cumulative IPC: 0.4116 (Simulation time: 03 hr 51 min 26 sec)
Heartbeat CPU 0 instructions: 800000122 cycles: 1944406809 heartbeat IPC: 0.4025 cumulative IPC: 0.4114 (Simulation time: 03 hr 54 min 27 sec)
Heartbeat CPU 0 instructions: 810000125 cycles: 1950734530 heartbeat IPC: 1.58 cumulative IPC: 0.4152 (Simulation time: 03 hr 55 min 26 sec)
Heartbeat CPU 0 instructions: 820000126 cycles: 1975550955 heartbeat IPC: 0.403 cumulative IPC: 0.4151 (Simulation time: 03 hr 58 min 44 sec)
Heartbeat CPU 0 instructions: 830000129 cycles: 1981913603 heartbeat IPC: 1.572 cumulative IPC: 0.4188 (Simulation time: 03 hr 59 min 45 sec)
Heartbeat CPU 0 instructions: 840000130 cycles: 2006796827 heartbeat IPC: 0.4019 cumulative IPC: 0.4186 (Simulation time: 04 hr 02 min 44 sec)
Heartbeat CPU 0 instructions: 850000134 cycles: 2013231964 heartbeat IPC: 1.554 cumulative IPC: 0.4222 (Simulation time: 04 hr 03 min 46 sec)
Heartbeat CPU 0 instructions: 860000138 cycles: 2028882843 heartbeat IPC: 0.6389 cumulative IPC: 0.4239 (Simulation time: 04 hr 05 min 45 sec)
Heartbeat CPU 0 instructions: 870000139 cycles: 2053729941 heartbeat IPC: 0.4025 cumulative IPC: 0.4236 (Simulation time: 04 hr 08 min 22 sec)
Heartbeat CPU 0 instructions: 880000140 cycles: 2060086688 heartbeat IPC: 1.573 cumulative IPC: 0.4272 (Simulation time: 04 hr 09 min 16 sec)
Heartbeat CPU 0 instructions: 890000143 cycles: 2075664761 heartbeat IPC: 0.6419 cumulative IPC: 0.4288 (Simulation time: 04 hr 11 min 14 sec)
Heartbeat CPU 0 instructions: 900000143 cycles: 2091328181 heartbeat IPC: 0.6384 cumulative IPC: 0.4303 (Simulation time: 04 hr 13 min 14 sec)
Heartbeat CPU 0 instructions: 910000143 cycles: 2106958166 heartbeat IPC: 0.6398 cumulative IPC: 0.4319 (Simulation time: 04 hr 14 min 44 sec)
[ERROR_CYCLE] Error added at CPU cycle 2115972045, interval 3, pending count: 1
[DRAM_CYCLE_ERROR] Cycle-based error applied! address=0x6dfc00000 additional_latency=2459910500 cycles
Simulation CPU 0 panic: IPC 0 < 0.01
Heartbeat CPU 0 instructions: 920000144 cycles: 2150898459 heartbeat IPC: 0.2276 cumulative IPC: 0.4277 (Simulation time: 04 hr 19 min 11 sec)
Heartbeat CPU 0 instructions: 930000144 cycles: 2166518352 heartbeat IPC: 0.6402 cumulative IPC: 0.4293 (Simulation time: 04 hr 20 min 51 sec)
Heartbeat CPU 0 instructions: 940000147 cycles: 2200617402 heartbeat IPC: 0.2933 cumulative IPC: 0.4272 (Simulation time: 04 hr 25 min 16 sec)
Heartbeat CPU 0 instructions: 950000149 cycles: 2216224665 heartbeat IPC: 0.6407 cumulative IPC: 0.4287 (Simulation time: 04 hr 26 min 59 sec)
Heartbeat CPU 0 instructions: 960000152 cycles: 2222625954 heartbeat IPC: 1.562 cumulative IPC: 0.4319 (Simulation time: 04 hr 27 min 55 sec)
Heartbeat CPU 0 instructions: 970000152 cycles: 2247442939 heartbeat IPC: 0.4029 cumulative IPC: 0.4316 (Simulation time: 04 hr 31 min 11 sec)
Heartbeat CPU 0 instructions: 980000153 cycles: 2263018489 heartbeat IPC: 0.642 cumulative IPC: 0.433 (Simulation time: 04 hr 33 min 10 sec)
Simulation CPU 0 warning: IPC 0.025452 < 0.05
Heartbeat CPU 0 instructions: 990000153 cycles: 2297127849 heartbeat IPC: 0.2932 cumulative IPC: 0.431 (Simulation time: 04 hr 37 min 18 sec)
Heartbeat CPU 0 instructions: 1000000154 cycles: 2303460938 heartbeat IPC: 1.579 cumulative IPC: 0.4341 (Simulation time: 04 hr 38 min 16 sec)
Heartbeat CPU 0 instructions: 1010000156 cycles: 2328269432 heartbeat IPC: 0.4031 cumulative IPC: 0.4338 (Simulation time: 04 hr 41 min 32 sec)
Heartbeat CPU 0 instructions: 1020000158 cycles: 2343858441 heartbeat IPC: 0.6415 cumulative IPC: 0.4352 (Simulation time: 04 hr 43 min 48 sec)
Heartbeat CPU 0 instructions: 1030000158 cycles: 2350203305 heartbeat IPC: 1.576 cumulative IPC: 0.4383 (Simulation time: 04 hr 44 min 57 sec)
Heartbeat CPU 0 instructions: 1040000160 cycles: 2375054964 heartbeat IPC: 0.4024 cumulative IPC: 0.4379 (Simulation time: 04 hr 48 min 17 sec)
Heartbeat CPU 0 instructions: 1050000160 cycles: 2381449320 heartbeat IPC: 1.564 cumulative IPC: 0.4409 (Simulation time: 04 hr 49 min 27 sec)
Heartbeat CPU 0 instructions: 1060000160 cycles: 2406315770 heartbeat IPC: 0.4021 cumulative IPC: 0.4405 (Simulation time: 04 hr 52 min 46 sec)
Heartbeat CPU 0 instructions: 1070000162 cycles: 2421932410 heartbeat IPC: 0.6403 cumulative IPC: 0.4418 (Simulation time: 04 hr 54 min 59 sec)
Heartbeat CPU 0 instructions: 1080000162 cycles: 2437584483 heartbeat IPC: 0.6389 cumulative IPC: 0.4431 (Simulation time: 04 hr 56 min 56 sec)
Heartbeat CPU 0 instructions: 1090000165 cycles: 2453180596 heartbeat IPC: 0.6412 cumulative IPC: 0.4443 (Simulation time: 04 hr 58 min 39 sec)
Heartbeat CPU 0 instructions: 1100000169 cycles: 2468756642 heartbeat IPC: 0.642 cumulative IPC: 0.4456 (Simulation time: 05 hr 00 min 51 sec)
Heartbeat CPU 0 instructions: 1110000171 cycles: 2484350355 heartbeat IPC: 0.6413 cumulative IPC: 0.4468 (Simulation time: 05 hr 03 min 05 sec)
Heartbeat CPU 0 instructions: 1120000172 cycles: 2499948488 heartbeat IPC: 0.6411 cumulative IPC: 0.448 (Simulation time: 05 hr 05 min 17 sec)
Heartbeat CPU 0 instructions: 1130000173 cycles: 2524782216 heartbeat IPC: 0.4027 cumulative IPC: 0.4476 (Simulation time: 05 hr 08 min 08 sec)
Heartbeat CPU 0 instructions: 1140000175 cycles: 2549580765 heartbeat IPC: 0.4032 cumulative IPC: 0.4471 (Simulation time: 05 hr 11 min 19 sec)
Heartbeat CPU 0 instructions: 1150000177 cycles: 2565156909 heartbeat IPC: 0.642 cumulative IPC: 0.4483 (Simulation time: 05 hr 13 min 16 sec)
Heartbeat CPU 0 instructions: 1160000181 cycles: 2589993411 heartbeat IPC: 0.4026 cumulative IPC: 0.4479 (Simulation time: 05 hr 16 min 16 sec)
Heartbeat CPU 0 instructions: 1170000184 cycles: 2605599371 heartbeat IPC: 0.6408 cumulative IPC: 0.449 (Simulation time: 05 hr 18 min 03 sec)
Heartbeat CPU 0 instructions: 1180000184 cycles: 2630478389 heartbeat IPC: 0.4019 cumulative IPC: 0.4486 (Simulation time: 05 hr 21 min 07 sec)
Heartbeat CPU 0 instructions: 1190000184 cycles: 2636817022 heartbeat IPC: 1.578 cumulative IPC: 0.4513 (Simulation time: 05 hr 22 min 09 sec)
Heartbeat CPU 0 instructions: 1200000188 cycles: 2643151046 heartbeat IPC: 1.579 cumulative IPC: 0.454 (Simulation time: 05 hr 23 min 09 sec)
Heartbeat CPU 0 instructions: 1210000190 cycles: 2677188202 heartbeat IPC: 0.2938 cumulative IPC: 0.452 (Simulation time: 05 hr 27 min 36 sec)
Heartbeat CPU 0 instructions: 1220000192 cycles: 2683512448 heartbeat IPC: 1.581 cumulative IPC: 0.4546 (Simulation time: 05 hr 28 min 46 sec)
Heartbeat CPU 0 instructions: 1230000192 cycles: 2708271269 heartbeat IPC: 0.4039 cumulative IPC: 0.4542 (Simulation time: 05 hr 31 min 38 sec)
Heartbeat CPU 0 instructions: 1240000192 cycles: 2714584412 heartbeat IPC: 1.584 cumulative IPC: 0.4568 (Simulation time: 05 hr 32 min 29 sec)
Heartbeat CPU 0 instructions: 1250000193 cycles: 2730156248 heartbeat IPC: 0.6422 cumulative IPC: 0.4578 (Simulation time: 05 hr 34 min 20 sec)
Heartbeat CPU 0 instructions: 1260000194 cycles: 2745772791 heartbeat IPC: 0.6403 cumulative IPC: 0.4589 (Simulation time: 05 hr 35 min 56 sec)
Heartbeat CPU 0 instructions: 1270000195 cycles: 2761438030 heartbeat IPC: 0.6384 cumulative IPC: 0.4599 (Simulation time: 05 hr 37 min 54 sec)
Heartbeat CPU 0 instructions: 1280000195 cycles: 2786260803 heartbeat IPC: 0.4029 cumulative IPC: 0.4594 (Simulation time: 05 hr 40 min 41 sec)
Heartbeat CPU 0 instructions: 1290000197 cycles: 2792594288 heartbeat IPC: 1.579 cumulative IPC: 0.4619 (Simulation time: 05 hr 41 min 38 sec)
Heartbeat CPU 0 instructions: 1300000200 cycles: 2808147157 heartbeat IPC: 0.643 cumulative IPC: 0.4629 (Simulation time: 05 hr 43 min 28 sec)
[ERROR_CYCLE] Error added at CPU cycle 2821296060, interval 4, pending count: 1
[DRAM_CYCLE_ERROR] Cycle-based error applied! address=0xdffb4a00 additional_latency=2459910500 cycles
Heartbeat CPU 0 instructions: 1310000201 cycles: 2823704320 heartbeat IPC: 0.6428 cumulative IPC: 0.4639 (Simulation time: 05 hr 45 min 42 sec)
Heartbeat CPU 0 instructions: 1320000204 cycles: 2839274958 heartbeat IPC: 0.6422 cumulative IPC: 0.4649 (Simulation time: 05 hr 47 min 56 sec)
Heartbeat CPU 0 instructions: 1330000204 cycles: 2854830335 heartbeat IPC: 0.6429 cumulative IPC: 0.4659 (Simulation time: 05 hr 50 min 10 sec)
Heartbeat CPU 0 instructions: 1340000205 cycles: 2888855011 heartbeat IPC: 0.2939 cumulative IPC: 0.4639 (Simulation time: 05 hr 54 min 21 sec)
Heartbeat CPU 0 instructions: 1350000206 cycles: 2904427525 heartbeat IPC: 0.6422 cumulative IPC: 0.4648 (Simulation time: 05 hr 56 min 35 sec)
Heartbeat CPU 0 instructions: 1360000206 cycles: 2938518958 heartbeat IPC: 0.2933 cumulative IPC: 0.4628 (Simulation time: 06 hr 00 min 46 sec)
Heartbeat CPU 0 instructions: 1370000208 cycles: 2944873491 heartbeat IPC: 1.574 cumulative IPC: 0.4652 (Simulation time: 06 hr 01 min 39 sec)
Heartbeat CPU 0 instructions: 1380000211 cycles: 2969653418 heartbeat IPC: 0.4036 cumulative IPC: 0.4647 (Simulation time: 06 hr 04 min 43 sec)
Heartbeat CPU 0 instructions: 1390000212 cycles: 2985207176 heartbeat IPC: 0.6429 cumulative IPC: 0.4656 (Simulation time: 06 hr 06 min 58 sec)
Heartbeat CPU 0 instructions: 1400000216 cycles: 3009998491 heartbeat IPC: 0.4034 cumulative IPC: 0.4651 (Simulation time: 06 hr 10 min 17 sec)
Heartbeat CPU 0 instructions: 1410000218 cycles: 3025544122 heartbeat IPC: 0.6433 cumulative IPC: 0.466 (Simulation time: 06 hr 12 min 32 sec)
Heartbeat CPU 0 instructions: 1420000220 cycles: 3031844427 heartbeat IPC: 1.587 cumulative IPC: 0.4684 (Simulation time: 06 hr 13 min 42 sec)
Heartbeat CPU 0 instructions: 1430000221 cycles: 3065865451 heartbeat IPC: 0.2939 cumulative IPC: 0.4664 (Simulation time: 06 hr 17 min 13 sec)
Heartbeat CPU 0 instructions: 1440000224 cycles: 3072185501 heartbeat IPC: 1.582 cumulative IPC: 0.4687 (Simulation time: 06 hr 17 min 59 sec)
Heartbeat CPU 0 instructions: 1450000224 cycles: 3097002562 heartbeat IPC: 0.4029 cumulative IPC: 0.4682 (Simulation time: 06 hr 20 min 58 sec)
Heartbeat CPU 0 instructions: 1460000227 cycles: 3103420277 heartbeat IPC: 1.558 cumulative IPC: 0.4704 (Simulation time: 06 hr 22 min 09 sec)
Heartbeat CPU 0 instructions: 1470000229 cycles: 3128252033 heartbeat IPC: 0.4027 cumulative IPC: 0.4699 (Simulation time: 06 hr 25 min 32 sec)
Heartbeat CPU 0 instructions: 1480000229 cycles: 3143840660 heartbeat IPC: 0.6415 cumulative IPC: 0.4708 (Simulation time: 06 hr 27 min 49 sec)
Heartbeat CPU 0 instructions: 1490000230 cycles: 3159405179 heartbeat IPC: 0.6425 cumulative IPC: 0.4716 (Simulation time: 06 hr 30 min 01 sec)
Heartbeat CPU 0 instructions: 1500000230 cycles: 3174961549 heartbeat IPC: 0.6428 cumulative IPC: 0.4724 (Simulation time: 06 hr 32 min 19 sec)
Heartbeat CPU 0 instructions: 1510000230 cycles: 3181272858 heartbeat IPC: 1.584 cumulative IPC: 0.4747 (Simulation time: 06 hr 33 min 29 sec)
Heartbeat CPU 0 instructions: 1520000233 cycles: 3196811625 heartbeat IPC: 0.6436 cumulative IPC: 0.4755 (Simulation time: 06 hr 35 min 45 sec)
Heartbeat CPU 0 instructions: 1530000234 cycles: 3221587908 heartbeat IPC: 0.4036 cumulative IPC: 0.4749 (Simulation time: 06 hr 39 min 06 sec)
Heartbeat CPU 0 instructions: 1540000238 cycles: 3237139168 heartbeat IPC: 0.643 cumulative IPC: 0.4757 (Simulation time: 06 hr 41 min 21 sec)
Heartbeat CPU 0 instructions: 1550000238 cycles: 3271231638 heartbeat IPC: 0.2933 cumulative IPC: 0.4738 (Simulation time: 06 hr 45 min 48 sec)
Heartbeat CPU 0 instructions: 1560000240 cycles: 3286751289 heartbeat IPC: 0.6443 cumulative IPC: 0.4746 (Simulation time: 06 hr 48 min 03 sec)
Heartbeat CPU 0 instructions: 1570000243 cycles: 3302285911 heartbeat IPC: 0.6437 cumulative IPC: 0.4754 (Simulation time: 06 hr 50 min 03 sec)
Heartbeat CPU 0 instructions: 1580000246 cycles: 3327082377 heartbeat IPC: 0.4033 cumulative IPC: 0.4749 (Simulation time: 06 hr 52 min 48 sec)
Heartbeat CPU 0 instructions: 1590000248 cycles: 3333416399 heartbeat IPC: 1.579 cumulative IPC: 0.477 (Simulation time: 06 hr 53 min 57 sec)
Heartbeat CPU 0 instructions: 1600000249 cycles: 3358229639 heartbeat IPC: 0.403 cumulative IPC: 0.4764 (Simulation time: 06 hr 57 min 14 sec)
Heartbeat CPU 0 instructions: 1610000252 cycles: 3364551238 heartbeat IPC: 1.582 cumulative IPC: 0.4785 (Simulation time: 06 hr 58 min 22 sec)
Heartbeat CPU 0 instructions: 1620000256 cycles: 3389331270 heartbeat IPC: 0.4036 cumulative IPC: 0.478 (Simulation time: 07 hr 00 min 58 sec)
Heartbeat CPU 0 instructions: 1630000256 cycles: 3404880175 heartbeat IPC: 0.6431 cumulative IPC: 0.4787 (Simulation time: 07 hr 02 min 53 sec)
Heartbeat CPU 0 instructions: 1640000256 cycles: 3420490458 heartbeat IPC: 0.6406 cumulative IPC: 0.4795 (Simulation time: 07 hr 04 min 37 sec)
Heartbeat CPU 0 instructions: 1650000256 cycles: 3436076797 heartbeat IPC: 0.6416 cumulative IPC: 0.4802 (Simulation time: 07 hr 06 min 51 sec)
Heartbeat CPU 0 instructions: 1660000256 cycles: 3442421698 heartbeat IPC: 1.576 cumulative IPC: 0.4822 (Simulation time: 07 hr 07 min 59 sec)
Heartbeat CPU 0 instructions: 1670000259 cycles: 3467284239 heartbeat IPC: 0.4022 cumulative IPC: 0.4816 (Simulation time: 07 hr 11 min 09 sec)
Heartbeat CPU 0 instructions: 1680000260 cycles: 3473677645 heartbeat IPC: 1.564 cumulative IPC: 0.4836 (Simulation time: 07 hr 12 min 09 sec)
Heartbeat CPU 0 instructions: 1690000263 cycles: 3498560779 heartbeat IPC: 0.4019 cumulative IPC: 0.4831 (Simulation time: 07 hr 15 min 18 sec)
Heartbeat CPU 0 instructions: 1700000264 cycles: 3514187248 heartbeat IPC: 0.6399 cumulative IPC: 0.4838 (Simulation time: 07 hr 17 min 38 sec)
[ERROR_CYCLE] Error added at CPU cycle 3526620075, interval 5, pending count: 1
[DRAM_CYCLE_ERROR] Cycle-based error applied! address=0x789a00000 additional_latency=2459910500 cycles
Simulation CPU 0 panic: IPC 0 < 0.01
Heartbeat CPU 0 instructions: 1710000268 cycles: 3539661022 heartbeat IPC: 0.3926 cumulative IPC: 0.4831 (Simulation time: 07 hr 20 min 50 sec)
Heartbeat CPU 0 instructions: 1720000269 cycles: 3555298130 heartbeat IPC: 0.6395 cumulative IPC: 0.4838 (Simulation time: 07 hr 22 min 41 sec)
Heartbeat CPU 0 instructions: 1730000273 cycles: 3561688559 heartbeat IPC: 1.565 cumulative IPC: 0.4857 (Simulation time: 07 hr 23 min 50 sec)
Heartbeat CPU 0 instructions: 1740000276 cycles: 3586617573 heartbeat IPC: 0.4011 cumulative IPC: 0.4851 (Simulation time: 07 hr 26 min 34 sec)
Heartbeat CPU 0 instructions: 1750000276 cycles: 3611500654 heartbeat IPC: 0.4019 cumulative IPC: 0.4846 (Simulation time: 07 hr 29 min 09 sec)
Heartbeat CPU 0 instructions: 1760000277 cycles: 3627138923 heartbeat IPC: 0.6395 cumulative IPC: 0.4852 (Simulation time: 07 hr 30 min 54 sec)
Heartbeat CPU 0 instructions: 1770000280 cycles: 3661237577 heartbeat IPC: 0.2933 cumulative IPC: 0.4834 (Simulation time: 07 hr 34 min 59 sec)
Heartbeat CPU 0 instructions: 1780000284 cycles: 3676882483 heartbeat IPC: 0.6392 cumulative IPC: 0.4841 (Simulation time: 07 hr 37 min 08 sec)
Heartbeat CPU 0 instructions: 1790000288 cycles: 3692524743 heartbeat IPC: 0.6393 cumulative IPC: 0.4848 (Simulation time: 07 hr 39 min 24 sec)
Heartbeat CPU 0 instructions: 1800000292 cycles: 3717417983 heartbeat IPC: 0.4017 cumulative IPC: 0.4842 (Simulation time: 07 hr 42 min 37 sec)
Heartbeat CPU 0 instructions: 1810000294 cycles: 3723846063 heartbeat IPC: 1.556 cumulative IPC: 0.4861 (Simulation time: 07 hr 43 min 30 sec)
Heartbeat CPU 0 instructions: 1820000296 cycles: 3757968290 heartbeat IPC: 0.2931 cumulative IPC: 0.4843 (Simulation time: 07 hr 47 min 53 sec)
Heartbeat CPU 0 instructions: 1830000296 cycles: 3764446936 heartbeat IPC: 1.544 cumulative IPC: 0.4861 (Simulation time: 07 hr 49 min 01 sec)
Heartbeat CPU 0 instructions: 1840000300 cycles: 3798615566 heartbeat IPC: 0.2927 cumulative IPC: 0.4844 (Simulation time: 07 hr 52 min 35 sec)
Heartbeat CPU 0 instructions: 1850000301 cycles: 3805052682 heartbeat IPC: 1.553 cumulative IPC: 0.4862 (Simulation time: 07 hr 53 min 34 sec)
Heartbeat CPU 0 instructions: 1860000305 cycles: 3820690476 heartbeat IPC: 0.6395 cumulative IPC: 0.4868 (Simulation time: 07 hr 55 min 11 sec)
Heartbeat CPU 0 instructions: 1870000308 cycles: 3836351796 heartbeat IPC: 0.6385 cumulative IPC: 0.4874 (Simulation time: 07 hr 57 min 12 sec)
Heartbeat CPU 0 instructions: 1880000312 cycles: 3842758573 heartbeat IPC: 1.561 cumulative IPC: 0.4892 (Simulation time: 07 hr 58 min 02 sec)
Heartbeat CPU 0 instructions: 1890000312 cycles: 3876865056 heartbeat IPC: 0.2932 cumulative IPC: 0.4875 (Simulation time: 08 hr 01 min 43 sec)
Heartbeat CPU 0 instructions: 1900000316 cycles: 3883249457 heartbeat IPC: 1.566 cumulative IPC: 0.4893 (Simulation time: 08 hr 02 min 36 sec)
Heartbeat CPU 0 instructions: 1910000316 cycles: 3898849206 heartbeat IPC: 0.641 cumulative IPC: 0.4899 (Simulation time: 08 hr 04 min 44 sec)
Heartbeat CPU 0 instructions: 1920000320 cycles: 3914509818 heartbeat IPC: 0.6385 cumulative IPC: 0.4905 (Simulation time: 08 hr 07 min 01 sec)
Heartbeat CPU 0 instructions: 1930000321 cycles: 3930108825 heartbeat IPC: 0.6411 cumulative IPC: 0.4911 (Simulation time: 08 hr 08 min 43 sec)
Heartbeat CPU 0 instructions: 1940000323 cycles: 3954961051 heartbeat IPC: 0.4024 cumulative IPC: 0.4905 (Simulation time: 08 hr 11 min 49 sec)
Heartbeat CPU 0 instructions: 1950000323 cycles: 3970573838 heartbeat IPC: 0.6405 cumulative IPC: 0.4911 (Simulation time: 08 hr 13 min 29 sec)
Heartbeat CPU 0 instructions: 1960000324 cycles: 3986167999 heartbeat IPC: 0.6413 cumulative IPC: 0.4917 (Simulation time: 08 hr 15 min 39 sec)
Heartbeat CPU 0 instructions: 1970000326 cycles: 4010996599 heartbeat IPC: 0.4028 cumulative IPC: 0.4911 (Simulation time: 08 hr 18 min 29 sec)
Heartbeat CPU 0 instructions: 1980000330 cycles: 4026583335 heartbeat IPC: 0.6416 cumulative IPC: 0.4917 (Simulation time: 08 hr 20 min 44 sec)
Heartbeat CPU 0 instructions: 1990000333 cycles: 4051386199 heartbeat IPC: 0.4032 cumulative IPC: 0.4912 (Simulation time: 08 hr 24 min 05 sec)

=== ERROR PAGE STATISTICS ===
Mode: CYCLE
Error Cycle Interval: 705324015 CPU cycles
Total Error Accesses: 5
==============================
Simulation finished CPU 0 instructions: 1999999507 cycles: 4066951180 cumulative IPC: 0.4918 (Simulation time: 08 hr 26 min 18 sec)
Simulation complete CPU 0 instructions: 1999999507 cycles: 4066951180 cumulative IPC: 0.4918 (Simulation time: 08 hr 26 min 18 sec)

ChampSim completed all CPUs

=== Simulation ===
CPU 0 runs test_traces/607.cactuBSSN_s-2421B.champsimtrace.xz

Region of Interest Statistics

CPU 0 cumulative IPC: 0.4918 instructions: 1999999507 cycles: 4066951180
CPU 0 Branch Prediction Accuracy: 98.41% MPKI: 0.0223 Average ROB Occupancy at Mispredict: 322.7
Branch type MPKI
BRANCH_DIRECT_JUMP: 3.4e-05
BRANCH_INDIRECT: 4.45e-05
BRANCH_CONDITIONAL: 0.0122
BRANCH_DIRECT_CALL: 0.000332
BRANCH_INDIRECT_CALL: 1.5e-06
BRANCH_RETURN: 0.009687

cpu0->cpu0_STLB TOTAL        ACCESS:   38315197 HIT:   38314799 MISS:        398 MSHR_MERGE:          0
cpu0->cpu0_STLB LOAD         ACCESS:   38315197 HIT:   38314799 MISS:        398 MSHR_MERGE:          0
cpu0->cpu0_STLB RFO          ACCESS:          0 HIT:          0 MISS:          0 MSHR_MERGE:          0
cpu0->cpu0_STLB PREFETCH     ACCESS:          0 HIT:          0 MISS:          0 MSHR_MERGE:          0
cpu0->cpu0_STLB WRITE        ACCESS:          0 HIT:          0 MISS:          0 MSHR_MERGE:          0
cpu0->cpu0_STLB TRANSLATION  ACCESS:          0 HIT:          0 MISS:          0 MSHR_MERGE:          0
cpu0->cpu0_STLB PREFETCH REQUESTED:          0 ISSUED:          0 USEFUL:          0 USELESS:          0
cpu0->cpu0_STLB AVERAGE MISS LATENCY: 9.73e+06 cycles
cpu0->cpu0_L2C TOTAL        ACCESS:  251139367 HIT:  230756631 MISS:   20382736 MSHR_MERGE:          0
cpu0->cpu0_L2C LOAD         ACCESS:  216985143 HIT:  196633033 MISS:   20352110 MSHR_MERGE:          0
cpu0->cpu0_L2C RFO          ACCESS:   16174014 HIT:   16143406 MISS:      30608 MSHR_MERGE:          0
cpu0->cpu0_L2C PREFETCH     ACCESS:          0 HIT:          0 MISS:          0 MSHR_MERGE:          0
cpu0->cpu0_L2C WRITE        ACCESS:   17980210 HIT:   17980192 MISS:         18 MSHR_MERGE:          0
cpu0->cpu0_L2C TRANSLATION  ACCESS:          0 HIT:          0 MISS:          0 MSHR_MERGE:          0
cpu0->cpu0_L2C PREFETCH REQUESTED:          0 ISSUED:          0 USEFUL:          0 USELESS:          0
cpu0->cpu0_L2C AVERAGE MISS LATENCY: 96.47 cycles
cpu0->cpu0_L1I TOTAL        ACCESS:  395430809 HIT:  392774867 MISS:    2655942 MSHR_MERGE:    1305799
cpu0->cpu0_L1I LOAD         ACCESS:  395430809 HIT:  392774867 MISS:    2655942 MSHR_MERGE:    1305799
cpu0->cpu0_L1I RFO          ACCESS:          0 HIT:          0 MISS:          0 MSHR_MERGE:          0
cpu0->cpu0_L1I PREFETCH     ACCESS:          0 HIT:          0 MISS:          0 MSHR_MERGE:          0
cpu0->cpu0_L1I WRITE        ACCESS:          0 HIT:          0 MISS:          0 MSHR_MERGE:          0
cpu0->cpu0_L1I TRANSLATION  ACCESS:          0 HIT:          0 MISS:          0 MSHR_MERGE:          0
cpu0->cpu0_L1I PREFETCH REQUESTED:          0 ISSUED:          0 USEFUL:          0 USELESS:          0
cpu0->cpu0_L1I AVERAGE MISS LATENCY: 7.262 cycles
cpu0->cpu0_L1D TOTAL        ACCESS:  649352410 HIT:  374876269 MISS:  274476141 MSHR_MERGE:   42009127
cpu0->cpu0_L1D LOAD         ACCESS:  422602463 HIT:  166006002 MISS:  256596461 MSHR_MERGE:   40308855
cpu0->cpu0_L1D RFO          ACCESS:          0 HIT:          0 MISS:          0 MSHR_MERGE:          0
cpu0->cpu0_L1D PREFETCH     ACCESS:          0 HIT:          0 MISS:          0 MSHR_MERGE:          0
cpu0->cpu0_L1D WRITE        ACCESS:  226749947 HIT:  208870267 MISS:   17879680 MSHR_MERGE:    1700272
cpu0->cpu0_L1D TRANSLATION  ACCESS:          0 HIT:          0 MISS:          0 MSHR_MERGE:          0
cpu0->cpu0_L1D PREFETCH REQUESTED:          0 ISSUED:          0 USEFUL:          0 USELESS:          0
cpu0->cpu0_L1D AVERAGE MISS LATENCY: 17.52 cycles
cpu0->cpu0_ITLB TOTAL        ACCESS:  322060451 HIT:  322060437 MISS:         14 MSHR_MERGE:         10
cpu0->cpu0_ITLB LOAD         ACCESS:  322060451 HIT:  322060437 MISS:         14 MSHR_MERGE:         10
cpu0->cpu0_ITLB RFO          ACCESS:          0 HIT:          0 MISS:          0 MSHR_MERGE:          0
cpu0->cpu0_ITLB PREFETCH     ACCESS:          0 HIT:          0 MISS:          0 MSHR_MERGE:          0
cpu0->cpu0_ITLB WRITE        ACCESS:          0 HIT:          0 MISS:          0 MSHR_MERGE:          0
cpu0->cpu0_ITLB TRANSLATION  ACCESS:          0 HIT:          0 MISS:          0 MSHR_MERGE:          0
cpu0->cpu0_ITLB PREFETCH REQUESTED:          0 ISSUED:          0 USEFUL:          0 USELESS:          0
cpu0->cpu0_ITLB AVERAGE MISS LATENCY: 9.24e+06 cycles
cpu0->cpu0_DTLB TOTAL        ACCESS:  496440465 HIT:  419822132 MISS:   76618333 MSHR_MERGE:   38303140
cpu0->cpu0_DTLB LOAD         ACCESS:  496440465 HIT:  419822132 MISS:   76618333 MSHR_MERGE:   38303140
cpu0->cpu0_DTLB RFO          ACCESS:          0 HIT:          0 MISS:          0 MSHR_MERGE:          0
cpu0->cpu0_DTLB PREFETCH     ACCESS:          0 HIT:          0 MISS:          0 MSHR_MERGE:          0
cpu0->cpu0_DTLB WRITE        ACCESS:          0 HIT:          0 MISS:          0 MSHR_MERGE:          0
cpu0->cpu0_DTLB TRANSLATION  ACCESS:          0 HIT:          0 MISS:          0 MSHR_MERGE:          0
cpu0->cpu0_DTLB PREFETCH REQUESTED:          0 ISSUED:          0 USEFUL:          0 USELESS:          0
cpu0->cpu0_DTLB AVERAGE MISS LATENCY: 105.2 cycles
cpu0->LLC TOTAL        ACCESS:   22275858 HIT:    7173051 MISS:   15102807 MSHR_MERGE:          0
cpu0->LLC LOAD         ACCESS:   20352110 HIT:    5279959 MISS:   15072151 MSHR_MERGE:          0
cpu0->LLC RFO          ACCESS:      30608 HIT:          0 MISS:      30608 MSHR_MERGE:          0
cpu0->LLC PREFETCH     ACCESS:          0 HIT:          0 MISS:          0 MSHR_MERGE:          0
cpu0->LLC WRITE        ACCESS:    1893140 HIT:    1893092 MISS:         48 MSHR_MERGE:          0
cpu0->LLC TRANSLATION  ACCESS:          0 HIT:          0 MISS:          0 MSHR_MERGE:          0
cpu0->LLC PREFETCH REQUESTED:          0 ISSUED:          0 USEFUL:          0 USELESS:          0
cpu0->LLC AVERAGE MISS LATENCY: 109 cycles

DRAM Statistics

Channel 0 RQ ROW_BUFFER_HIT:      36018
  ROW_BUFFER_MISS:    7515816
  AVG DBUS CONGESTED CYCLE: 9.903
Channel 0 WQ ROW_BUFFER_HIT:     271426
  ROW_BUFFER_MISS:     672755
  FULL:          0
Channel 0 REFRESHES ISSUED:     338890

Channel 1 RQ ROW_BUFFER_HIT:      36210
  ROW_BUFFER_MISS:    7515499
  AVG DBUS CONGESTED CYCLE: 9.902
Channel 1 WQ ROW_BUFFER_HIT:     271140
  ROW_BUFFER_MISS:     673026
  FULL:          0
Channel 1 REFRESHES ISSUED:     338890
