
*** ChampSim Multicore Out-of-Order Simulator ***
Warmup Instructions: 0
Simulation Instructions: 9223372036854775807
Number of CPUs: 1
Page size: 1048576

Off-chip DRAM Size: 64 GiB Channels: 2 Width: 32-bit Data Rate: 4807 MT/s
[ERROR_PAGE_MANAGER] Error latency: 2459910500 
[ERROR_PAGE_MANAGER] Random seed: 54321 (fixed for preload reproducibility)
[ERROR_PAGE_MANAGER] Cycle-based error modeling enabled
[ERROR_PAGE_MANAGER] Errors per interval: 1
[ERROR_PAGE_MANAGER] Error cycle interval: 46484161 cycles

=== ERROR PAGE STATISTICS ===
Mode: CYCLE
Error Cycle Interval: 46484161 CPU cycles
Total Error Accesses: 0
==============================
Warmup finished CPU 0 instructions: 0 cycles: 1 cumulative IPC: 0 (Simulation time: 00 hr 00 min 00 sec)
Warmup complete CPU 0 instructions: 0 cycles: 1 cumulative IPC: 0 (Simulation time: 00 hr 00 min 00 sec)
Simulation CPU 0 panic: IPC 0 < 0.01
Simulation CPU 0 panic: IPC 2e-07 < 0.01
Simulation CPU 0 panic: IPC 0 < 0.01
Simulation CPU 0 panic: IPC 8.5e-06 < 0.01
[ERROR_CYCLE] Error added at CPU cycle 46484161, interval 1, pending count: 1
Simulation CPU 0 panic: IPC 5.64e-05 < 0.01
[DRAM_CYCLE_ERROR] Cycle-based error applied! address=0x537c09058 additional_latency=2459910500 cycles
Simulation CPU 0 panic: IPC 0 < 0.01
Simulation CPU 0 panic: IPC 7e-07 < 0.01
Simulation CPU 0 panic: IPC 0 < 0.01
Simulation CPU 0 panic: IPC 0.0002751 < 0.01
[ERROR_CYCLE] Error added at CPU cycle 92968322, interval 2, pending count: 1
[DRAM_CYCLE_ERROR] Cycle-based error applied! address=0x537c0ef28 additional_latency=2459910500 cycles
Simulation CPU 0 panic: IPC 0 < 0.01
Simulation CPU 0 panic: IPC 0 < 0.01
Simulation CPU 0 panic: IPC 3.3e-06 < 0.01
Simulation CPU 0 panic: IPC 1e-07 < 0.01
[ERROR_CYCLE] Error added at CPU cycle 139452483, interval 3, pending count: 1
[DRAM_CYCLE_ERROR] Cycle-based error applied! address=0x537c00f50 additional_latency=2459910500 cycles
Simulation CPU 0 panic: IPC 0 < 0.01
Simulation CPU 0 panic: IPC 0 < 0.01
Simulation CPU 0 panic: IPC 5e-07 < 0.01
Simulation CPU 0 panic: IPC 1.8e-06 < 0.01
Simulation CPU 0 panic: IPC 3e-06 < 0.01
[ERROR_CYCLE] Error added at CPU cycle 185936644, interval 4, pending count: 1
[DRAM_CYCLE_ERROR] Cycle-based error applied! address=0x537c4a568 additional_latency=2459910500 cycles
Simulation CPU 0 panic: IPC 3.82e-05 < 0.01
Simulation CPU 0 panic: IPC 0 < 0.01
Simulation CPU 0 panic: IPC 2.12e-05 < 0.01
Simulation CPU 0 panic: IPC 4.15e-05 < 0.01
Simulation CPU 0 panic: IPC 2.18e-05 < 0.01
[ERROR_CYCLE] Error added at CPU cycle 232420805, interval 5, pending count: 1
[DRAM_CYCLE_ERROR] Cycle-based error applied! address=0x537c4ffb0 additional_latency=2459910500 cycles
Simulation CPU 0 panic: IPC 0 < 0.01
Simulation CPU 0 panic: IPC 1.01e-05 < 0.01
Simulation CPU 0 panic: IPC 2.12e-05 < 0.01
Simulation CPU 0 panic: IPC 2.89e-05 < 0.01
[ERROR_CYCLE] Error added at CPU cycle 278904966, interval 6, pending count: 1
[DRAM_CYCLE_ERROR] Cycle-based error applied! address=0x81e9c8f00 additional_latency=2459910500 cycles
Heartbeat CPU 0 instructions: 10000002 cycles: 290196613 heartbeat IPC: 0.03446 cumulative IPC: 0.03446 (Simulation time: 00 hr 29 min 06 sec)
Heartbeat CPU 0 instructions: 20000002 cycles: 304329709 heartbeat IPC: 0.7076 cumulative IPC: 0.06572 (Simulation time: 00 hr 30 min 45 sec)
[ERROR_CYCLE] Error added at CPU cycle 325389128, interval 7, pending count: 1
[DRAM_CYCLE_ERROR] Cycle-based error applied! address=0x41d700000 additional_latency=2459910500 cycles
Simulation CPU 0 panic: IPC 0.0001699 < 0.01
Heartbeat CPU 0 instructions: 30000006 cycles: 337471357 heartbeat IPC: 0.3017 cumulative IPC: 0.0889 (Simulation time: 00 hr 34 min 44 sec)
Heartbeat CPU 0 instructions: 40000007 cycles: 360770391 heartbeat IPC: 0.4292 cumulative IPC: 0.1109 (Simulation time: 00 hr 37 min 39 sec)
[ERROR_CYCLE] Error added at CPU cycle 371873289, interval 8, pending count: 1
[DRAM_CYCLE_ERROR] Cycle-based error applied! address=0x103500000 additional_latency=2459910500 cycles
Simulation CPU 0 panic: IPC 0 < 0.01
Heartbeat CPU 0 instructions: 50000007 cycles: 384723333 heartbeat IPC: 0.4175 cumulative IPC: 0.13 (Simulation time: 00 hr 40 min 11 sec)
Simulation CPU 0 critical: IPC 0.011888 < 0.02
Simulation CPU 0 panic: IPC 2.3e-06 < 0.01
[ERROR_CYCLE] Error added at CPU cycle 418357450, interval 9, pending count: 1
Simulation CPU 0 panic: IPC 8e-07 < 0.01
[DRAM_CYCLE_ERROR] Cycle-based error applied! address=0x537c007e8 additional_latency=2459910500 cycles
Simulation CPU 0 panic: IPC 0 < 0.01
Simulation CPU 0 panic: IPC 0 < 0.01
Simulation CPU 0 panic: IPC 1.13e-05 < 0.01
Simulation CPU 0 panic: IPC 1.1e-05 < 0.01
[ERROR_CYCLE] Error added at CPU cycle 464841611, interval 10, pending count: 1
[DRAM_CYCLE_ERROR] Cycle-based error applied! address=0x537c7f500 additional_latency=2459910500 cycles
Simulation CPU 0 panic: IPC 9.2e-06 < 0.01
Simulation CPU 0 panic: IPC 8.8e-06 < 0.01
Simulation CPU 0 panic: IPC 8.4e-06 < 0.01
Simulation CPU 0 panic: IPC 9.4e-06 < 0.01
Simulation CPU 0 panic: IPC 8.2e-06 < 0.01
[ERROR_CYCLE] Error added at CPU cycle 511325771, interval 11, pending count: 1
[DRAM_CYCLE_ERROR] Cycle-based error applied! address=0x537c88a20 additional_latency=2459910500 cycles
Simulation CPU 0 panic: IPC 0 < 0.01
Simulation CPU 0 panic: IPC 6.9e-06 < 0.01
Simulation CPU 0 panic: IPC 1.1e-05 < 0.01
Simulation CPU 0 panic: IPC 7.8e-06 < 0.01
[ERROR_CYCLE] Error added at CPU cycle 557809932, interval 12, pending count: 1
[DRAM_CYCLE_ERROR] Cycle-based error applied! address=0x537c915b0 additional_latency=2459910500 cycles
Simulation CPU 0 panic: IPC 8.6e-06 < 0.01
Simulation CPU 0 panic: IPC 2.2e-06 < 0.01
Simulation CPU 0 panic: IPC 1.41e-05 < 0.01
Simulation CPU 0 panic: IPC 9.5e-06 < 0.01
Simulation CPU 0 panic: IPC 7.3e-06 < 0.01
[ERROR_CYCLE] Error added at CPU cycle 604294093, interval 13, pending count: 1
[DRAM_CYCLE_ERROR] Cycle-based error applied! address=0x537c9a960 additional_latency=2459910500 cycles
Simulation CPU 0 panic: IPC 9.5e-06 < 0.01
Simulation CPU 0 panic: IPC 7.3e-06 < 0.01
Simulation CPU 0 panic: IPC 9.5e-06 < 0.01
Simulation CPU 0 panic: IPC 7.3e-06 < 0.01
Simulation CPU 0 panic: IPC 9.5e-06 < 0.01
[ERROR_CYCLE] Error added at CPU cycle 650778254, interval 14, pending count: 1
[DRAM_CYCLE_ERROR] Cycle-based error applied! address=0x537ca2ae0 additional_latency=2459910500 cycles
Simulation CPU 0 panic: IPC 0 < 0.01
Simulation CPU 0 panic: IPC 8e-06 < 0.01
Simulation CPU 0 panic: IPC 7.5e-06 < 0.01
Simulation CPU 0 panic: IPC 9.1e-06 < 0.01
[ERROR_CYCLE] Error added at CPU cycle 697262415, interval 15, pending count: 1
[DRAM_CYCLE_ERROR] Cycle-based error applied! address=0x537cab398 additional_latency=2459910500 cycles
Simulation CPU 0 panic: IPC 8e-06 < 0.01
Simulation CPU 0 panic: IPC 0 < 0.01
Simulation CPU 0 panic: IPC 8.8e-06 < 0.01
Simulation CPU 0 panic: IPC 7.5e-06 < 0.01
[ERROR_CYCLE] Error added at CPU cycle 743746576, interval 16, pending count: 1
[DRAM_CYCLE_ERROR] Cycle-based error applied! address=0x8e2500000 additional_latency=2459910500 cycles
Simulation CPU 0 panic: IPC 0 < 0.01
Heartbeat CPU 0 instructions: 60000008 cycles: 756106975 heartbeat IPC: 0.02693 cumulative IPC: 0.07935 (Simulation time: 01 hr 16 min 48 sec)
Heartbeat CPU 0 instructions: 70000012 cycles: 762504567 heartbeat IPC: 1.563 cumulative IPC: 0.0918 (Simulation time: 01 hr 17 min 37 sec)
Heartbeat CPU 0 instructions: 80000013 cycles: 778134781 heartbeat IPC: 0.6398 cumulative IPC: 0.1028 (Simulation time: 01 hr 19 min 20 sec)
[ERROR_CYCLE] Error added at CPU cycle 790230737, interval 17, pending count: 1
[DRAM_CYCLE_ERROR] Cycle-based error applied! address=0xfaee39680 additional_latency=2459910500 cycles
Heartbeat CPU 0 instructions: 90000014 cycles: 812224688 heartbeat IPC: 0.2933 cumulative IPC: 0.1108 (Simulation time: 01 hr 23 min 21 sec)
Heartbeat CPU 0 instructions: 100000018 cycles: 827841317 heartbeat IPC: 0.6403 cumulative IPC: 0.1208 (Simulation time: 01 hr 25 min 32 sec)
[ERROR_CYCLE] Error added at CPU cycle 836714899, interval 18, pending count: 1
[DRAM_CYCLE_ERROR] Cycle-based error applied! address=0xeb5800000 additional_latency=2459910500 cycles
Simulation CPU 0 panic: IPC 0 < 0.01
Heartbeat CPU 0 instructions: 110000019 cycles: 853302315 heartbeat IPC: 0.3928 cumulative IPC: 0.1289 (Simulation time: 01 hr 28 min 29 sec)
Heartbeat CPU 0 instructions: 120000019 cycles: 878158049 heartbeat IPC: 0.4023 cumulative IPC: 0.1366 (Simulation time: 01 hr 31 min 21 sec)
[ERROR_CYCLE] Error added at CPU cycle 883199060, interval 19, pending count: 1
[DRAM_CYCLE_ERROR] Cycle-based error applied! address=0x537cba5d0 additional_latency=2459910500 cycles
Simulation CPU 0 panic: IPC 0 < 0.01
Heartbeat CPU 0 instructions: 130000020 cycles: 903620693 heartbeat IPC: 0.3927 cumulative IPC: 0.1439 (Simulation time: 01 hr 34 min 16 sec)
Heartbeat CPU 0 instructions: 140000022 cycles: 928427487 heartbeat IPC: 0.4031 cumulative IPC: 0.1508 (Simulation time: 01 hr 36 min 37 sec)
[ERROR_CYCLE] Error added at CPU cycle 929683221, interval 20, pending count: 1
[DRAM_CYCLE_ERROR] Cycle-based error applied! address=0x8e25311c8 additional_latency=2459910500 cycles
Heartbeat CPU 0 instructions: 150000024 cycles: 953883683 heartbeat IPC: 0.3928 cumulative IPC: 0.1573 (Simulation time: 01 hr 39 min 33 sec)
[ERROR_CYCLE] Error added at CPU cycle 976167382, interval 21, pending count: 1
[DRAM_CYCLE_ERROR] Cycle-based error applied! address=0x1df200000 additional_latency=2459910500 cycles
Simulation CPU 0 panic: IPC 0 < 0.01
Heartbeat CPU 0 instructions: 160000025 cycles: 988552170 heartbeat IPC: 0.2884 cumulative IPC: 0.1619 (Simulation time: 01 hr 43 min 18 sec)
Heartbeat CPU 0 instructions: 170000027 cycles: 1004190549 heartbeat IPC: 0.6395 cumulative IPC: 0.1693 (Simulation time: 01 hr 45 min 33 sec)
[ERROR_CYCLE] Error added at CPU cycle 1022651542, interval 22, pending count: 1
[DRAM_CYCLE_ERROR] Cycle-based error applied! address=0x537cc2680 additional_latency=2459910500 cycles
Simulation CPU 0 panic: IPC 0 < 0.01
Heartbeat CPU 0 instructions: 180000028 cycles: 1038900780 heartbeat IPC: 0.2881 cumulative IPC: 0.1733 (Simulation time: 01 hr 49 min 58 sec)
Heartbeat CPU 0 instructions: 190000032 cycles: 1054542705 heartbeat IPC: 0.6393 cumulative IPC: 0.1802 (Simulation time: 01 hr 51 min 44 sec)
Heartbeat CPU 0 instructions: 200000034 cycles: 1060957322 heartbeat IPC: 1.559 cumulative IPC: 0.1885 (Simulation time: 01 hr 52 min 51 sec)
[ERROR_CYCLE] Error added at CPU cycle 1069135703, interval 23, pending count: 1
[DRAM_CYCLE_ERROR] Cycle-based error applied! address=0xb53e00000 additional_latency=2459910500 cycles
Simulation CPU 0 panic: IPC 0 < 0.01
Heartbeat CPU 0 instructions: 210000034 cycles: 1095715785 heartbeat IPC: 0.2877 cumulative IPC: 0.1917 (Simulation time: 01 hr 57 min 19 sec)
Heartbeat CPU 0 instructions: 220000037 cycles: 1102155068 heartbeat IPC: 1.553 cumulative IPC: 0.1996 (Simulation time: 01 hr 58 min 14 sec)
[ERROR_CYCLE] Error added at CPU cycle 1115619864, interval 24, pending count: 1
[DRAM_CYCLE_ERROR] Cycle-based error applied! address=0x500500000 additional_latency=2459910500 cycles
Simulation CPU 0 panic: IPC 0 < 0.01
Heartbeat CPU 0 instructions: 230000039 cycles: 1127680815 heartbeat IPC: 0.3918 cumulative IPC: 0.204 (Simulation time: 02 hr 00 min 44 sec)
Heartbeat CPU 0 instructions: 240000039 cycles: 1152640450 heartbeat IPC: 0.4006 cumulative IPC: 0.2082 (Simulation time: 02 hr 03 min 22 sec)
[ERROR_CYCLE] Error added at CPU cycle 1162104025, interval 25, pending count: 1
[DRAM_CYCLE_ERROR] Cycle-based error applied! address=0x8ad800000 additional_latency=2459910500 cycles
Simulation CPU 0 panic: IPC 0 < 0.01
Heartbeat CPU 0 instructions: 250000040 cycles: 1178117993 heartbeat IPC: 0.3925 cumulative IPC: 0.2122 (Simulation time: 02 hr 05 min 48 sec)
Heartbeat CPU 0 instructions: 260000043 cycles: 1193784320 heartbeat IPC: 0.6383 cumulative IPC: 0.2178 (Simulation time: 02 hr 07 min 59 sec)
Heartbeat CPU 0 instructions: 270000046 cycles: 1200207706 heartbeat IPC: 1.557 cumulative IPC: 0.225 (Simulation time: 02 hr 09 min 10 sec)
[ERROR_CYCLE] Error added at CPU cycle 1208588186, interval 26, pending count: 1
[DRAM_CYCLE_ERROR] Cycle-based error applied! address=0xfe5900000 additional_latency=2459910500 cycles
Simulation CPU 0 warning: IPC 0.044468 < 0.05
Heartbeat CPU 0 instructions: 280000048 cycles: 1234964263 heartbeat IPC: 0.2877 cumulative IPC: 0.2267 (Simulation time: 02 hr 13 min 29 sec)
Heartbeat CPU 0 instructions: 290000048 cycles: 1250649763 heartbeat IPC: 0.6375 cumulative IPC: 0.2319 (Simulation time: 02 hr 15 min 45 sec)
[ERROR_CYCLE] Error added at CPU cycle 1255072347, interval 27, pending count: 1
[DRAM_CYCLE_ERROR] Cycle-based error applied! address=0x537cceae8 additional_latency=2459910500 cycles
Simulation CPU 0 panic: IPC 0 < 0.01
Heartbeat CPU 0 instructions: 300000049 cycles: 1276188046 heartbeat IPC: 0.3916 cumulative IPC: 0.2351 (Simulation time: 02 hr 18 min 59 sec)
[ERROR_CYCLE] Error added at CPU cycle 1301556508, interval 28, pending count: 1
[DRAM_CYCLE_ERROR] Cycle-based error applied! address=0x537cd1d08 additional_latency=2459910500 cycles
Simulation CPU 0 warning: IPC 0.032091 < 0.05
Heartbeat CPU 0 instructions: 310000049 cycles: 1320171199 heartbeat IPC: 0.2274 cumulative IPC: 0.2348 (Simulation time: 02 hr 24 min 26 sec)
Heartbeat CPU 0 instructions: 320000053 cycles: 1335810056 heartbeat IPC: 0.6394 cumulative IPC: 0.2396 (Simulation time: 02 hr 26 min 39 sec)
Heartbeat CPU 0 instructions: 330000054 cycles: 1342212500 heartbeat IPC: 1.562 cumulative IPC: 0.2459 (Simulation time: 02 hr 27 min 49 sec)
[ERROR_CYCLE] Error added at CPU cycle 1348040670, interval 29, pending count: 1
[DRAM_CYCLE_ERROR] Cycle-based error applied! address=0x509000000 additional_latency=2459910500 cycles
Simulation CPU 0 panic: IPC 0 < 0.01
Heartbeat CPU 0 instructions: 340000056 cycles: 1386202468 heartbeat IPC: 0.2273 cumulative IPC: 0.2453 (Simulation time: 02 hr 33 min 03 sec)
Heartbeat CPU 0 instructions: 350000059 cycles: 1392563429 heartbeat IPC: 1.572 cumulative IPC: 0.2513 (Simulation time: 02 hr 34 min 03 sec)
[ERROR_CYCLE] Error added at CPU cycle 1394524831, interval 30, pending count: 1
[DRAM_CYCLE_ERROR] Cycle-based error applied! address=0x537cd6d78 additional_latency=2459910500 cycles
Simulation CPU 0 panic: IPC 0 < 0.01
Heartbeat CPU 0 instructions: 360000061 cycles: 1427233023 heartbeat IPC: 0.2884 cumulative IPC: 0.2522 (Simulation time: 02 hr 37 min 37 sec)
Heartbeat CPU 0 instructions: 370000061 cycles: 1433587743 heartbeat IPC: 1.574 cumulative IPC: 0.2581 (Simulation time: 02 hr 38 min 46 sec)
[ERROR_CYCLE] Error added at CPU cycle 1441008992, interval 31, pending count: 1
[DRAM_CYCLE_ERROR] Cycle-based error applied! address=0x537cd84c0 additional_latency=2459910500 cycles
Simulation CPU 0 panic: IPC 0 < 0.01
Heartbeat CPU 0 instructions: 380000061 cycles: 1477502371 heartbeat IPC: 0.2277 cumulative IPC: 0.2572 (Simulation time: 02 hr 42 min 54 sec)
Heartbeat CPU 0 instructions: 390000065 cycles: 1483908296 heartbeat IPC: 1.561 cumulative IPC: 0.2628 (Simulation time: 02 hr 43 min 48 sec)
[ERROR_CYCLE] Error added at CPU cycle 1487493153, interval 32, pending count: 1
[DRAM_CYCLE_ERROR] Cycle-based error applied! address=0xd92209d40 additional_latency=2459910500 cycles
Heartbeat CPU 0 instructions: 400000067 cycles: 1499555019 heartbeat IPC: 0.6391 cumulative IPC: 0.2667 (Simulation time: 02 hr 45 min 33 sec)
Heartbeat CPU 0 instructions: 410000069 cycles: 1515225900 heartbeat IPC: 0.6381 cumulative IPC: 0.2706 (Simulation time: 02 hr 47 min 52 sec)
Heartbeat CPU 0 instructions: 420000070 cycles: 1521672096 heartbeat IPC: 1.551 cumulative IPC: 0.276 (Simulation time: 02 hr 48 min 40 sec)
[ERROR_CYCLE] Error added at CPU cycle 1533977313, interval 33, pending count: 1
[DRAM_CYCLE_ERROR] Cycle-based error applied! address=0xf4837f080 additional_latency=2459910500 cycles
Heartbeat CPU 0 instructions: 430000072 cycles: 1556529209 heartbeat IPC: 0.2869 cumulative IPC: 0.2763 (Simulation time: 02 hr 52 min 32 sec)
Heartbeat CPU 0 instructions: 440000074 cycles: 1562996787 heartbeat IPC: 1.546 cumulative IPC: 0.2815 (Simulation time: 02 hr 53 min 21 sec)
[ERROR_CYCLE] Error added at CPU cycle 1580461474, interval 34, pending count: 1
[DRAM_CYCLE_ERROR] Cycle-based error applied! address=0x537ce05f8 additional_latency=2459910500 cycles
Simulation CPU 0 panic: IPC 0 < 0.01
Heartbeat CPU 0 instructions: 450000076 cycles: 1597749871 heartbeat IPC: 0.2877 cumulative IPC: 0.2816 (Simulation time: 02 hr 57 min 08 sec)
Heartbeat CPU 0 instructions: 460000077 cycles: 1613419116 heartbeat IPC: 0.6382 cumulative IPC: 0.2851 (Simulation time: 02 hr 58 min 41 sec)
[ERROR_CYCLE] Error added at CPU cycle 1626945635, interval 35, pending count: 1
[DRAM_CYCLE_ERROR] Cycle-based error applied! address=0x8e25fb180 additional_latency=2459910500 cycles
Heartbeat CPU 0 instructions: 470000077 cycles: 1638913855 heartbeat IPC: 0.3922 cumulative IPC: 0.2868 (Simulation time: 03 hr 01 min 40 sec)
Heartbeat CPU 0 instructions: 480000079 cycles: 1654571517 heartbeat IPC: 0.6387 cumulative IPC: 0.2901 (Simulation time: 03 hr 03 min 29 sec)
Heartbeat CPU 0 instructions: 490000079 cycles: 1670239660 heartbeat IPC: 0.6382 cumulative IPC: 0.2934 (Simulation time: 03 hr 05 min 42 sec)
[ERROR_CYCLE] Error added at CPU cycle 1673429796, interval 36, pending count: 1
[DRAM_CYCLE_ERROR] Cycle-based error applied! address=0x34f81a680 additional_latency=2459910500 cycles
Heartbeat CPU 0 instructions: 500000082 cycles: 1695764730 heartbeat IPC: 0.3918 cumulative IPC: 0.2949 (Simulation time: 03 hr 09 min 05 sec)
[ERROR_CYCLE] Error added at CPU cycle 1719913957, interval 37, pending count: 1
[DRAM_CYCLE_ERROR] Cycle-based error applied! address=0xdd24b7d00 additional_latency=2459910500 cycles
Heartbeat CPU 0 instructions: 510000083 cycles: 1720680059 heartbeat IPC: 0.4014 cumulative IPC: 0.2964 (Simulation time: 03 hr 12 min 12 sec)
Heartbeat CPU 0 instructions: 520000083 cycles: 1745650817 heartbeat IPC: 0.4005 cumulative IPC: 0.2979 (Simulation time: 03 hr 15 min 16 sec)
[ERROR_CYCLE] Error added at CPU cycle 1766398118, interval 38, pending count: 1
[DRAM_CYCLE_ERROR] Cycle-based error applied! address=0x9dbd00000 additional_latency=2459910500 cycles
Simulation CPU 0 panic: IPC 0 < 0.01
Heartbeat CPU 0 instructions: 530000083 cycles: 1780402558 heartbeat IPC: 0.2878 cumulative IPC: 0.2977 (Simulation time: 03 hr 19 min 45 sec)
Heartbeat CPU 0 instructions: 540000085 cycles: 1796066561 heartbeat IPC: 0.6384 cumulative IPC: 0.3007 (Simulation time: 03 hr 21 min 58 sec)
[ERROR_CYCLE] Error added at CPU cycle 1812882279, interval 39, pending count: 1
[DRAM_CYCLE_ERROR] Cycle-based error applied! address=0x537cee7f8 additional_latency=2459910500 cycles
Heartbeat CPU 0 instructions: 550000085 cycles: 1830771745 heartbeat IPC: 0.2881 cumulative IPC: 0.3004 (Simulation time: 03 hr 26 min 23 sec)
Heartbeat CPU 0 instructions: 560000085 cycles: 1846384818 heartbeat IPC: 0.6405 cumulative IPC: 0.3033 (Simulation time: 03 hr 28 min 36 sec)
Heartbeat CPU 0 instructions: 570000085 cycles: 1852756117 heartbeat IPC: 1.57 cumulative IPC: 0.3076 (Simulation time: 03 hr 29 min 46 sec)
[ERROR_CYCLE] Error added at CPU cycle 1859366441, interval 40, pending count: 1
[DRAM_CYCLE_ERROR] Cycle-based error applied! address=0x39d200000 additional_latency=2459910500 cycles
Simulation CPU 0 panic: IPC 0 < 0.01
Heartbeat CPU 0 instructions: 580000087 cycles: 1896691726 heartbeat IPC: 0.2276 cumulative IPC: 0.3058 (Simulation time: 03 hr 34 min 48 sec)
Heartbeat CPU 0 instructions: 590000088 cycles: 1903105881 heartbeat IPC: 1.559 cumulative IPC: 0.31 (Simulation time: 03 hr 35 min 53 sec)
[ERROR_CYCLE] Error added at CPU cycle 1905850602, interval 41, pending count: 1
[DRAM_CYCLE_ERROR] Cycle-based error applied! address=0x537cf3868 additional_latency=2459910500 cycles
Simulation CPU 0 panic: IPC 0 < 0.01
Heartbeat CPU 0 instructions: 600000089 cycles: 1947095559 heartbeat IPC: 0.2273 cumulative IPC: 0.3082 (Simulation time: 03 hr 40 min 59 sec)
[ERROR_CYCLE] Error added at CPU cycle 1952334763, interval 42, pending count: 1
[DRAM_CYCLE_ERROR] Cycle-based error applied! address=0xfe5923980 additional_latency=2459910500 cycles
Heartbeat CPU 0 instructions: 610000089 cycles: 1963366267 heartbeat IPC: 0.6146 cumulative IPC: 0.3107 (Simulation time: 03 hr 42 min 53 sec)
Heartbeat CPU 0 instructions: 620000089 cycles: 1988323697 heartbeat IPC: 0.4007 cumulative IPC: 0.3118 (Simulation time: 03 hr 46 min 04 sec)
Heartbeat CPU 0 instructions: 630000091 cycles: 1994774316 heartbeat IPC: 1.55 cumulative IPC: 0.3158 (Simulation time: 03 hr 47 min 13 sec)
[ERROR_CYCLE] Error added at CPU cycle 1998818924, interval 43, pending count: 1
[DRAM_CYCLE_ERROR] Cycle-based error applied! address=0xf727036c0 additional_latency=2459910500 cycles
Heartbeat CPU 0 instructions: 640000095 cycles: 2020282040 heartbeat IPC: 0.392 cumulative IPC: 0.3168 (Simulation time: 03 hr 50 min 24 sec)
Heartbeat CPU 0 instructions: 650000095 cycles: 2045189764 heartbeat IPC: 0.4015 cumulative IPC: 0.3178 (Simulation time: 03 hr 53 min 46 sec)
[ERROR_CYCLE] Error added at CPU cycle 2045303084, interval 44, pending count: 1
[DRAM_CYCLE_ERROR] Cycle-based error applied! address=0xf7270bb80 additional_latency=2459910500 cycles
Heartbeat CPU 0 instructions: 660000096 cycles: 2061437029 heartbeat IPC: 0.6155 cumulative IPC: 0.3202 (Simulation time: 03 hr 56 min 04 sec)
Heartbeat CPU 0 instructions: 670000097 cycles: 2077079852 heartbeat IPC: 0.6393 cumulative IPC: 0.3226 (Simulation time: 03 hr 58 min 14 sec)
[ERROR_CYCLE] Error added at CPU cycle 2091787245, interval 45, pending count: 1
[DRAM_CYCLE_ERROR] Cycle-based error applied! address=0x3b663ddc0 additional_latency=2459910500 cycles
Heartbeat CPU 0 instructions: 680000100 cycles: 2092725448 heartbeat IPC: 0.6392 cumulative IPC: 0.3249 (Simulation time: 04 hr 00 min 30 sec)
Heartbeat CPU 0 instructions: 690000102 cycles: 2108362823 heartbeat IPC: 0.6395 cumulative IPC: 0.3273 (Simulation time: 04 hr 02 min 10 sec)
Heartbeat CPU 0 instructions: 700000105 cycles: 2124009901 heartbeat IPC: 0.6391 cumulative IPC: 0.3296 (Simulation time: 04 hr 04 min 09 sec)
[ERROR_CYCLE] Error added at CPU cycle 2138271406, interval 46, pending count: 1
[DRAM_CYCLE_ERROR] Cycle-based error applied! address=0xaac200af0 additional_latency=2459910500 cycles
Simulation CPU 0 panic: IPC 0 < 0.01
Heartbeat CPU 0 instructions: 710000108 cycles: 2158785306 heartbeat IPC: 0.2876 cumulative IPC: 0.3289 (Simulation time: 04 hr 08 min 09 sec)
Heartbeat CPU 0 instructions: 720000109 cycles: 2183660385 heartbeat IPC: 0.402 cumulative IPC: 0.3297 (Simulation time: 04 hr 10 min 48 sec)
[ERROR_CYCLE] Error added at CPU cycle 2184755567, interval 47, pending count: 1
[DRAM_CYCLE_ERROR] Cycle-based error applied! address=0xaac203d10 additional_latency=2459910500 cycles
Simulation CPU 0 panic: IPC 0 < 0.01
Heartbeat CPU 0 instructions: 730000113 cycles: 2218384300 heartbeat IPC: 0.288 cumulative IPC: 0.3291 (Simulation time: 04 hr 14 min 40 sec)
Heartbeat CPU 0 instructions: 740000114 cycles: 2224820600 heartbeat IPC: 1.554 cumulative IPC: 0.3326 (Simulation time: 04 hr 15 min 41 sec)
[ERROR_CYCLE] Error added at CPU cycle 2231239728, interval 48, pending count: 1
[DRAM_CYCLE_ERROR] Cycle-based error applied! address=0x74d00008 additional_latency=2459910500 cycles
Simulation CPU 0 panic: IPC 0 < 0.01
Heartbeat CPU 0 instructions: 750000114 cycles: 2259539663 heartbeat IPC: 0.288 cumulative IPC: 0.3319 (Simulation time: 04 hr 19 min 59 sec)
Heartbeat CPU 0 instructions: 760000117 cycles: 2275178757 heartbeat IPC: 0.6394 cumulative IPC: 0.334 (Simulation time: 04 hr 21 min 44 sec)
[ERROR_CYCLE] Error added at CPU cycle 2277723889, interval 49, pending count: 1
[DRAM_CYCLE_ERROR] Cycle-based error applied! address=0x633143b40 additional_latency=2459910500 cycles
Heartbeat CPU 0 instructions: 770000118 cycles: 2309856080 heartbeat IPC: 0.2884 cumulative IPC: 0.3334 (Simulation time: 04 hr 25 min 52 sec)
Heartbeat CPU 0 instructions: 780000118 cycles: 2316224774 heartbeat IPC: 1.57 cumulative IPC: 0.3368 (Simulation time: 04 hr 27 min 01 sec)
[ERROR_CYCLE] Error added at CPU cycle 2324208050, interval 50, pending count: 1
[DRAM_CYCLE_ERROR] Cycle-based error applied! address=0xaac20a4c8 additional_latency=2459910500 cycles
Simulation CPU 0 panic: IPC 0 < 0.01
Heartbeat CPU 0 instructions: 790000121 cycles: 2341679518 heartbeat IPC: 0.3929 cumulative IPC: 0.3374 (Simulation time: 04 hr 30 min 24 sec)
Heartbeat CPU 0 instructions: 800000122 cycles: 2366588742 heartbeat IPC: 0.4015 cumulative IPC: 0.338 (Simulation time: 04 hr 33 min 35 sec)
[ERROR_CYCLE] Error added at CPU cycle 2370692212, interval 51, pending count: 1
[DRAM_CYCLE_ERROR] Cycle-based error applied! address=0xf7276d100 additional_latency=2459910500 cycles
Heartbeat CPU 0 instructions: 810000125 cycles: 2382821407 heartbeat IPC: 0.616 cumulative IPC: 0.3399 (Simulation time: 04 hr 35 min 37 sec)
Heartbeat CPU 0 instructions: 820000126 cycles: 2407702066 heartbeat IPC: 0.4019 cumulative IPC: 0.3406 (Simulation time: 04 hr 38 min 56 sec)
Heartbeat CPU 0 instructions: 830000129 cycles: 2414125650 heartbeat IPC: 1.557 cumulative IPC: 0.3438 (Simulation time: 04 hr 39 min 55 sec)
[ERROR_CYCLE] Error added at CPU cycle 2417176373, interval 52, pending count: 1
[DRAM_CYCLE_ERROR] Cycle-based error applied! address=0xaac20f178 additional_latency=2459910500 cycles
Simulation CPU 0 panic: IPC 0 < 0.01
Heartbeat CPU 0 instructions: 840000130 cycles: 2448904388 heartbeat IPC: 0.2875 cumulative IPC: 0.343 (Simulation time: 04 hr 43 min 38 sec)
Heartbeat CPU 0 instructions: 850000134 cycles: 2455381759 heartbeat IPC: 1.544 cumulative IPC: 0.3462 (Simulation time: 04 hr 44 min 35 sec)
[ERROR_CYCLE] Error added at CPU cycle 2463660534, interval 53, pending count: 1
[DRAM_CYCLE_ERROR] Cycle-based error applied! address=0xaac2118c0 additional_latency=2459910500 cycles
Heartbeat CPU 0 instructions: 860000138 cycles: 2480915315 heartbeat IPC: 0.3916 cumulative IPC: 0.3466 (Simulation time: 04 hr 47 min 50 sec)
Heartbeat CPU 0 instructions: 870000138 cycles: 2505801179 heartbeat IPC: 0.4018 cumulative IPC: 0.3472 (Simulation time: 04 hr 51 min 13 sec)
[ERROR_CYCLE] Error added at CPU cycle 2510144695, interval 54, pending count: 1
[DRAM_CYCLE_ERROR] Cycle-based error applied! address=0xfd234aa40 additional_latency=2459910500 cycles
Simulation CPU 0 warning: IPC 0.025028 < 0.05
Heartbeat CPU 0 instructions: 880000140 cycles: 2522033813 heartbeat IPC: 0.616 cumulative IPC: 0.3489 (Simulation time: 04 hr 53 min 03 sec)
Heartbeat CPU 0 instructions: 890000143 cycles: 2537639645 heartbeat IPC: 0.6408 cumulative IPC: 0.3507 (Simulation time: 04 hr 54 min 55 sec)
Heartbeat CPU 0 instructions: 900000143 cycles: 2553349897 heartbeat IPC: 0.6365 cumulative IPC: 0.3525 (Simulation time: 04 hr 57 min 10 sec)
[ERROR_CYCLE] Error added at CPU cycle 2556628855, interval 55, pending count: 1
[DRAM_CYCLE_ERROR] Cycle-based error applied! address=0xaac216750 additional_latency=2459910500 cycles
Simulation CPU 0 panic: IPC 0 < 0.01
Heartbeat CPU 0 instructions: 910000143 cycles: 2578850901 heartbeat IPC: 0.3921 cumulative IPC: 0.3529 (Simulation time: 05 hr 00 min 23 sec)
[ERROR_CYCLE] Error added at CPU cycle 2603113016, interval 56, pending count: 1
[DRAM_CYCLE_ERROR] Cycle-based error applied! address=0xaac219970 additional_latency=2459910500 cycles
Simulation CPU 0 panic: IPC 0 < 0.01
Heartbeat CPU 0 instructions: 920000144 cycles: 2622822987 heartbeat IPC: 0.2274 cumulative IPC: 0.3508 (Simulation time: 05 hr 06 min 02 sec)
Heartbeat CPU 0 instructions: 930000144 cycles: 2638484154 heartbeat IPC: 0.6385 cumulative IPC: 0.3525 (Simulation time: 05 hr 07 min 55 sec)
[ERROR_CYCLE] Error added at CPU cycle 2649597177, interval 57, pending count: 1
[DRAM_CYCLE_ERROR] Cycle-based error applied! address=0xd0d200000 additional_latency=2459910500 cycles
Simulation CPU 0 warning: IPC 0.023246 < 0.05
Heartbeat CPU 0 instructions: 940000147 cycles: 2682476389 heartbeat IPC: 0.2273 cumulative IPC: 0.3504 (Simulation time: 05 hr 12 min 41 sec)
[ERROR_CYCLE] Error added at CPU cycle 2696081338, interval 58, pending count: 1
[DRAM_CYCLE_ERROR] Cycle-based error applied! address=0xd86800000 additional_latency=2459910500 cycles
Simulation CPU 0 panic: IPC 0 < 0.01
Heartbeat CPU 0 instructions: 950000149 cycles: 2707968140 heartbeat IPC: 0.3923 cumulative IPC: 0.3508 (Simulation time: 05 hr 15 min 42 sec)
Heartbeat CPU 0 instructions: 960000152 cycles: 2714415600 heartbeat IPC: 1.551 cumulative IPC: 0.3537 (Simulation time: 05 hr 16 min 52 sec)
Heartbeat CPU 0 instructions: 970000152 cycles: 2739283264 heartbeat IPC: 0.4021 cumulative IPC: 0.3541 (Simulation time: 05 hr 20 min 01 sec)
[ERROR_CYCLE] Error added at CPU cycle 2742565499, interval 59, pending count: 1
[DRAM_CYCLE_ERROR] Cycle-based error applied! address=0xaac221d28 additional_latency=2459910500 cycles
Simulation CPU 0 warning: IPC 0.036979 < 0.05
Heartbeat CPU 0 instructions: 980000153 cycles: 2764751255 heartbeat IPC: 0.3926 cumulative IPC: 0.3545 (Simulation time: 05 hr 22 min 45 sec)
Simulation CPU 0 warning: IPC 0.025452 < 0.05
[ERROR_CYCLE] Error added at CPU cycle 2789049660, interval 60, pending count: 1
[DRAM_CYCLE_ERROR] Cycle-based error applied! address=0xaac224c88 additional_latency=2459910500 cycles
Simulation CPU 0 panic: IPC 0 < 0.01
Heartbeat CPU 0 instructions: 990000153 cycles: 2808773607 heartbeat IPC: 0.2272 cumulative IPC: 0.3525 (Simulation time: 05 hr 28 min 06 sec)
Heartbeat CPU 0 instructions: 1000000154 cycles: 2815194398 heartbeat IPC: 1.557 cumulative IPC: 0.3552 (Simulation time: 05 hr 29 min 18 sec)
[ERROR_CYCLE] Error added at CPU cycle 2835533821, interval 61, pending count: 1
[DRAM_CYCLE_ERROR] Cycle-based error applied! address=0xdb8e00000 additional_latency=2459910500 cycles
Simulation CPU 0 panic: IPC 0 < 0.01
Heartbeat CPU 0 instructions: 1010000156 cycles: 2849928854 heartbeat IPC: 0.2879 cumulative IPC: 0.3544 (Simulation time: 05 hr 33 min 29 sec)
Heartbeat CPU 0 instructions: 1020000158 cycles: 2865600340 heartbeat IPC: 0.6381 cumulative IPC: 0.3559 (Simulation time: 05 hr 35 min 31 sec)
Heartbeat CPU 0 instructions: 1030000158 cycles: 2872026786 heartbeat IPC: 1.556 cumulative IPC: 0.3586 (Simulation time: 05 hr 36 min 42 sec)
[ERROR_CYCLE] Error added at CPU cycle 2882017983, interval 62, pending count: 1
[DRAM_CYCLE_ERROR] Cycle-based error applied! address=0xfe59ef880 additional_latency=2459910500 cycles
Heartbeat CPU 0 instructions: 1040000160 cycles: 2906783134 heartbeat IPC: 0.2877 cumulative IPC: 0.3578 (Simulation time: 05 hr 41 min 08 sec)
Heartbeat CPU 0 instructions: 1050000160 cycles: 2913226674 heartbeat IPC: 1.552 cumulative IPC: 0.3604 (Simulation time: 05 hr 42 min 02 sec)
[ERROR_CYCLE] Error added at CPU cycle 2928502144, interval 63, pending count: 1
[DRAM_CYCLE_ERROR] Cycle-based error applied! address=0xaac22b260 additional_latency=2459910500 cycles
Simulation CPU 0 panic: IPC 0 < 0.01
Heartbeat CPU 0 instructions: 1060000160 cycles: 2947991384 heartbeat IPC: 0.2876 cumulative IPC: 0.3596 (Simulation time: 05 hr 46 min 21 sec)
Heartbeat CPU 0 instructions: 1070000162 cycles: 2963682234 heartbeat IPC: 0.6373 cumulative IPC: 0.361 (Simulation time: 05 hr 48 min 33 sec)
[ERROR_CYCLE] Error added at CPU cycle 2974986305, interval 64, pending count: 1
[DRAM_CYCLE_ERROR] Cycle-based error applied! address=0xa06100000 additional_latency=2459910500 cycles
Simulation CPU 0 panic: IPC 0 < 0.01
Heartbeat CPU 0 instructions: 1080000162 cycles: 2989245790 heartbeat IPC: 0.3912 cumulative IPC: 0.3613 (Simulation time: 05 hr 51 min 43 sec)
Heartbeat CPU 0 instructions: 1090000165 cycles: 3004926181 heartbeat IPC: 0.6377 cumulative IPC: 0.3627 (Simulation time: 05 hr 53 min 57 sec)
Heartbeat CPU 0 instructions: 1100000169 cycles: 3020601440 heartbeat IPC: 0.6379 cumulative IPC: 0.3642 (Simulation time: 05 hr 56 min 08 sec)
[ERROR_CYCLE] Error added at CPU cycle 3021470466, interval 65, pending count: 1
[DRAM_CYCLE_ERROR] Cycle-based error applied! address=0x83d284400 additional_latency=2459910500 cycles
Heartbeat CPU 0 instructions: 1110000171 cycles: 3046135530 heartbeat IPC: 0.3916 cumulative IPC: 0.3644 (Simulation time: 05 hr 59 min 33 sec)
Heartbeat CPU 0 instructions: 1120000172 cycles: 3061829179 heartbeat IPC: 0.6372 cumulative IPC: 0.3658 (Simulation time: 06 hr 01 min 43 sec)
[ERROR_CYCLE] Error added at CPU cycle 3067954626, interval 66, pending count: 1
[DRAM_CYCLE_ERROR] Cycle-based error applied! address=0x128700000 additional_latency=2459910500 cycles
Simulation CPU 0 panic: IPC 0 < 0.01
Heartbeat CPU 0 instructions: 1130000173 cycles: 3096600730 heartbeat IPC: 0.2876 cumulative IPC: 0.3649 (Simulation time: 06 hr 06 min 05 sec)
[ERROR_CYCLE] Error added at CPU cycle 3114438787, interval 67, pending count: 1
[DRAM_CYCLE_ERROR] Cycle-based error applied! address=0x513800000 additional_latency=2459910500 cycles
Simulation CPU 0 panic: IPC 0 < 0.01
Heartbeat CPU 0 instructions: 1140000175 cycles: 3131312141 heartbeat IPC: 0.2881 cumulative IPC: 0.3641 (Simulation time: 06 hr 10 min 32 sec)
Heartbeat CPU 0 instructions: 1150000177 cycles: 3146980814 heartbeat IPC: 0.6382 cumulative IPC: 0.3654 (Simulation time: 06 hr 12 min 47 sec)
[ERROR_CYCLE] Error added at CPU cycle 3160922948, interval 68, pending count: 1
[DRAM_CYCLE_ERROR] Cycle-based error applied! address=0xc3be00000 additional_latency=2459910500 cycles
Simulation CPU 0 panic: IPC 0 < 0.01
Heartbeat CPU 0 instructions: 1160000181 cycles: 3181751537 heartbeat IPC: 0.2876 cumulative IPC: 0.3646 (Simulation time: 06 hr 17 min 19 sec)
Heartbeat CPU 0 instructions: 1170000184 cycles: 3197407447 heartbeat IPC: 0.6387 cumulative IPC: 0.3659 (Simulation time: 06 hr 19 min 34 sec)
[ERROR_CYCLE] Error added at CPU cycle 3207407109, interval 69, pending count: 1
[DRAM_CYCLE_ERROR] Cycle-based error applied! address=0x673f00000 additional_latency=2459910500 cycles
Simulation CPU 0 panic: IPC 0 < 0.01
Heartbeat CPU 0 instructions: 1180000184 cycles: 3232169682 heartbeat IPC: 0.2877 cumulative IPC: 0.3651 (Simulation time: 06 hr 24 min 07 sec)
Heartbeat CPU 0 instructions: 1190000184 cycles: 3238539388 heartbeat IPC: 1.57 cumulative IPC: 0.3674 (Simulation time: 06 hr 25 min 16 sec)
Heartbeat CPU 0 instructions: 1200000188 cycles: 3244929757 heartbeat IPC: 1.565 cumulative IPC: 0.3698 (Simulation time: 06 hr 26 min 26 sec)
[ERROR_CYCLE] Error added at CPU cycle 3253891270, interval 70, pending count: 1
[DRAM_CYCLE_ERROR] Cycle-based error applied! address=0x54c700000 additional_latency=2459910500 cycles
Simulation CPU 0 panic: IPC 0 < 0.01
Heartbeat CPU 0 instructions: 1210000190 cycles: 3288888130 heartbeat IPC: 0.2275 cumulative IPC: 0.3679 (Simulation time: 06 hr 32 min 03 sec)
Heartbeat CPU 0 instructions: 1220000192 cycles: 3295296909 heartbeat IPC: 1.56 cumulative IPC: 0.3702 (Simulation time: 06 hr 33 min 14 sec)
[ERROR_CYCLE] Error added at CPU cycle 3300375431, interval 71, pending count: 1
[DRAM_CYCLE_ERROR] Cycle-based error applied! address=0xaac23fa38 additional_latency=2459910500 cycles
Simulation CPU 0 panic: IPC 0 < 0.01
Heartbeat CPU 0 instructions: 1230000192 cycles: 3329982951 heartbeat IPC: 0.2883 cumulative IPC: 0.3694 (Simulation time: 06 hr 36 min 54 sec)
Heartbeat CPU 0 instructions: 1240000192 cycles: 3336371424 heartbeat IPC: 1.565 cumulative IPC: 0.3717 (Simulation time: 06 hr 38 min 03 sec)
[ERROR_CYCLE] Error added at CPU cycle 3346859592, interval 72, pending count: 1
[DRAM_CYCLE_ERROR] Cycle-based error applied! address=0xaac241180 additional_latency=2459910500 cycles
Simulation CPU 0 panic: IPC 0 < 0.01
Heartbeat CPU 0 instructions: 1250000193 cycles: 3361881093 heartbeat IPC: 0.392 cumulative IPC: 0.3718 (Simulation time: 06 hr 40 min 52 sec)
Heartbeat CPU 0 instructions: 1260000194 cycles: 3377589035 heartbeat IPC: 0.6366 cumulative IPC: 0.373 (Simulation time: 06 hr 42 min 37 sec)
Heartbeat CPU 0 instructions: 1270000195 cycles: 3393334902 heartbeat IPC: 0.6351 cumulative IPC: 0.3743 (Simulation time: 06 hr 44 min 43 sec)
[ERROR_CYCLE] Error added at CPU cycle 3393343754, interval 73, pending count: 1
[DRAM_CYCLE_ERROR] Cycle-based error applied! address=0x83d2ed040 additional_latency=2459910500 cycles
Heartbeat CPU 0 instructions: 1280000195 cycles: 3428059200 heartbeat IPC: 0.288 cumulative IPC: 0.3734 (Simulation time: 06 hr 48 min 56 sec)
Heartbeat CPU 0 instructions: 1290000197 cycles: 3434452527 heartbeat IPC: 1.564 cumulative IPC: 0.3756 (Simulation time: 06 hr 49 min 54 sec)
[ERROR_CYCLE] Error added at CPU cycle 3439827915, interval 74, pending count: 1
[DRAM_CYCLE_ERROR] Cycle-based error applied! address=0xaac246010 additional_latency=2459910500 cycles
Simulation CPU 0 panic: IPC 0 < 0.01
Heartbeat CPU 0 instructions: 1300000200 cycles: 3459900284 heartbeat IPC: 0.393 cumulative IPC: 0.3757 (Simulation time: 06 hr 53 min 14 sec)
Heartbeat CPU 0 instructions: 1310000203 cycles: 3475514485 heartbeat IPC: 0.6404 cumulative IPC: 0.3769 (Simulation time: 06 hr 55 min 16 sec)
[ERROR_CYCLE] Error added at CPU cycle 3486312076, interval 75, pending count: 1
[DRAM_CYCLE_ERROR] Cycle-based error applied! address=0x715700000 additional_latency=2459910500 cycles
Simulation CPU 0 panic: IPC 0 < 0.01
Heartbeat CPU 0 instructions: 1320000204 cycles: 3500976491 heartbeat IPC: 0.3927 cumulative IPC: 0.377 (Simulation time: 06 hr 58 min 19 sec)
Heartbeat CPU 0 instructions: 1330000204 cycles: 3516620124 heartbeat IPC: 0.6392 cumulative IPC: 0.3782 (Simulation time: 07 hr 00 min 16 sec)
[ERROR_CYCLE] Error added at CPU cycle 3532796237, interval 76, pending count: 1
[DRAM_CYCLE_ERROR] Cycle-based error applied! address=0x46f700000 additional_latency=2459910500 cycles
Simulation CPU 0 panic: IPC 0 < 0.01
Heartbeat CPU 0 instructions: 1340000205 cycles: 3560580638 heartbeat IPC: 0.2275 cumulative IPC: 0.3763 (Simulation time: 07 hr 05 min 48 sec)
Heartbeat CPU 0 instructions: 1350000206 cycles: 3576234772 heartbeat IPC: 0.6388 cumulative IPC: 0.3775 (Simulation time: 07 hr 08 min 03 sec)
[ERROR_CYCLE] Error added at CPU cycle 3579280397, interval 77, pending count: 1
[DRAM_CYCLE_ERROR] Cycle-based error applied! address=0xaac24e2a0 additional_latency=2459910500 cycles
Simulation CPU 0 panic: IPC 0 < 0.01
Heartbeat CPU 0 instructions: 1360000206 cycles: 3620245301 heartbeat IPC: 0.2272 cumulative IPC: 0.3757 (Simulation time: 07 hr 13 min 40 sec)
[ERROR_CYCLE] Error added at CPU cycle 3625764558, interval 78, pending count: 1
[DRAM_CYCLE_ERROR] Cycle-based error applied! address=0xe43ac8e80 additional_latency=2459910500 cycles
Heartbeat CPU 0 instructions: 1370000208 cycles: 3636518709 heartbeat IPC: 0.6145 cumulative IPC: 0.3767 (Simulation time: 07 hr 15 min 59 sec)
Heartbeat CPU 0 instructions: 1380000211 cycles: 3661387856 heartbeat IPC: 0.4021 cumulative IPC: 0.3769 (Simulation time: 07 hr 18 min 53 sec)
[ERROR_CYCLE] Error added at CPU cycle 3672248719, interval 79, pending count: 1
[DRAM_CYCLE_ERROR] Cycle-based error applied! address=0x8d1600000 additional_latency=2459910500 cycles
Simulation CPU 0 panic: IPC 0 < 0.01
Heartbeat CPU 0 instructions: 1390000212 cycles: 3686859794 heartbeat IPC: 0.3926 cumulative IPC: 0.377 (Simulation time: 07 hr 21 min 22 sec)
Heartbeat CPU 0 instructions: 1400000216 cycles: 3711711991 heartbeat IPC: 0.4024 cumulative IPC: 0.3772 (Simulation time: 07 hr 24 min 37 sec)
[ERROR_CYCLE] Error added at CPU cycle 3718732880, interval 80, pending count: 1
[DRAM_CYCLE_ERROR] Cycle-based error applied! address=0xe19400000 additional_latency=2459910500 cycles
Simulation CPU 0 panic: IPC 0 < 0.01
Heartbeat CPU 0 instructions: 1410000218 cycles: 3737170056 heartbeat IPC: 0.3928 cumulative IPC: 0.3773 (Simulation time: 07 hr 27 min 32 sec)
Heartbeat CPU 0 instructions: 1420000220 cycles: 3743548932 heartbeat IPC: 1.568 cumulative IPC: 0.3793 (Simulation time: 07 hr 28 min 31 sec)
[ERROR_CYCLE] Error added at CPU cycle 3765217041, interval 81, pending count: 1
[DRAM_CYCLE_ERROR] Cycle-based error applied! address=0x99404b9c0 additional_latency=2459910500 cycles
Heartbeat CPU 0 instructions: 1430000221 cycles: 3787480856 heartbeat IPC: 0.2276 cumulative IPC: 0.3776 (Simulation time: 07 hr 33 min 36 sec)
Heartbeat CPU 0 instructions: 1440000224 cycles: 3793845485 heartbeat IPC: 1.571 cumulative IPC: 0.3796 (Simulation time: 07 hr 34 min 45 sec)
[ERROR_CYCLE] Error added at CPU cycle 3811701202, interval 82, pending count: 1
[DRAM_CYCLE_ERROR] Cycle-based error applied! address=0xaac25bb20 additional_latency=2459910500 cycles
Simulation CPU 0 panic: IPC 0 < 0.01
Heartbeat CPU 0 instructions: 1450000224 cycles: 3828530598 heartbeat IPC: 0.2883 cumulative IPC: 0.3787 (Simulation time: 07 hr 39 min 08 sec)
Heartbeat CPU 0 instructions: 1460000224 cycles: 3834991514 heartbeat IPC: 1.548 cumulative IPC: 0.3807 (Simulation time: 07 hr 40 min 18 sec)
[ERROR_CYCLE] Error added at CPU cycle 3858185363, interval 83, pending count: 1
[DRAM_CYCLE_ERROR] Cycle-based error applied! address=0xab6800000 additional_latency=2459910500 cycles
Simulation CPU 0 critical: IPC 0.017602 < 0.02
Heartbeat CPU 0 instructions: 1470000226 cycles: 3869710661 heartbeat IPC: 0.288 cumulative IPC: 0.3799 (Simulation time: 07 hr 44 min 10 sec)
Heartbeat CPU 0 instructions: 1480000229 cycles: 3885332071 heartbeat IPC: 0.6401 cumulative IPC: 0.3809 (Simulation time: 07 hr 46 min 24 sec)
Heartbeat CPU 0 instructions: 1490000230 cycles: 3900923854 heartbeat IPC: 0.6414 cumulative IPC: 0.382 (Simulation time: 07 hr 48 min 05 sec)
[ERROR_CYCLE] Error added at CPU cycle 3904669525, interval 84, pending count: 1
[DRAM_CYCLE_ERROR] Cycle-based error applied! address=0x673fc12c0 additional_latency=2459910500 cycles
Heartbeat CPU 0 instructions: 1500000230 cycles: 3916519243 heartbeat IPC: 0.6412 cumulative IPC: 0.383 (Simulation time: 07 hr 50 min 17 sec)
Heartbeat CPU 0 instructions: 1510000230 cycles: 3922872543 heartbeat IPC: 1.574 cumulative IPC: 0.3849 (Simulation time: 07 hr 51 min 03 sec)
Heartbeat CPU 0 instructions: 1520000233 cycles: 3938454528 heartbeat IPC: 0.6418 cumulative IPC: 0.3859 (Simulation time: 07 hr 52 min 38 sec)
[ERROR_CYCLE] Error added at CPU cycle 3951153686, interval 85, pending count: 1
[DRAM_CYCLE_ERROR] Cycle-based error applied! address=0xfce8289c0 additional_latency=2459910500 cycles
Heartbeat CPU 0 instructions: 1530000234 cycles: 3973129597 heartbeat IPC: 0.2884 cumulative IPC: 0.3851 (Simulation time: 07 hr 56 min 59 sec)
Heartbeat CPU 0 instructions: 1540000238 cycles: 3988747138 heartbeat IPC: 0.6403 cumulative IPC: 0.3861 (Simulation time: 07 hr 58 min 49 sec)
[ERROR_CYCLE] Error added at CPU cycle 3997637847, interval 86, pending count: 1
[DRAM_CYCLE_ERROR] Cycle-based error applied! address=0x72fd00000 additional_latency=2459910500 cycles
Simulation CPU 0 panic: IPC 0 < 0.01
Heartbeat CPU 0 instructions: 1550000238 cycles: 4032741273 heartbeat IPC: 0.2273 cumulative IPC: 0.3844 (Simulation time: 08 hr 04 min 16 sec)
[ERROR_CYCLE] Error added at CPU cycle 4044122008, interval 87, pending count: 1
[DRAM_CYCLE_ERROR] Cycle-based error applied! address=0xd8f600000 additional_latency=2459910500 cycles
Simulation CPU 0 panic: IPC 0 < 0.01
Heartbeat CPU 0 instructions: 1560000242 cycles: 4058187347 heartbeat IPC: 0.393 cumulative IPC: 0.3844 (Simulation time: 08 hr 07 min 30 sec)
Heartbeat CPU 0 instructions: 1570000243 cycles: 4073813756 heartbeat IPC: 0.6399 cumulative IPC: 0.3854 (Simulation time: 08 hr 09 min 14 sec)
[ERROR_CYCLE] Error added at CPU cycle 4090606168, interval 88, pending count: 1
[DRAM_CYCLE_ERROR] Cycle-based error applied! address=0xaac26b990 additional_latency=2459910500 cycles
Simulation CPU 0 panic: IPC 0 < 0.01
Heartbeat CPU 0 instructions: 1580000246 cycles: 4108524881 heartbeat IPC: 0.2881 cumulative IPC: 0.3846 (Simulation time: 08 hr 13 min 01 sec)
Heartbeat CPU 0 instructions: 1590000248 cycles: 4114942907 heartbeat IPC: 1.558 cumulative IPC: 0.3864 (Simulation time: 08 hr 14 min 05 sec)
[ERROR_CYCLE] Error added at CPU cycle 4137090329, interval 89, pending count: 1
[DRAM_CYCLE_ERROR] Cycle-based error applied! address=0xa06195980 additional_latency=2459910500 cycles
Heartbeat CPU 0 instructions: 1600000249 cycles: 4149666684 heartbeat IPC: 0.288 cumulative IPC: 0.3856 (Simulation time: 08 hr 17 min 32 sec)
Heartbeat CPU 0 instructions: 1610000252 cycles: 4156047687 heartbeat IPC: 1.567 cumulative IPC: 0.3874 (Simulation time: 08 hr 18 min 37 sec)
Heartbeat CPU 0 instructions: 1620000256 cycles: 4180897642 heartbeat IPC: 0.4024 cumulative IPC: 0.3875 (Simulation time: 08 hr 21 min 25 sec)
[ERROR_CYCLE] Error added at CPU cycle 4183574490, interval 90, pending count: 1
[DRAM_CYCLE_ERROR] Cycle-based error applied! address=0xaac270038 additional_latency=2459910500 cycles
Simulation CPU 0 panic: IPC 0 < 0.01
Heartbeat CPU 0 instructions: 1630000256 cycles: 4206342103 heartbeat IPC: 0.393 cumulative IPC: 0.3875 (Simulation time: 08 hr 24 min 51 sec)
Heartbeat CPU 0 instructions: 1640000256 cycles: 4221999557 heartbeat IPC: 0.6387 cumulative IPC: 0.3884 (Simulation time: 08 hr 27 min 06 sec)
[ERROR_CYCLE] Error added at CPU cycle 4230058651, interval 91, pending count: 1
[DRAM_CYCLE_ERROR] Cycle-based error applied! address=0xe22f00000 additional_latency=2459910500 cycles
Simulation CPU 0 panic: IPC 0 < 0.01
Heartbeat CPU 0 instructions: 1650000256 cycles: 4247463393 heartbeat IPC: 0.3927 cumulative IPC: 0.3885 (Simulation time: 08 hr 30 min 23 sec)
Heartbeat CPU 0 instructions: 1660000256 cycles: 4253849936 heartbeat IPC: 1.566 cumulative IPC: 0.3902 (Simulation time: 08 hr 31 min 31 sec)
[ERROR_CYCLE] Error added at CPU cycle 4276542812, interval 92, pending count: 1
[DRAM_CYCLE_ERROR] Cycle-based error applied! address=0xfce880ec0 additional_latency=2459910500 cycles
Heartbeat CPU 0 instructions: 1670000259 cycles: 4288595329 heartbeat IPC: 0.2878 cumulative IPC: 0.3894 (Simulation time: 08 hr 35 min 58 sec)
Heartbeat CPU 0 instructions: 1680000260 cycles: 4295023174 heartbeat IPC: 1.556 cumulative IPC: 0.3912 (Simulation time: 08 hr 37 min 06 sec)
Heartbeat CPU 0 instructions: 1690000263 cycles: 4319923300 heartbeat IPC: 0.4016 cumulative IPC: 0.3912 (Simulation time: 08 hr 40 min 04 sec)
[ERROR_CYCLE] Error added at CPU cycle 4323026973, interval 93, pending count: 1
[DRAM_CYCLE_ERROR] Cycle-based error applied! address=0xaac277170 additional_latency=2459910500 cycles
Simulation CPU 0 panic: IPC 0 < 0.01
Heartbeat CPU 0 instructions: 1700000264 cycles: 4345386896 heartbeat IPC: 0.3927 cumulative IPC: 0.3912 (Simulation time: 08 hr 43 min 21 sec)
Heartbeat CPU 0 instructions: 1710000268 cycles: 4360999859 heartbeat IPC: 0.6405 cumulative IPC: 0.3921 (Simulation time: 08 hr 45 min 07 sec)
[ERROR_CYCLE] Error added at CPU cycle 4369511134, interval 94, pending count: 1
[DRAM_CYCLE_ERROR] Cycle-based error applied! address=0xaac2798b8 additional_latency=2459910500 cycles
Simulation CPU 0 panic: IPC 0 < 0.01
Heartbeat CPU 0 instructions: 1720000269 cycles: 4386451219 heartbeat IPC: 0.3929 cumulative IPC: 0.3921 (Simulation time: 08 hr 47 min 35 sec)
Heartbeat CPU 0 instructions: 1730000273 cycles: 4392827571 heartbeat IPC: 1.568 cumulative IPC: 0.3938 (Simulation time: 08 hr 48 min 26 sec)
[ERROR_CYCLE] Error added at CPU cycle 4415995296, interval 95, pending count: 1
[DRAM_CYCLE_ERROR] Cycle-based error applied! address=0xfce8ad280 additional_latency=2459910500 cycles
Simulation CPU 0 warning: IPC 0.023739 < 0.05
Heartbeat CPU 0 instructions: 1740000276 cycles: 4427599967 heartbeat IPC: 0.2876 cumulative IPC: 0.393 (Simulation time: 08 hr 51 min 48 sec)
Heartbeat CPU 0 instructions: 1750000276 cycles: 4452502265 heartbeat IPC: 0.4016 cumulative IPC: 0.393 (Simulation time: 08 hr 54 min 40 sec)
[ERROR_CYCLE] Error added at CPU cycle 4462479457, interval 96, pending count: 1
[DRAM_CYCLE_ERROR] Cycle-based error applied! address=0x8a3100000 additional_latency=2459910500 cycles
Simulation CPU 0 panic: IPC 0 < 0.01
Heartbeat CPU 0 instructions: 1760000277 cycles: 4478043444 heartbeat IPC: 0.3915 cumulative IPC: 0.393 (Simulation time: 08 hr 57 min 26 sec)
[ERROR_CYCLE] Error added at CPU cycle 4508963618, interval 97, pending count: 1
[DRAM_CYCLE_ERROR] Cycle-based error applied! address=0xc08f00000 additional_latency=2459910500 cycles
Simulation CPU 0 warning: IPC 0.025653 < 0.05
Heartbeat CPU 0 instructions: 1770000277 cycles: 4522049044 heartbeat IPC: 0.2272 cumulative IPC: 0.3914 (Simulation time: 09 hr 02 min 28 sec)
Heartbeat CPU 0 instructions: 1780000279 cycles: 4537741120 heartbeat IPC: 0.6373 cumulative IPC: 0.3923 (Simulation time: 09 hr 04 min 32 sec)
Heartbeat CPU 0 instructions: 1790000283 cycles: 4553450700 heartbeat IPC: 0.6366 cumulative IPC: 0.3931 (Simulation time: 09 hr 06 min 34 sec)
[ERROR_CYCLE] Error added at CPU cycle 4555447779, interval 98, pending count: 1
[DRAM_CYCLE_ERROR] Cycle-based error applied! address=0xaac284810 additional_latency=2459910500 cycles
Simulation CPU 0 panic: IPC 0 < 0.01
Heartbeat CPU 0 instructions: 1800000287 cycles: 4588210067 heartbeat IPC: 0.2877 cumulative IPC: 0.3923 (Simulation time: 09 hr 10 min 17 sec)
Heartbeat CPU 0 instructions: 1810000290 cycles: 4594649743 heartbeat IPC: 1.553 cumulative IPC: 0.3939 (Simulation time: 09 hr 11 min 26 sec)
[ERROR_CYCLE] Error added at CPU cycle 4601931939, interval 99, pending count: 1
[DRAM_CYCLE_ERROR] Cycle-based error applied! address=0x560b00000 additional_latency=2459910500 cycles
Simulation CPU 0 panic: IPC 0 < 0.01
Heartbeat CPU 0 instructions: 1820000291 cycles: 4638631124 heartbeat IPC: 0.2274 cumulative IPC: 0.3924 (Simulation time: 09 hr 16 min 31 sec)
Heartbeat CPU 0 instructions: 1830000291 cycles: 4645137067 heartbeat IPC: 1.537 cumulative IPC: 0.394 (Simulation time: 09 hr 17 min 34 sec)
[ERROR_CYCLE] Error added at CPU cycle 4648416100, interval 100, pending count: 1
[DRAM_CYCLE_ERROR] Cycle-based error applied! address=0xaac289880 additional_latency=2459910500 cycles
Simulation CPU 0 panic: IPC 0 < 0.01
Heartbeat CPU 0 instructions: 1840000295 cycles: 4689199259 heartbeat IPC: 0.227 cumulative IPC: 0.3924 (Simulation time: 09 hr 23 min 01 sec)
[ERROR_CYCLE] Error added at CPU cycle 4694900261, interval 101, pending count: 1
[DRAM_CYCLE_ERROR] Cycle-based error applied! address=0x560b17c40 additional_latency=2459910500 cycles
Heartbeat CPU 0 instructions: 1850000296 cycles: 4705543354 heartbeat IPC: 0.6118 cumulative IPC: 0.3932 (Simulation time: 09 hr 25 min 06 sec)
Heartbeat CPU 0 instructions: 1860000298 cycles: 4721261116 heartbeat IPC: 0.6362 cumulative IPC: 0.394 (Simulation time: 09 hr 27 min 08 sec)
Heartbeat CPU 0 instructions: 1870000302 cycles: 4737017843 heartbeat IPC: 0.6346 cumulative IPC: 0.3948 (Simulation time: 09 hr 28 min 59 sec)
[ERROR_CYCLE] Error added at CPU cycle 4741384422, interval 102, pending count: 1
[DRAM_CYCLE_ERROR] Cycle-based error applied! address=0xbbf002780 additional_latency=2459910500 cycles
Heartbeat CPU 0 instructions: 1880000302 cycles: 4753352684 heartbeat IPC: 0.6122 cumulative IPC: 0.3955 (Simulation time: 09 hr 31 min 17 sec)
Heartbeat CPU 0 instructions: 1890000304 cycles: 4787556735 heartbeat IPC: 0.2924 cumulative IPC: 0.3948 (Simulation time: 09 hr 35 min 15 sec)
[ERROR_CYCLE] Error added at CPU cycle 4787868583, interval 103, pending count: 1
[DRAM_CYCLE_ERROR] Cycle-based error applied! address=0xbbf00ab00 additional_latency=2459910500 cycles
Heartbeat CPU 0 instructions: 1900000306 cycles: 4803870170 heartbeat IPC: 0.613 cumulative IPC: 0.3955 (Simulation time: 09 hr 37 min 26 sec)
Heartbeat CPU 0 instructions: 1910000309 cycles: 4819556703 heartbeat IPC: 0.6375 cumulative IPC: 0.3963 (Simulation time: 09 hr 39 min 14 sec)
[ERROR_CYCLE] Error added at CPU cycle 4834352744, interval 104, pending count: 1
[DRAM_CYCLE_ERROR] Cycle-based error applied! address=0x8ed87c800 additional_latency=2459910500 cycles
Heartbeat CPU 0 instructions: 1920000310 cycles: 4845127309 heartbeat IPC: 0.3911 cumulative IPC: 0.3963 (Simulation time: 09 hr 42 min 36 sec)
Heartbeat CPU 0 instructions: 1930000311 cycles: 4860776765 heartbeat IPC: 0.639 cumulative IPC: 0.3971 (Simulation time: 09 hr 44 min 49 sec)
[ERROR_CYCLE] Error added at CPU cycle 4880836905, interval 105, pending count: 1
[DRAM_CYCLE_ERROR] Cycle-based error applied! address=0x225300000 additional_latency=2459910500 cycles
Simulation CPU 0 panic: IPC 0 < 0.01
Heartbeat CPU 0 instructions: 1940000313 cycles: 4895519201 heartbeat IPC: 0.2878 cumulative IPC: 0.3963 (Simulation time: 09 hr 49 min 13 sec)
Heartbeat CPU 0 instructions: 1950000313 cycles: 4911191466 heartbeat IPC: 0.6381 cumulative IPC: 0.3971 (Simulation time: 09 hr 51 min 26 sec)
Heartbeat CPU 0 instructions: 1960000314 cycles: 4926844254 heartbeat IPC: 0.6389 cumulative IPC: 0.3978 (Simulation time: 09 hr 53 min 42 sec)
[ERROR_CYCLE] Error added at CPU cycle 4927321067, interval 106, pending count: 1
[DRAM_CYCLE_ERROR] Cycle-based error applied! address=0x705d0e00 additional_latency=2459910500 cycles
Heartbeat CPU 0 instructions: 1970000316 cycles: 4951721229 heartbeat IPC: 0.402 cumulative IPC: 0.3978 (Simulation time: 09 hr 57 min 02 sec)
Heartbeat CPU 0 instructions: 1980000320 cycles: 4967358764 heartbeat IPC: 0.6395 cumulative IPC: 0.3986 (Simulation time: 09 hr 59 min 18 sec)
[ERROR_CYCLE] Error added at CPU cycle 4973805228, interval 107, pending count: 1
[DRAM_CYCLE_ERROR] Cycle-based error applied! address=0xaac29b650 additional_latency=2459910500 cycles
Heartbeat CPU 0 instructions: 1990000323 cycles: 5002064244 heartbeat IPC: 0.2881 cumulative IPC: 0.3978 (Simulation time: 10 hr 03 min 53 sec)

=== ERROR PAGE STATISTICS ===
Mode: CYCLE
Error Cycle Interval: 46484161 CPU cycles
Total Error Accesses: 107
==============================
Simulation finished CPU 0 instructions: 1999999507 cycles: 5017701669 cumulative IPC: 0.3986 (Simulation time: 10 hr 05 min 40 sec)
Simulation complete CPU 0 instructions: 1999999507 cycles: 5017701669 cumulative IPC: 0.3986 (Simulation time: 10 hr 05 min 40 sec)

ChampSim completed all CPUs

=== Simulation ===
CPU 0 runs test_traces/607.cactuBSSN_s-2421B.champsimtrace.xz

Region of Interest Statistics

CPU 0 cumulative IPC: 0.3986 instructions: 1999999507 cycles: 5017701669
CPU 0 Branch Prediction Accuracy: 98.41% MPKI: 0.0223 Average ROB Occupancy at Mispredict: 322.7
Branch type MPKI
BRANCH_DIRECT_JUMP: 3.4e-05
BRANCH_INDIRECT: 4.45e-05
BRANCH_CONDITIONAL: 0.0122
BRANCH_DIRECT_CALL: 0.000332
BRANCH_INDIRECT_CALL: 1.5e-06
BRANCH_RETURN: 0.009687

cpu0->cpu0_STLB TOTAL        ACCESS:   38315304 HIT:   38314906 MISS:        398 MSHR_MERGE:          0
cpu0->cpu0_STLB LOAD         ACCESS:   38315304 HIT:   38314906 MISS:        398 MSHR_MERGE:          0
cpu0->cpu0_STLB RFO          ACCESS:          0 HIT:          0 MISS:          0 MSHR_MERGE:          0
cpu0->cpu0_STLB PREFETCH     ACCESS:          0 HIT:          0 MISS:          0 MSHR_MERGE:          0
cpu0->cpu0_STLB WRITE        ACCESS:          0 HIT:          0 MISS:          0 MSHR_MERGE:          0
cpu0->cpu0_STLB TRANSLATION  ACCESS:          0 HIT:          0 MISS:          0 MSHR_MERGE:          0
cpu0->cpu0_STLB PREFETCH REQUESTED:          0 ISSUED:          0 USEFUL:          0 USELESS:          0
cpu0->cpu0_STLB AVERAGE MISS LATENCY: 1.105e+07 cycles
cpu0->cpu0_L2C TOTAL        ACCESS:  251138185 HIT:  230755449 MISS:   20382736 MSHR_MERGE:          0
cpu0->cpu0_L2C LOAD         ACCESS:  216983659 HIT:  196631549 MISS:   20352110 MSHR_MERGE:          0
cpu0->cpu0_L2C RFO          ACCESS:   16173698 HIT:   16143090 MISS:      30608 MSHR_MERGE:          0
cpu0->cpu0_L2C PREFETCH     ACCESS:          0 HIT:          0 MISS:          0 MSHR_MERGE:          0
cpu0->cpu0_L2C WRITE        ACCESS:   17980828 HIT:   17980810 MISS:         18 MSHR_MERGE:          0
cpu0->cpu0_L2C TRANSLATION  ACCESS:          0 HIT:          0 MISS:          0 MSHR_MERGE:          0
cpu0->cpu0_L2C PREFETCH REQUESTED:          0 ISSUED:          0 USEFUL:          0 USELESS:          0
cpu0->cpu0_L2C AVERAGE MISS LATENCY: 130.3 cycles
cpu0->cpu0_L1I TOTAL        ACCESS:  395391185 HIT:  392734699 MISS:    2656486 MSHR_MERGE:    1306343
cpu0->cpu0_L1I LOAD         ACCESS:  395391185 HIT:  392734699 MISS:    2656486 MSHR_MERGE:    1306343
cpu0->cpu0_L1I RFO          ACCESS:          0 HIT:          0 MISS:          0 MSHR_MERGE:          0
cpu0->cpu0_L1I PREFETCH     ACCESS:          0 HIT:          0 MISS:          0 MSHR_MERGE:          0
cpu0->cpu0_L1I WRITE        ACCESS:          0 HIT:          0 MISS:          0 MSHR_MERGE:          0
cpu0->cpu0_L1I TRANSLATION  ACCESS:          0 HIT:          0 MISS:          0 MSHR_MERGE:          0
cpu0->cpu0_L1I PREFETCH REQUESTED:          0 ISSUED:          0 USEFUL:          0 USELESS:          0
cpu0->cpu0_L1I AVERAGE MISS LATENCY: 7.264 cycles
cpu0->cpu0_L1D TOTAL        ACCESS:  649204890 HIT:  374754557 MISS:  274450333 MSHR_MERGE:   41983830
cpu0->cpu0_L1D LOAD         ACCESS:  422454914 HIT:  165885273 MISS:  256569641 MSHR_MERGE:   40282334
cpu0->cpu0_L1D RFO          ACCESS:          0 HIT:          0 MISS:          0 MSHR_MERGE:          0
cpu0->cpu0_L1D PREFETCH     ACCESS:          0 HIT:          0 MISS:          0 MSHR_MERGE:          0
cpu0->cpu0_L1D WRITE        ACCESS:  226749976 HIT:  208869284 MISS:   17880692 MSHR_MERGE:    1701496
cpu0->cpu0_L1D TRANSLATION  ACCESS:          0 HIT:          0 MISS:          0 MSHR_MERGE:          0
cpu0->cpu0_L1D PREFETCH REQUESTED:          0 ISSUED:          0 USEFUL:          0 USELESS:          0
cpu0->cpu0_L1D AVERAGE MISS LATENCY: 20.48 cycles
cpu0->cpu0_ITLB TOTAL        ACCESS:  322057572 HIT:  322057558 MISS:         14 MSHR_MERGE:         10
cpu0->cpu0_ITLB LOAD         ACCESS:  322057572 HIT:  322057558 MISS:         14 MSHR_MERGE:         10
cpu0->cpu0_ITLB RFO          ACCESS:          0 HIT:          0 MISS:          0 MSHR_MERGE:          0
cpu0->cpu0_ITLB PREFETCH     ACCESS:          0 HIT:          0 MISS:          0 MSHR_MERGE:          0
cpu0->cpu0_ITLB WRITE        ACCESS:          0 HIT:          0 MISS:          0 MSHR_MERGE:          0
cpu0->cpu0_ITLB TRANSLATION  ACCESS:          0 HIT:          0 MISS:          0 MSHR_MERGE:          0
cpu0->cpu0_ITLB PREFETCH REQUESTED:          0 ISSUED:          0 USEFUL:          0 USELESS:          0
cpu0->cpu0_ITLB AVERAGE MISS LATENCY: 1.17e+07 cycles
cpu0->cpu0_DTLB TOTAL        ACCESS:  496326044 HIT:  419685611 MISS:   76640433 MSHR_MERGE:   38325133
cpu0->cpu0_DTLB LOAD         ACCESS:  496326044 HIT:  419685611 MISS:   76640433 MSHR_MERGE:   38325133
cpu0->cpu0_DTLB RFO          ACCESS:          0 HIT:          0 MISS:          0 MSHR_MERGE:          0
cpu0->cpu0_DTLB PREFETCH     ACCESS:          0 HIT:          0 MISS:          0 MSHR_MERGE:          0
cpu0->cpu0_DTLB WRITE        ACCESS:          0 HIT:          0 MISS:          0 MSHR_MERGE:          0
cpu0->cpu0_DTLB TRANSLATION  ACCESS:          0 HIT:          0 MISS:          0 MSHR_MERGE:          0
cpu0->cpu0_DTLB PREFETCH REQUESTED:          0 ISSUED:          0 USEFUL:          0 USELESS:          0
cpu0->cpu0_DTLB AVERAGE MISS LATENCY: 118.7 cycles
cpu0->LLC TOTAL        ACCESS:   22275858 HIT:    7173051 MISS:   15102807 MSHR_MERGE:          0
cpu0->LLC LOAD         ACCESS:   20352110 HIT:    5279959 MISS:   15072151 MSHR_MERGE:          0
cpu0->LLC RFO          ACCESS:      30608 HIT:          0 MISS:      30608 MSHR_MERGE:          0
cpu0->LLC PREFETCH     ACCESS:          0 HIT:          0 MISS:          0 MSHR_MERGE:          0
cpu0->LLC WRITE        ACCESS:    1893140 HIT:    1893092 MISS:         48 MSHR_MERGE:          0
cpu0->LLC TRANSLATION  ACCESS:          0 HIT:          0 MISS:          0 MSHR_MERGE:          0
cpu0->LLC PREFETCH REQUESTED:          0 ISSUED:          0 USEFUL:          0 USELESS:          0
cpu0->LLC AVERAGE MISS LATENCY: 154.6 cycles

DRAM Statistics

Channel 0 RQ ROW_BUFFER_HIT:      31187
  ROW_BUFFER_MISS:    7520636
  AVG DBUS CONGESTED CYCLE: 9.985
Channel 0 WQ ROW_BUFFER_HIT:     291153
  ROW_BUFFER_MISS:     653020
  FULL:          0
Channel 0 REFRESHES ISSUED:     418115

Channel 1 RQ ROW_BUFFER_HIT:      31211
  ROW_BUFFER_MISS:    7520513
  AVG DBUS CONGESTED CYCLE: 9.984
Channel 1 WQ ROW_BUFFER_HIT:     290602
  ROW_BUFFER_MISS:     653572
  FULL:          0
Channel 1 REFRESHES ISSUED:     418115
