
*** ChampSim Multicore Out-of-Order Simulator ***
Warmup Instructions: 0
Simulation Instructions: 9223372036854775807
Number of CPUs: 1
Page size: 1048576

Off-chip DRAM Size: 64 GiB Channels: 2 Width: 32-bit Data Rate: 4807 MT/s
[ERROR_PAGE_MANAGER] Error latency: 2459910500 
[ERROR_PAGE_MANAGER] Random seed: 54321 (fixed for preload reproducibility)
[ERROR_PAGE_MANAGER] Cycle-based error modeling enabled
[ERROR_PAGE_MANAGER] Errors per interval: 1
[ERROR_PAGE_MANAGER] Error cycle interval: 46484161 cycles

=== ERROR PAGE STATISTICS ===
Mode: CYCLE
Error Cycle Interval: 46484161 CPU cycles
Total Error Accesses: 0
==============================
Warmup finished CPU 0 instructions: 0 cycles: 1 cumulative IPC: 0 (Simulation time: 00 hr 00 min 00 sec)
Warmup complete CPU 0 instructions: 0 cycles: 1 cumulative IPC: 0 (Simulation time: 00 hr 00 min 00 sec)
Simulation CPU 0 panic: IPC 0 < 0.01
Simulation CPU 0 panic: IPC 1e-07 < 0.01
Simulation CPU 0 panic: IPC 7e-07 < 0.01
Simulation CPU 0 panic: IPC 1.6e-06 < 0.01
[ERROR_CYCLE] Error added at CPU cycle 46484161, interval 1, pending count: 1
Simulation CPU 0 panic: IPC 0.0001073 < 0.01
[DRAM_CYCLE_ERROR] Cycle-based error applied! address=0x537c140b0 additional_latency=2459910500 cycles
Simulation CPU 0 panic: IPC 0 < 0.01
Simulation CPU 0 panic: IPC 0.000294 < 0.01
Simulation CPU 0 panic: IPC 0.0026443 < 0.01
[ERROR_CYCLE] Error added at CPU cycle 92968322, interval 2, pending count: 1
[DRAM_CYCLE_ERROR] Cycle-based error applied! address=0x5a0f39a30 additional_latency=2459910500 cycles
Simulation CPU 0 panic: IPC 0 < 0.01
Simulation CPU 0 panic: IPC 2e-07 < 0.01
Simulation CPU 0 panic: IPC 1.1e-06 < 0.01
Simulation CPU 0 panic: IPC 7e-06 < 0.01
[ERROR_CYCLE] Error added at CPU cycle 139452483, interval 3, pending count: 1
Simulation CPU 0 panic: IPC 6.2e-06 < 0.01
[DRAM_CYCLE_ERROR] Cycle-based error applied! address=0x1f422d530 additional_latency=2459910500 cycles
Simulation CPU 0 panic: IPC 5e-07 < 0.01
Simulation CPU 0 panic: IPC 1.88e-05 < 0.01
Simulation CPU 0 warning: IPC 0.046351 < 0.05
Simulation CPU 0 warning: IPC 0.037583 < 0.05
[ERROR_CYCLE] Error added at CPU cycle 185936644, interval 4, pending count: 1
[DRAM_CYCLE_ERROR] Cycle-based error applied! address=0x309f4d934 additional_latency=2459910500 cycles
Simulation CPU 0 critical: IPC 0.015406 < 0.02
Heartbeat CPU 0 instructions: 10000003 cycles: 214156307 heartbeat IPC: 0.04669 cumulative IPC: 0.04669 (Simulation time: 00 hr 19 min 18 sec)
[ERROR_CYCLE] Error added at CPU cycle 232420805, interval 5, pending count: 1
[DRAM_CYCLE_ERROR] Cycle-based error applied! address=0x863759ca4 additional_latency=2459910500 cycles
Simulation CPU 0 panic: IPC 0 < 0.01
Heartbeat CPU 0 instructions: 20000006 cycles: 261854117 heartbeat IPC: 0.2097 cumulative IPC: 0.07638 (Simulation time: 00 hr 24 min 05 sec)
[ERROR_CYCLE] Error added at CPU cycle 278904966, interval 6, pending count: 1
Simulation CPU 0 panic: IPC 2.99e-05 < 0.01
[DRAM_CYCLE_ERROR] Cycle-based error applied! address=0x9b53d6520 additional_latency=2459910500 cycles
Simulation CPU 0 panic: IPC 0 < 0.01
Simulation CPU 0 panic: IPC 0.0001586 < 0.01
[ERROR_CYCLE] Error added at CPU cycle 325389128, interval 7, pending count: 1
[DRAM_CYCLE_ERROR] Cycle-based error applied! address=0x568500000 additional_latency=2459910500 cycles
Simulation CPU 0 panic: IPC 0 < 0.01
Heartbeat CPU 0 instructions: 30000006 cycles: 339441393 heartbeat IPC: 0.1289 cumulative IPC: 0.08838 (Simulation time: 00 hr 32 min 19 sec)
[ERROR_CYCLE] Error added at CPU cycle 371873289, interval 8, pending count: 1
[DRAM_CYCLE_ERROR] Cycle-based error applied! address=0xf67901294 additional_latency=2459910500 cycles
Simulation CPU 0 panic: IPC 2e-07 < 0.01
Simulation CPU 0 panic: IPC 0.0014201 < 0.01
Simulation CPU 0 panic: IPC 3.12e-05 < 0.01
Simulation CPU 0 critical: IPC 0.017291 < 0.02
[ERROR_CYCLE] Error added at CPU cycle 418357450, interval 9, pending count: 1
[DRAM_CYCLE_ERROR] Cycle-based error applied! address=0x4d73de224 additional_latency=2459910500 cycles
Simulation CPU 0 panic: IPC 0.0011944 < 0.01
Simulation CPU 0 panic: IPC 0.0020124 < 0.01
Simulation CPU 0 panic: IPC 1.78e-05 < 0.01
Simulation CPU 0 warning: IPC 0.030353 < 0.05
Simulation CPU 0 panic: IPC 0.0046933 < 0.01
[ERROR_CYCLE] Error added at CPU cycle 464841611, interval 10, pending count: 1
[DRAM_CYCLE_ERROR] Cycle-based error applied! address=0x622abb7e4 additional_latency=2459910500 cycles
Simulation CPU 0 panic: IPC 0.0064663 < 0.01
Simulation CPU 0 panic: IPC 2.76e-05 < 0.01
[ERROR_CYCLE] Error added at CPU cycle 511325771, interval 11, pending count: 1
[DRAM_CYCLE_ERROR] Cycle-based error applied! address=0x537c45a10 additional_latency=2459910500 cycles
Simulation CPU 0 panic: IPC 0 < 0.01
Simulation CPU 0 panic: IPC 4.04e-05 < 0.01
Simulation CPU 0 warning: IPC 0.025239 < 0.05
[ERROR_CYCLE] Error added at CPU cycle 557809932, interval 12, pending count: 1
[DRAM_CYCLE_ERROR] Cycle-based error applied! address=0x45d409d04 additional_latency=2459910500 cycles
Simulation CPU 0 panic: IPC 0.000441 < 0.01
Simulation CPU 0 panic: IPC 0.00047 < 0.01
Heartbeat CPU 0 instructions: 40000008 cycles: 578239788 heartbeat IPC: 0.04188 cumulative IPC: 0.06918 (Simulation time: 00 hr 55 min 51 sec)
Simulation CPU 0 panic: IPC 4.4e-06 < 0.01
Simulation CPU 0 panic: IPC 9.1e-06 < 0.01
[ERROR_CYCLE] Error added at CPU cycle 604294093, interval 13, pending count: 1
[DRAM_CYCLE_ERROR] Cycle-based error applied! address=0xf2873b84 additional_latency=2459910500 cycles
Simulation CPU 0 panic: IPC 0 < 0.01
Simulation CPU 0 panic: IPC 2.49e-05 < 0.01
Heartbeat CPU 0 instructions: 50000009 cycles: 635473361 heartbeat IPC: 0.1747 cumulative IPC: 0.07868 (Simulation time: 01 hr 01 min 33 sec)
[ERROR_CYCLE] Error added at CPU cycle 650778254, interval 14, pending count: 1
[DRAM_CYCLE_ERROR] Cycle-based error applied! address=0x309f00bc0 additional_latency=2459910500 cycles
Heartbeat CPU 0 instructions: 60000012 cycles: 656020535 heartbeat IPC: 0.4867 cumulative IPC: 0.09146 (Simulation time: 01 hr 04 min 11 sec)
Heartbeat CPU 0 instructions: 70000016 cycles: 670018543 heartbeat IPC: 0.7144 cumulative IPC: 0.1045 (Simulation time: 01 hr 05 min 56 sec)
Heartbeat CPU 0 instructions: 80000017 cycles: 681249055 heartbeat IPC: 0.8904 cumulative IPC: 0.1174 (Simulation time: 01 hr 07 min 00 sec)
Heartbeat CPU 0 instructions: 90000020 cycles: 693137759 heartbeat IPC: 0.8411 cumulative IPC: 0.1298 (Simulation time: 01 hr 08 min 31 sec)
[ERROR_CYCLE] Error added at CPU cycle 697262415, interval 15, pending count: 1
[DRAM_CYCLE_ERROR] Cycle-based error applied! address=0x309fce9c8 additional_latency=2459910500 cycles
Heartbeat CPU 0 instructions: 100000021 cycles: 718850408 heartbeat IPC: 0.3889 cumulative IPC: 0.1391 (Simulation time: 01 hr 11 min 33 sec)
Simulation CPU 0 critical: IPC 0.014196 < 0.02
Simulation CPU 0 panic: IPC 0.0001153 < 0.01
Simulation CPU 0 panic: IPC 7.61e-05 < 0.01
[ERROR_CYCLE] Error added at CPU cycle 743746576, interval 16, pending count: 1
[DRAM_CYCLE_ERROR] Cycle-based error applied! address=0xff6b9a924 additional_latency=2459910500 cycles
Simulation CPU 0 panic: IPC 1e-07 < 0.01
Heartbeat CPU 0 instructions: 110000024 cycles: 771463623 heartbeat IPC: 0.1901 cumulative IPC: 0.1426 (Simulation time: 01 hr 16 min 56 sec)
Simulation CPU 0 warning: IPC 0.033339 < 0.05
[ERROR_CYCLE] Error added at CPU cycle 790230737, interval 17, pending count: 1
[DRAM_CYCLE_ERROR] Cycle-based error applied! address=0x612600004 additional_latency=2459910500 cycles
Simulation CPU 0 panic: IPC 0.0036114 < 0.01
Simulation CPU 0 critical: IPC 0.015581 < 0.02
Simulation CPU 0 warning: IPC 0.030834 < 0.05
Heartbeat CPU 0 instructions: 120000024 cycles: 834475583 heartbeat IPC: 0.1587 cumulative IPC: 0.1438 (Simulation time: 01 hr 23 min 17 sec)
[ERROR_CYCLE] Error added at CPU cycle 836714899, interval 18, pending count: 1
[DRAM_CYCLE_ERROR] Cycle-based error applied! address=0x787cbd2e4 additional_latency=2459910500 cycles
Heartbeat CPU 0 instructions: 130000026 cycles: 840046197 heartbeat IPC: 1.795 cumulative IPC: 0.1548 (Simulation time: 01 hr 24 min 15 sec)
Heartbeat CPU 0 instructions: 140000028 cycles: 865982698 heartbeat IPC: 0.3856 cumulative IPC: 0.1617 (Simulation time: 01 hr 27 min 12 sec)
Heartbeat CPU 0 instructions: 150000029 cycles: 880858335 heartbeat IPC: 0.6722 cumulative IPC: 0.1703 (Simulation time: 01 hr 28 min 42 sec)
[ERROR_CYCLE] Error added at CPU cycle 883199060, interval 19, pending count: 1
[DRAM_CYCLE_ERROR] Cycle-based error applied! address=0x9da65fa04 additional_latency=2459910500 cycles
Heartbeat CPU 0 instructions: 160000032 cycles: 896968116 heartbeat IPC: 0.6207 cumulative IPC: 0.1784 (Simulation time: 01 hr 30 min 29 sec)
Heartbeat CPU 0 instructions: 170000035 cycles: 913155046 heartbeat IPC: 0.6178 cumulative IPC: 0.1862 (Simulation time: 01 hr 32 min 18 sec)
Heartbeat CPU 0 instructions: 180000037 cycles: 918756491 heartbeat IPC: 1.785 cumulative IPC: 0.1959 (Simulation time: 01 hr 33 min 15 sec)
[ERROR_CYCLE] Error added at CPU cycle 929683221, interval 20, pending count: 1
[DRAM_CYCLE_ERROR] Cycle-based error applied! address=0x601f53ad4 additional_latency=2459910500 cycles
Simulation CPU 0 panic: IPC 0 < 0.01
Heartbeat CPU 0 instructions: 190000038 cycles: 945773895 heartbeat IPC: 0.3701 cumulative IPC: 0.2009 (Simulation time: 01 hr 36 min 14 sec)
Heartbeat CPU 0 instructions: 200000039 cycles: 952097658 heartbeat IPC: 1.581 cumulative IPC: 0.2101 (Simulation time: 01 hr 37 min 12 sec)
Heartbeat CPU 0 instructions: 210000039 cycles: 958469617 heartbeat IPC: 1.569 cumulative IPC: 0.2191 (Simulation time: 01 hr 38 min 11 sec)
Heartbeat CPU 0 instructions: 220000040 cycles: 964882075 heartbeat IPC: 1.559 cumulative IPC: 0.228 (Simulation time: 01 hr 39 min 01 sec)
[ERROR_CYCLE] Error added at CPU cycle 976167382, interval 21, pending count: 1
[DRAM_CYCLE_ERROR] Cycle-based error applied! address=0xdb81f044 additional_latency=2459910500 cycles
Heartbeat CPU 0 instructions: 230000041 cycles: 986719889 heartbeat IPC: 0.4579 cumulative IPC: 0.2331 (Simulation time: 01 hr 41 min 03 sec)
Heartbeat CPU 0 instructions: 240000042 cycles: 998719845 heartbeat IPC: 0.8333 cumulative IPC: 0.2403 (Simulation time: 01 hr 42 min 22 sec)
Heartbeat CPU 0 instructions: 250000042 cycles: 1004408074 heartbeat IPC: 1.758 cumulative IPC: 0.2489 (Simulation time: 01 hr 43 min 08 sec)
Heartbeat CPU 0 instructions: 260000045 cycles: 1010711633 heartbeat IPC: 1.586 cumulative IPC: 0.2572 (Simulation time: 01 hr 44 min 01 sec)
Heartbeat CPU 0 instructions: 270000046 cycles: 1016647459 heartbeat IPC: 1.685 cumulative IPC: 0.2656 (Simulation time: 01 hr 44 min 57 sec)
Heartbeat CPU 0 instructions: 280000049 cycles: 1022156599 heartbeat IPC: 1.815 cumulative IPC: 0.2739 (Simulation time: 01 hr 45 min 43 sec)
[ERROR_CYCLE] Error added at CPU cycle 1022651542, interval 22, pending count: 1
[DRAM_CYCLE_ERROR] Cycle-based error applied! address=0x521cea440 additional_latency=2459910500 cycles
Heartbeat CPU 0 instructions: 290000052 cycles: 1038115981 heartbeat IPC: 0.6266 cumulative IPC: 0.2794 (Simulation time: 01 hr 47 min 33 sec)
Heartbeat CPU 0 instructions: 300000054 cycles: 1045576990 heartbeat IPC: 1.34 cumulative IPC: 0.2869 (Simulation time: 01 hr 48 min 26 sec)
Heartbeat CPU 0 instructions: 310000054 cycles: 1056983120 heartbeat IPC: 0.8767 cumulative IPC: 0.2933 (Simulation time: 01 hr 49 min 54 sec)
Heartbeat CPU 0 instructions: 320000058 cycles: 1065497456 heartbeat IPC: 1.174 cumulative IPC: 0.3003 (Simulation time: 01 hr 51 min 05 sec)
[ERROR_CYCLE] Error added at CPU cycle 1069135703, interval 23, pending count: 1
[DRAM_CYCLE_ERROR] Cycle-based error applied! address=0x4a61c3284 additional_latency=2459910500 cycles
Heartbeat CPU 0 instructions: 330000060 cycles: 1085767959 heartbeat IPC: 0.4933 cumulative IPC: 0.3039 (Simulation time: 01 hr 53 min 21 sec)
Heartbeat CPU 0 instructions: 340000061 cycles: 1097641652 heartbeat IPC: 0.8422 cumulative IPC: 0.3098 (Simulation time: 01 hr 54 min 59 sec)
Heartbeat CPU 0 instructions: 350000062 cycles: 1113152369 heartbeat IPC: 0.6447 cumulative IPC: 0.3144 (Simulation time: 01 hr 57 min 15 sec)
[ERROR_CYCLE] Error added at CPU cycle 1115619864, interval 24, pending count: 1
[DRAM_CYCLE_ERROR] Cycle-based error applied! address=0x3343e10b8 additional_latency=2459910500 cycles
Heartbeat CPU 0 instructions: 360000064 cycles: 1133990132 heartbeat IPC: 0.4799 cumulative IPC: 0.3175 (Simulation time: 01 hr 59 min 58 sec)
Heartbeat CPU 0 instructions: 370000064 cycles: 1145569833 heartbeat IPC: 0.8636 cumulative IPC: 0.323 (Simulation time: 02 hr 01 min 21 sec)
Heartbeat CPU 0 instructions: 380000065 cycles: 1159820322 heartbeat IPC: 0.7017 cumulative IPC: 0.3276 (Simulation time: 02 hr 02 min 57 sec)
[ERROR_CYCLE] Error added at CPU cycle 1162104025, interval 25, pending count: 1
[DRAM_CYCLE_ERROR] Cycle-based error applied! address=0x896231304 additional_latency=2459910500 cycles
Heartbeat CPU 0 instructions: 390000066 cycles: 1171511940 heartbeat IPC: 0.8553 cumulative IPC: 0.3329 (Simulation time: 02 hr 04 min 23 sec)
Heartbeat CPU 0 instructions: 400000066 cycles: 1183710077 heartbeat IPC: 0.8198 cumulative IPC: 0.3379 (Simulation time: 02 hr 06 min 05 sec)
Heartbeat CPU 0 instructions: 410000068 cycles: 1197551715 heartbeat IPC: 0.7225 cumulative IPC: 0.3424 (Simulation time: 02 hr 07 min 57 sec)
[ERROR_CYCLE] Error added at CPU cycle 1208588186, interval 26, pending count: 1
[DRAM_CYCLE_ERROR] Cycle-based error applied! address=0xa2e773cc8 additional_latency=2459910500 cycles
Heartbeat CPU 0 instructions: 420000071 cycles: 1218993895 heartbeat IPC: 0.4664 cumulative IPC: 0.3445 (Simulation time: 02 hr 10 min 33 sec)
Heartbeat CPU 0 instructions: 430000073 cycles: 1232720346 heartbeat IPC: 0.7285 cumulative IPC: 0.3488 (Simulation time: 02 hr 12 min 20 sec)
Heartbeat CPU 0 instructions: 440000075 cycles: 1245891099 heartbeat IPC: 0.7593 cumulative IPC: 0.3532 (Simulation time: 02 hr 13 min 53 sec)
[ERROR_CYCLE] Error added at CPU cycle 1255072347, interval 27, pending count: 1
[DRAM_CYCLE_ERROR] Cycle-based error applied! address=0xa2ab9cf48 additional_latency=2459910500 cycles
Heartbeat CPU 0 instructions: 450000079 cycles: 1267264336 heartbeat IPC: 0.4679 cumulative IPC: 0.3551 (Simulation time: 02 hr 16 min 38 sec)
Heartbeat CPU 0 instructions: 460000080 cycles: 1282216890 heartbeat IPC: 0.6688 cumulative IPC: 0.3588 (Simulation time: 02 hr 18 min 41 sec)
[ERROR_CYCLE] Error added at CPU cycle 1301556508, interval 28, pending count: 1
[DRAM_CYCLE_ERROR] Cycle-based error applied! address=0x537c603f0 additional_latency=2459910500 cycles
Simulation CPU 0 panic: IPC 0 < 0.01
Simulation CPU 0 panic: IPC 3.72e-05 < 0.01
Heartbeat CPU 0 instructions: 470000083 cycles: 1327065408 heartbeat IPC: 0.223 cumulative IPC: 0.3542 (Simulation time: 02 hr 23 min 24 sec)
Heartbeat CPU 0 instructions: 480000085 cycles: 1333030615 heartbeat IPC: 1.676 cumulative IPC: 0.3601 (Simulation time: 02 hr 24 min 14 sec)
Heartbeat CPU 0 instructions: 490000085 cycles: 1340116867 heartbeat IPC: 1.411 cumulative IPC: 0.3656 (Simulation time: 02 hr 25 min 23 sec)
[ERROR_CYCLE] Error added at CPU cycle 1348040670, interval 29, pending count: 1
[DRAM_CYCLE_ERROR] Cycle-based error applied! address=0xf81e36a40 additional_latency=2459910500 cycles
Heartbeat CPU 0 instructions: 500000085 cycles: 1358713895 heartbeat IPC: 0.5377 cumulative IPC: 0.368 (Simulation time: 02 hr 27 min 44 sec)
Heartbeat CPU 0 instructions: 510000085 cycles: 1369580637 heartbeat IPC: 0.9202 cumulative IPC: 0.3724 (Simulation time: 02 hr 29 min 17 sec)
Heartbeat CPU 0 instructions: 520000087 cycles: 1375623511 heartbeat IPC: 1.655 cumulative IPC: 0.378 (Simulation time: 02 hr 30 min 19 sec)
Heartbeat CPU 0 instructions: 530000091 cycles: 1382764169 heartbeat IPC: 1.4 cumulative IPC: 0.3833 (Simulation time: 02 hr 31 min 29 sec)
Heartbeat CPU 0 instructions: 540000092 cycles: 1392265729 heartbeat IPC: 1.052 cumulative IPC: 0.3879 (Simulation time: 02 hr 32 min 50 sec)
[ERROR_CYCLE] Error added at CPU cycle 1394524831, interval 30, pending count: 1
[DRAM_CYCLE_ERROR] Cycle-based error applied! address=0x6c3523880 additional_latency=2459910500 cycles
Heartbeat CPU 0 instructions: 550000092 cycles: 1413329192 heartbeat IPC: 0.4748 cumulative IPC: 0.3892 (Simulation time: 02 hr 35 min 22 sec)
Heartbeat CPU 0 instructions: 560000093 cycles: 1419382933 heartbeat IPC: 1.652 cumulative IPC: 0.3945 (Simulation time: 02 hr 36 min 24 sec)
Heartbeat CPU 0 instructions: 570000093 cycles: 1426570296 heartbeat IPC: 1.391 cumulative IPC: 0.3996 (Simulation time: 02 hr 37 min 20 sec)
Heartbeat CPU 0 instructions: 580000093 cycles: 1436150013 heartbeat IPC: 1.044 cumulative IPC: 0.4039 (Simulation time: 02 hr 38 min 22 sec)
[ERROR_CYCLE] Error added at CPU cycle 1441008992, interval 31, pending count: 1
[DRAM_CYCLE_ERROR] Cycle-based error applied! address=0x2d4908900 additional_latency=2459910500 cycles
Heartbeat CPU 0 instructions: 590000093 cycles: 1456914173 heartbeat IPC: 0.4816 cumulative IPC: 0.405 (Simulation time: 02 hr 40 min 39 sec)
Heartbeat CPU 0 instructions: 600000094 cycles: 1463049354 heartbeat IPC: 1.63 cumulative IPC: 0.4101 (Simulation time: 02 hr 41 min 33 sec)
Heartbeat CPU 0 instructions: 610000094 cycles: 1470327857 heartbeat IPC: 1.374 cumulative IPC: 0.4149 (Simulation time: 02 hr 42 min 29 sec)
Heartbeat CPU 0 instructions: 620000094 cycles: 1480192039 heartbeat IPC: 1.014 cumulative IPC: 0.4189 (Simulation time: 02 hr 43 min 33 sec)
[ERROR_CYCLE] Error added at CPU cycle 1487493153, interval 32, pending count: 1
[DRAM_CYCLE_ERROR] Cycle-based error applied! address=0x9da1e7e84 additional_latency=2459910500 cycles
Heartbeat CPU 0 instructions: 630000097 cycles: 1501035323 heartbeat IPC: 0.4798 cumulative IPC: 0.4197 (Simulation time: 02 hr 45 min 42 sec)
Heartbeat CPU 0 instructions: 640000097 cycles: 1507206215 heartbeat IPC: 1.621 cumulative IPC: 0.4246 (Simulation time: 02 hr 46 min 43 sec)
Heartbeat CPU 0 instructions: 650000097 cycles: 1514524667 heartbeat IPC: 1.366 cumulative IPC: 0.4292 (Simulation time: 02 hr 47 min 55 sec)
Heartbeat CPU 0 instructions: 660000098 cycles: 1524437957 heartbeat IPC: 1.009 cumulative IPC: 0.4329 (Simulation time: 02 hr 49 min 18 sec)
[ERROR_CYCLE] Error added at CPU cycle 1533977313, interval 33, pending count: 1
[DRAM_CYCLE_ERROR] Cycle-based error applied! address=0x89621d040 additional_latency=2459910500 cycles
Heartbeat CPU 0 instructions: 670000098 cycles: 1545921099 heartbeat IPC: 0.4655 cumulative IPC: 0.4334 (Simulation time: 02 hr 51 min 46 sec)
Heartbeat CPU 0 instructions: 680000100 cycles: 1552248326 heartbeat IPC: 1.58 cumulative IPC: 0.4381 (Simulation time: 02 hr 52 min 42 sec)
Heartbeat CPU 0 instructions: 690000101 cycles: 1558616403 heartbeat IPC: 1.57 cumulative IPC: 0.4427 (Simulation time: 02 hr 53 min 45 sec)
Heartbeat CPU 0 instructions: 700000102 cycles: 1564974977 heartbeat IPC: 1.573 cumulative IPC: 0.4473 (Simulation time: 02 hr 54 min 49 sec)
Simulation CPU 0 panic: IPC 0.0048723 < 0.01
[ERROR_CYCLE] Error added at CPU cycle 1580461474, interval 34, pending count: 1
[DRAM_CYCLE_ERROR] Cycle-based error applied! address=0xb17143234 additional_latency=2459910500 cycles
Simulation CPU 0 panic: IPC 0.0010563 < 0.01
Simulation CPU 0 warning: IPC 0.03866 < 0.05
Simulation CPU 0 panic: IPC 0.0041777 < 0.01
Heartbeat CPU 0 instructions: 710000102 cycles: 1618992198 heartbeat IPC: 0.1851 cumulative IPC: 0.4385 (Simulation time: 03 hr 00 min 29 sec)
Heartbeat CPU 0 instructions: 720000103 cycles: 1625970480 heartbeat IPC: 1.433 cumulative IPC: 0.4428 (Simulation time: 03 hr 01 min 40 sec)
[ERROR_CYCLE] Error added at CPU cycle 1626945635, interval 35, pending count: 1
[DRAM_CYCLE_ERROR] Cycle-based error applied! address=0xa572377c0 additional_latency=2459910500 cycles
Heartbeat CPU 0 instructions: 730000104 cycles: 1652004714 heartbeat IPC: 0.3841 cumulative IPC: 0.4419 (Simulation time: 03 hr 04 min 58 sec)
Simulation CPU 0 critical: IPC 0.014045 < 0.02
[ERROR_CYCLE] Error added at CPU cycle 1673429796, interval 36, pending count: 1
[DRAM_CYCLE_ERROR] Cycle-based error applied! address=0x8372b8754 additional_latency=2459910500 cycles
Simulation CPU 0 panic: IPC 0 < 0.01
Heartbeat CPU 0 instructions: 740000105 cycles: 1688080287 heartbeat IPC: 0.2772 cumulative IPC: 0.4384 (Simulation time: 03 hr 08 min 17 sec)
Heartbeat CPU 0 instructions: 750000105 cycles: 1695768721 heartbeat IPC: 1.301 cumulative IPC: 0.4423 (Simulation time: 03 hr 09 min 10 sec)
Heartbeat CPU 0 instructions: 760000105 cycles: 1703556293 heartbeat IPC: 1.284 cumulative IPC: 0.4461 (Simulation time: 03 hr 10 min 09 sec)
Heartbeat CPU 0 instructions: 770000105 cycles: 1711320908 heartbeat IPC: 1.288 cumulative IPC: 0.4499 (Simulation time: 03 hr 11 min 06 sec)
Heartbeat CPU 0 instructions: 780000105 cycles: 1719093949 heartbeat IPC: 1.286 cumulative IPC: 0.4537 (Simulation time: 03 hr 12 min 06 sec)
[ERROR_CYCLE] Error added at CPU cycle 1719913957, interval 37, pending count: 1
[DRAM_CYCLE_ERROR] Cycle-based error applied! address=0x3ebb795b8 additional_latency=2459910500 cycles
Heartbeat CPU 0 instructions: 790000105 cycles: 1736808021 heartbeat IPC: 0.5645 cumulative IPC: 0.4549 (Simulation time: 03 hr 14 min 00 sec)
Heartbeat CPU 0 instructions: 800000107 cycles: 1744559157 heartbeat IPC: 1.29 cumulative IPC: 0.4586 (Simulation time: 03 hr 15 min 00 sec)
Heartbeat CPU 0 instructions: 810000108 cycles: 1752380214 heartbeat IPC: 1.279 cumulative IPC: 0.4622 (Simulation time: 03 hr 15 min 59 sec)
Heartbeat CPU 0 instructions: 820000108 cycles: 1760302553 heartbeat IPC: 1.262 cumulative IPC: 0.4658 (Simulation time: 03 hr 16 min 59 sec)
[ERROR_CYCLE] Error added at CPU cycle 1766398118, interval 38, pending count: 1
[DRAM_CYCLE_ERROR] Cycle-based error applied! address=0x3ebb79f28 additional_latency=2459910500 cycles
Heartbeat CPU 0 instructions: 830000109 cycles: 1777794853 heartbeat IPC: 0.5717 cumulative IPC: 0.4669 (Simulation time: 03 hr 18 min 51 sec)
Heartbeat CPU 0 instructions: 840000109 cycles: 1785851499 heartbeat IPC: 1.241 cumulative IPC: 0.4704 (Simulation time: 03 hr 19 min 54 sec)
Heartbeat CPU 0 instructions: 850000111 cycles: 1793575266 heartbeat IPC: 1.295 cumulative IPC: 0.4739 (Simulation time: 03 hr 20 min 47 sec)
Heartbeat CPU 0 instructions: 860000115 cycles: 1801640789 heartbeat IPC: 1.24 cumulative IPC: 0.4773 (Simulation time: 03 hr 21 min 38 sec)
Heartbeat CPU 0 instructions: 870000115 cycles: 1809409058 heartbeat IPC: 1.287 cumulative IPC: 0.4808 (Simulation time: 03 hr 22 min 23 sec)
[ERROR_CYCLE] Error added at CPU cycle 1812882279, interval 39, pending count: 1
[DRAM_CYCLE_ERROR] Cycle-based error applied! address=0xaab56de28 additional_latency=2459910500 cycles
Heartbeat CPU 0 instructions: 880000118 cycles: 1827226176 heartbeat IPC: 0.5613 cumulative IPC: 0.4816 (Simulation time: 03 hr 24 min 31 sec)
Heartbeat CPU 0 instructions: 890000118 cycles: 1835270571 heartbeat IPC: 1.243 cumulative IPC: 0.4849 (Simulation time: 03 hr 25 min 34 sec)
Heartbeat CPU 0 instructions: 900000118 cycles: 1843004177 heartbeat IPC: 1.293 cumulative IPC: 0.4883 (Simulation time: 03 hr 26 min 35 sec)
Heartbeat CPU 0 instructions: 910000118 cycles: 1851335187 heartbeat IPC: 1.2 cumulative IPC: 0.4915 (Simulation time: 03 hr 27 min 39 sec)
Heartbeat CPU 0 instructions: 920000118 cycles: 1859245664 heartbeat IPC: 1.264 cumulative IPC: 0.4948 (Simulation time: 03 hr 28 min 30 sec)
[ERROR_CYCLE] Error added at CPU cycle 1859366441, interval 40, pending count: 1
[DRAM_CYCLE_ERROR] Cycle-based error applied! address=0x3ebb7b03c additional_latency=2459910500 cycles
Heartbeat CPU 0 instructions: 930000121 cycles: 1877065243 heartbeat IPC: 0.5612 cumulative IPC: 0.4955 (Simulation time: 03 hr 30 min 06 sec)
Heartbeat CPU 0 instructions: 940000124 cycles: 1885134742 heartbeat IPC: 1.239 cumulative IPC: 0.4986 (Simulation time: 03 hr 31 min 03 sec)
Heartbeat CPU 0 instructions: 950000124 cycles: 1892974432 heartbeat IPC: 1.276 cumulative IPC: 0.5019 (Simulation time: 03 hr 31 min 54 sec)
Heartbeat CPU 0 instructions: 960000124 cycles: 1901123671 heartbeat IPC: 1.227 cumulative IPC: 0.505 (Simulation time: 03 hr 32 min 51 sec)
[ERROR_CYCLE] Error added at CPU cycle 1905850602, interval 41, pending count: 1
[DRAM_CYCLE_ERROR] Cycle-based error applied! address=0xdb8d1e68 additional_latency=2459910500 cycles
Heartbeat CPU 0 instructions: 970000124 cycles: 1918765570 heartbeat IPC: 0.5668 cumulative IPC: 0.5055 (Simulation time: 03 hr 34 min 40 sec)
Heartbeat CPU 0 instructions: 980000124 cycles: 1927007373 heartbeat IPC: 1.213 cumulative IPC: 0.5086 (Simulation time: 03 hr 35 min 39 sec)
Heartbeat CPU 0 instructions: 990000125 cycles: 1934739563 heartbeat IPC: 1.293 cumulative IPC: 0.5117 (Simulation time: 03 hr 36 min 31 sec)
Heartbeat CPU 0 instructions: 1000000128 cycles: 1942973662 heartbeat IPC: 1.214 cumulative IPC: 0.5147 (Simulation time: 03 hr 37 min 19 sec)
Heartbeat CPU 0 instructions: 1010000128 cycles: 1950656217 heartbeat IPC: 1.302 cumulative IPC: 0.5178 (Simulation time: 03 hr 38 min 09 sec)
[ERROR_CYCLE] Error added at CPU cycle 1952334763, interval 42, pending count: 1
[DRAM_CYCLE_ERROR] Cycle-based error applied! address=0xdb8e1fa8 additional_latency=2459910500 cycles
Heartbeat CPU 0 instructions: 1020000128 cycles: 1968625376 heartbeat IPC: 0.5565 cumulative IPC: 0.5181 (Simulation time: 03 hr 39 min 58 sec)
Heartbeat CPU 0 instructions: 1030000128 cycles: 1976502365 heartbeat IPC: 1.27 cumulative IPC: 0.5211 (Simulation time: 03 hr 41 min 00 sec)
Heartbeat CPU 0 instructions: 1040000128 cycles: 1984687156 heartbeat IPC: 1.222 cumulative IPC: 0.524 (Simulation time: 03 hr 42 min 03 sec)
Heartbeat CPU 0 instructions: 1050000129 cycles: 1992668857 heartbeat IPC: 1.253 cumulative IPC: 0.5269 (Simulation time: 03 hr 43 min 05 sec)
[ERROR_CYCLE] Error added at CPU cycle 1998818924, interval 43, pending count: 1
[DRAM_CYCLE_ERROR] Cycle-based error applied! address=0xd0d035940 additional_latency=2459910500 cycles
Heartbeat CPU 0 instructions: 1060000133 cycles: 2010242336 heartbeat IPC: 0.569 cumulative IPC: 0.5273 (Simulation time: 03 hr 45 min 02 sec)
Heartbeat CPU 0 instructions: 1070000136 cycles: 2018378415 heartbeat IPC: 1.229 cumulative IPC: 0.5301 (Simulation time: 03 hr 46 min 05 sec)
Heartbeat CPU 0 instructions: 1080000139 cycles: 2026296922 heartbeat IPC: 1.263 cumulative IPC: 0.533 (Simulation time: 03 hr 47 min 07 sec)
Heartbeat CPU 0 instructions: 1090000139 cycles: 2034249150 heartbeat IPC: 1.258 cumulative IPC: 0.5358 (Simulation time: 03 hr 48 min 01 sec)
Heartbeat CPU 0 instructions: 1100000139 cycles: 2042047430 heartbeat IPC: 1.282 cumulative IPC: 0.5387 (Simulation time: 03 hr 48 min 44 sec)
[ERROR_CYCLE] Error added at CPU cycle 2045303084, interval 44, pending count: 1
[DRAM_CYCLE_ERROR] Cycle-based error applied! address=0x3ebb7d4a8 additional_latency=2459910500 cycles
Heartbeat CPU 0 instructions: 1110000140 cycles: 2059827821 heartbeat IPC: 0.5624 cumulative IPC: 0.5389 (Simulation time: 03 hr 50 min 08 sec)
Heartbeat CPU 0 instructions: 1120000140 cycles: 2067464270 heartbeat IPC: 1.31 cumulative IPC: 0.5417 (Simulation time: 03 hr 50 min 51 sec)
Heartbeat CPU 0 instructions: 1130000142 cycles: 2075846664 heartbeat IPC: 1.193 cumulative IPC: 0.5444 (Simulation time: 03 hr 51 min 44 sec)
Heartbeat CPU 0 instructions: 1140000142 cycles: 2083655407 heartbeat IPC: 1.281 cumulative IPC: 0.5471 (Simulation time: 03 hr 52 min 40 sec)
Heartbeat CPU 0 instructions: 1150000143 cycles: 2090005349 heartbeat IPC: 1.575 cumulative IPC: 0.5502 (Simulation time: 03 hr 53 min 35 sec)
[ERROR_CYCLE] Error added at CPU cycle 2091787245, interval 45, pending count: 1
[DRAM_CYCLE_ERROR] Cycle-based error applied! address=0x896273d80 additional_latency=2459910500 cycles
Heartbeat CPU 0 instructions: 1160000147 cycles: 2106235133 heartbeat IPC: 0.6162 cumulative IPC: 0.5507 (Simulation time: 03 hr 55 min 37 sec)
Simulation CPU 0 warning: IPC 0.045446 < 0.05
[ERROR_CYCLE] Error added at CPU cycle 2138271406, interval 46, pending count: 1
[DRAM_CYCLE_ERROR] Cycle-based error applied! address=0x9eed6bc78 additional_latency=2459910500 cycles
Simulation CPU 0 panic: IPC 0.0001115 < 0.01
Simulation CPU 0 warning: IPC 0.038593 < 0.05
Simulation CPU 0 panic: IPC 7.73e-05 < 0.01
Simulation CPU 0 panic: IPC 8.03e-05 < 0.01
Simulation CPU 0 panic: IPC 1.12e-05 < 0.01
[ERROR_CYCLE] Error added at CPU cycle 2184755567, interval 47, pending count: 1
[DRAM_CYCLE_ERROR] Cycle-based error applied! address=0xf483278c0 additional_latency=2459910500 cycles
Simulation CPU 0 panic: IPC 0 < 0.01
Simulation CPU 0 panic: IPC 0.0044818 < 0.01
Heartbeat CPU 0 instructions: 1170000151 cycles: 2209599680 heartbeat IPC: 0.09675 cumulative IPC: 0.5295 (Simulation time: 04 hr 04 min 37 sec)
Heartbeat CPU 0 instructions: 1180000153 cycles: 2224922211 heartbeat IPC: 0.6526 cumulative IPC: 0.5304 (Simulation time: 04 hr 05 min 59 sec)
[ERROR_CYCLE] Error added at CPU cycle 2231239728, interval 48, pending count: 1
[DRAM_CYCLE_ERROR] Cycle-based error applied! address=0x537c767b0 additional_latency=2459910500 cycles
Simulation CPU 0 panic: IPC 0 < 0.01
Heartbeat CPU 0 instructions: 1190000154 cycles: 2253242224 heartbeat IPC: 0.3531 cumulative IPC: 0.5281 (Simulation time: 04 hr 09 min 01 sec)
Heartbeat CPU 0 instructions: 1200000154 cycles: 2260333196 heartbeat IPC: 1.41 cumulative IPC: 0.5309 (Simulation time: 04 hr 10 min 11 sec)
Heartbeat CPU 0 instructions: 1210000157 cycles: 2267391724 heartbeat IPC: 1.417 cumulative IPC: 0.5337 (Simulation time: 04 hr 11 min 22 sec)
Heartbeat CPU 0 instructions: 1220000159 cycles: 2274443080 heartbeat IPC: 1.418 cumulative IPC: 0.5364 (Simulation time: 04 hr 12 min 16 sec)
[ERROR_CYCLE] Error added at CPU cycle 2277723889, interval 49, pending count: 1
[DRAM_CYCLE_ERROR] Cycle-based error applied! address=0xa572f31c0 additional_latency=2459910500 cycles
Simulation CPU 0 warning: IPC 0.034383 < 0.05
[ERROR_CYCLE] Error added at CPU cycle 2324208050, interval 50, pending count: 1
[DRAM_CYCLE_ERROR] Cycle-based error applied! address=0x5b1a867e4 additional_latency=2459910500 cycles
Simulation CPU 0 panic: IPC 0 < 0.01
Heartbeat CPU 0 instructions: 1230000160 cycles: 2337272414 heartbeat IPC: 0.1592 cumulative IPC: 0.5263 (Simulation time: 04 hr 18 min 49 sec)
Simulation CPU 0 critical: IPC 0.015532 < 0.02
Simulation CPU 0 warning: IPC 0.043459 < 0.05
[ERROR_CYCLE] Error added at CPU cycle 2370692212, interval 51, pending count: 1
[DRAM_CYCLE_ERROR] Cycle-based error applied! address=0x537c7f7c8 additional_latency=2459910500 cycles
Simulation CPU 0 panic: IPC 0 < 0.01
[ERROR_CYCLE] Error added at CPU cycle 2417176373, interval 52, pending count: 1
[DRAM_CYCLE_ERROR] Cycle-based error applied! address=0x537c82280 additional_latency=2459910500 cycles
Simulation CPU 0 warning: IPC 0.036379 < 0.05
Simulation CPU 0 panic: IPC 0 < 0.01
Heartbeat CPU 0 instructions: 1240000163 cycles: 2432555031 heartbeat IPC: 0.105 cumulative IPC: 0.5098 (Simulation time: 04 hr 28 min 45 sec)
Simulation CPU 0 panic: IPC 0.0051742 < 0.01
Simulation CPU 0 panic: IPC 0.0002372 < 0.01
[ERROR_CYCLE] Error added at CPU cycle 2463660534, interval 53, pending count: 1
[DRAM_CYCLE_ERROR] Cycle-based error applied! address=0xd0ba3aac0 additional_latency=2459910500 cycles
Heartbeat CPU 0 instructions: 1250000165 cycles: 2477909188 heartbeat IPC: 0.2205 cumulative IPC: 0.5045 (Simulation time: 04 hr 32 min 16 sec)
Heartbeat CPU 0 instructions: 1260000165 cycles: 2485663867 heartbeat IPC: 1.29 cumulative IPC: 0.5069 (Simulation time: 04 hr 33 min 15 sec)
Heartbeat CPU 0 instructions: 1270000168 cycles: 2493418468 heartbeat IPC: 1.29 cumulative IPC: 0.5093 (Simulation time: 04 hr 34 min 08 sec)
Heartbeat CPU 0 instructions: 1280000169 cycles: 2501170853 heartbeat IPC: 1.29 cumulative IPC: 0.5118 (Simulation time: 04 hr 34 min 49 sec)
Heartbeat CPU 0 instructions: 1290000171 cycles: 2508918779 heartbeat IPC: 1.291 cumulative IPC: 0.5142 (Simulation time: 04 hr 35 min 50 sec)
[ERROR_CYCLE] Error added at CPU cycle 2510144695, interval 54, pending count: 1
[DRAM_CYCLE_ERROR] Cycle-based error applied! address=0xfbca4a1c0 additional_latency=2459910500 cycles
Heartbeat CPU 0 instructions: 1300000171 cycles: 2521025993 heartbeat IPC: 0.826 cumulative IPC: 0.5157 (Simulation time: 04 hr 37 min 06 sec)
Heartbeat CPU 0 instructions: 1310000175 cycles: 2528759398 heartbeat IPC: 1.293 cumulative IPC: 0.518 (Simulation time: 04 hr 38 min 06 sec)
Heartbeat CPU 0 instructions: 1320000176 cycles: 2536477593 heartbeat IPC: 1.296 cumulative IPC: 0.5204 (Simulation time: 04 hr 38 min 50 sec)
Heartbeat CPU 0 instructions: 1330000180 cycles: 2544183751 heartbeat IPC: 1.298 cumulative IPC: 0.5228 (Simulation time: 04 hr 39 min 36 sec)
Heartbeat CPU 0 instructions: 1340000180 cycles: 2551878735 heartbeat IPC: 1.3 cumulative IPC: 0.5251 (Simulation time: 04 hr 40 min 19 sec)
[ERROR_CYCLE] Error added at CPU cycle 2556628855, interval 55, pending count: 1
[DRAM_CYCLE_ERROR] Cycle-based error applied! address=0x9181c9780 additional_latency=2459910500 cycles
Heartbeat CPU 0 instructions: 1350000181 cycles: 2569396302 heartbeat IPC: 0.5709 cumulative IPC: 0.5254 (Simulation time: 04 hr 42 min 13 sec)
Heartbeat CPU 0 instructions: 1360000182 cycles: 2577059107 heartbeat IPC: 1.305 cumulative IPC: 0.5277 (Simulation time: 04 hr 43 min 14 sec)
Heartbeat CPU 0 instructions: 1370000185 cycles: 2584734124 heartbeat IPC: 1.303 cumulative IPC: 0.53 (Simulation time: 04 hr 44 min 14 sec)
Heartbeat CPU 0 instructions: 1380000189 cycles: 2592401356 heartbeat IPC: 1.304 cumulative IPC: 0.5323 (Simulation time: 04 hr 45 min 10 sec)
Heartbeat CPU 0 instructions: 1390000190 cycles: 2600072094 heartbeat IPC: 1.304 cumulative IPC: 0.5346 (Simulation time: 04 hr 45 min 58 sec)
[ERROR_CYCLE] Error added at CPU cycle 2603113016, interval 56, pending count: 1
[DRAM_CYCLE_ERROR] Cycle-based error applied! address=0xd0ba3bf00 additional_latency=2459910500 cycles
Heartbeat CPU 0 instructions: 1400000190 cycles: 2617584661 heartbeat IPC: 0.571 cumulative IPC: 0.5348 (Simulation time: 04 hr 47 min 48 sec)
Heartbeat CPU 0 instructions: 1410000193 cycles: 2625259251 heartbeat IPC: 1.303 cumulative IPC: 0.5371 (Simulation time: 04 hr 48 min 44 sec)
Heartbeat CPU 0 instructions: 1420000194 cycles: 2632946368 heartbeat IPC: 1.301 cumulative IPC: 0.5393 (Simulation time: 04 hr 49 min 44 sec)
Heartbeat CPU 0 instructions: 1430000194 cycles: 2640635568 heartbeat IPC: 1.301 cumulative IPC: 0.5415 (Simulation time: 04 hr 50 min 43 sec)
Heartbeat CPU 0 instructions: 1440000194 cycles: 2648323909 heartbeat IPC: 1.301 cumulative IPC: 0.5437 (Simulation time: 04 hr 51 min 42 sec)
[ERROR_CYCLE] Error added at CPU cycle 2649597177, interval 57, pending count: 1
[DRAM_CYCLE_ERROR] Cycle-based error applied! address=0xd0ba3c580 additional_latency=2459910500 cycles
Heartbeat CPU 0 instructions: 1450000194 cycles: 2665839646 heartbeat IPC: 0.5709 cumulative IPC: 0.5439 (Simulation time: 04 hr 53 min 33 sec)
Heartbeat CPU 0 instructions: 1460000194 cycles: 2673520497 heartbeat IPC: 1.302 cumulative IPC: 0.5461 (Simulation time: 04 hr 54 min 27 sec)
Heartbeat CPU 0 instructions: 1470000194 cycles: 2681204678 heartbeat IPC: 1.301 cumulative IPC: 0.5483 (Simulation time: 04 hr 55 min 18 sec)
Heartbeat CPU 0 instructions: 1480000194 cycles: 2688891596 heartbeat IPC: 1.301 cumulative IPC: 0.5504 (Simulation time: 04 hr 56 min 08 sec)
[ERROR_CYCLE] Error added at CPU cycle 2696081338, interval 58, pending count: 1
[DRAM_CYCLE_ERROR] Cycle-based error applied! address=0xd0ba3cc00 additional_latency=2459910500 cycles
Heartbeat CPU 0 instructions: 1490000195 cycles: 2706417413 heartbeat IPC: 0.5706 cumulative IPC: 0.5505 (Simulation time: 04 hr 57 min 32 sec)
Heartbeat CPU 0 instructions: 1500000196 cycles: 2714106994 heartbeat IPC: 1.3 cumulative IPC: 0.5527 (Simulation time: 04 hr 58 min 13 sec)
Heartbeat CPU 0 instructions: 1510000196 cycles: 2721796220 heartbeat IPC: 1.301 cumulative IPC: 0.5548 (Simulation time: 04 hr 58 min 57 sec)
Heartbeat CPU 0 instructions: 1520000196 cycles: 2729475213 heartbeat IPC: 1.302 cumulative IPC: 0.5569 (Simulation time: 04 hr 59 min 47 sec)
Heartbeat CPU 0 instructions: 1530000196 cycles: 2737160810 heartbeat IPC: 1.301 cumulative IPC: 0.559 (Simulation time: 05 hr 00 min 31 sec)
[ERROR_CYCLE] Error added at CPU cycle 2742565499, interval 59, pending count: 1
[DRAM_CYCLE_ERROR] Cycle-based error applied! address=0xfbca4c300 additional_latency=2459910500 cycles
Heartbeat CPU 0 instructions: 1540000197 cycles: 2744838783 heartbeat IPC: 1.302 cumulative IPC: 0.5611 (Simulation time: 05 hr 01 min 14 sec)
Heartbeat CPU 0 instructions: 1550000197 cycles: 2759695559 heartbeat IPC: 0.6731 cumulative IPC: 0.5617 (Simulation time: 05 hr 02 min 59 sec)
Heartbeat CPU 0 instructions: 1560000199 cycles: 2767330854 heartbeat IPC: 1.31 cumulative IPC: 0.5637 (Simulation time: 05 hr 03 min 58 sec)
Heartbeat CPU 0 instructions: 1570000199 cycles: 2774967883 heartbeat IPC: 1.309 cumulative IPC: 0.5658 (Simulation time: 05 hr 04 min 57 sec)
Heartbeat CPU 0 instructions: 1580000199 cycles: 2782619138 heartbeat IPC: 1.307 cumulative IPC: 0.5678 (Simulation time: 05 hr 05 min 56 sec)
[ERROR_CYCLE] Error added at CPU cycle 2789049660, interval 60, pending count: 1
[DRAM_CYCLE_ERROR] Cycle-based error applied! address=0x9181b0484 additional_latency=2459910500 cycles
Heartbeat CPU 0 instructions: 1590000200 cycles: 2800095285 heartbeat IPC: 0.5722 cumulative IPC: 0.5678 (Simulation time: 05 hr 08 min 01 sec)
Heartbeat CPU 0 instructions: 1600000200 cycles: 2807737929 heartbeat IPC: 1.308 cumulative IPC: 0.5699 (Simulation time: 05 hr 09 min 00 sec)
Heartbeat CPU 0 instructions: 1610000200 cycles: 2815384815 heartbeat IPC: 1.308 cumulative IPC: 0.5719 (Simulation time: 05 hr 09 min 57 sec)
Heartbeat CPU 0 instructions: 1620000200 cycles: 2823022985 heartbeat IPC: 1.309 cumulative IPC: 0.5739 (Simulation time: 05 hr 10 min 56 sec)
Heartbeat CPU 0 instructions: 1630000202 cycles: 2830671582 heartbeat IPC: 1.307 cumulative IPC: 0.5758 (Simulation time: 05 hr 11 min 55 sec)
[ERROR_CYCLE] Error added at CPU cycle 2835533821, interval 61, pending count: 1
[DRAM_CYCLE_ERROR] Cycle-based error applied! address=0xfbca4d080 additional_latency=2459910500 cycles
Heartbeat CPU 0 instructions: 1640000206 cycles: 2838320135 heartbeat IPC: 1.307 cumulative IPC: 0.5778 (Simulation time: 05 hr 12 min 46 sec)
Heartbeat CPU 0 instructions: 1650000206 cycles: 2845972951 heartbeat IPC: 1.307 cumulative IPC: 0.5798 (Simulation time: 05 hr 13 min 46 sec)
Heartbeat CPU 0 instructions: 1660000210 cycles: 2853636597 heartbeat IPC: 1.305 cumulative IPC: 0.5817 (Simulation time: 05 hr 14 min 45 sec)
Heartbeat CPU 0 instructions: 1670000210 cycles: 2861306007 heartbeat IPC: 1.304 cumulative IPC: 0.5836 (Simulation time: 05 hr 15 min 37 sec)
Heartbeat CPU 0 instructions: 1680000210 cycles: 2868983521 heartbeat IPC: 1.303 cumulative IPC: 0.5856 (Simulation time: 05 hr 16 min 34 sec)
Heartbeat CPU 0 instructions: 1690000210 cycles: 2876668191 heartbeat IPC: 1.301 cumulative IPC: 0.5875 (Simulation time: 05 hr 17 min 25 sec)
[ERROR_CYCLE] Error added at CPU cycle 2882017983, interval 62, pending count: 1
[DRAM_CYCLE_ERROR] Cycle-based error applied! address=0xfbca4d894 additional_latency=2459910500 cycles
Heartbeat CPU 0 instructions: 1700000211 cycles: 2884345657 heartbeat IPC: 1.303 cumulative IPC: 0.5894 (Simulation time: 05 hr 18 min 25 sec)
Heartbeat CPU 0 instructions: 1710000214 cycles: 2894439102 heartbeat IPC: 0.9907 cumulative IPC: 0.5908 (Simulation time: 05 hr 19 min 40 sec)
Heartbeat CPU 0 instructions: 1720000215 cycles: 2902118926 heartbeat IPC: 1.302 cumulative IPC: 0.5927 (Simulation time: 05 hr 20 min 40 sec)
Heartbeat CPU 0 instructions: 1730000215 cycles: 2909797692 heartbeat IPC: 1.302 cumulative IPC: 0.5945 (Simulation time: 05 hr 21 min 37 sec)
Heartbeat CPU 0 instructions: 1740000215 cycles: 2917475759 heartbeat IPC: 1.302 cumulative IPC: 0.5964 (Simulation time: 05 hr 22 min 30 sec)
Heartbeat CPU 0 instructions: 1750000216 cycles: 2925152827 heartbeat IPC: 1.303 cumulative IPC: 0.5983 (Simulation time: 05 hr 23 min 20 sec)
[ERROR_CYCLE] Error added at CPU cycle 2928502144, interval 63, pending count: 1
[DRAM_CYCLE_ERROR] Cycle-based error applied! address=0xd0ba3ef80 additional_latency=2459910500 cycles
Heartbeat CPU 0 instructions: 1760000220 cycles: 2942667323 heartbeat IPC: 0.571 cumulative IPC: 0.5981 (Simulation time: 05 hr 25 min 12 sec)
Heartbeat CPU 0 instructions: 1770000220 cycles: 2950350516 heartbeat IPC: 1.302 cumulative IPC: 0.5999 (Simulation time: 05 hr 26 min 11 sec)
Heartbeat CPU 0 instructions: 1780000220 cycles: 2958029533 heartbeat IPC: 1.302 cumulative IPC: 0.6018 (Simulation time: 05 hr 27 min 10 sec)
Heartbeat CPU 0 instructions: 1790000221 cycles: 2965718761 heartbeat IPC: 1.301 cumulative IPC: 0.6036 (Simulation time: 05 hr 28 min 08 sec)
Heartbeat CPU 0 instructions: 1800000221 cycles: 2973395452 heartbeat IPC: 1.303 cumulative IPC: 0.6054 (Simulation time: 05 hr 29 min 07 sec)
[ERROR_CYCLE] Error added at CPU cycle 2974986305, interval 64, pending count: 1
[DRAM_CYCLE_ERROR] Cycle-based error applied! address=0xfbca4e680 additional_latency=2459910500 cycles
Heartbeat CPU 0 instructions: 1810000221 cycles: 2988968263 heartbeat IPC: 0.6421 cumulative IPC: 0.6056 (Simulation time: 05 hr 30 min 58 sec)
Heartbeat CPU 0 instructions: 1820000221 cycles: 2996649148 heartbeat IPC: 1.302 cumulative IPC: 0.6073 (Simulation time: 05 hr 31 min 58 sec)
Simulation CPU 0 panic: IPC 0.0028983 < 0.01
[ERROR_CYCLE] Error added at CPU cycle 3021470466, interval 65, pending count: 1
[DRAM_CYCLE_ERROR] Cycle-based error applied! address=0xc308676c0 additional_latency=2459910500 cycles
Heartbeat CPU 0 instructions: 1830000223 cycles: 3031929819 heartbeat IPC: 0.2834 cumulative IPC: 0.6036 (Simulation time: 05 hr 35 min 40 sec)
Heartbeat CPU 0 instructions: 1840000224 cycles: 3038050993 heartbeat IPC: 1.634 cumulative IPC: 0.6057 (Simulation time: 05 hr 36 min 37 sec)
Heartbeat CPU 0 instructions: 1850000225 cycles: 3044341976 heartbeat IPC: 1.59 cumulative IPC: 0.6077 (Simulation time: 05 hr 37 min 34 sec)
Heartbeat CPU 0 instructions: 1860000226 cycles: 3050722745 heartbeat IPC: 1.567 cumulative IPC: 0.6097 (Simulation time: 05 hr 38 min 32 sec)
Heartbeat CPU 0 instructions: 1870000227 cycles: 3057138551 heartbeat IPC: 1.559 cumulative IPC: 0.6117 (Simulation time: 05 hr 39 min 30 sec)
Heartbeat CPU 0 instructions: 1880000228 cycles: 3063662666 heartbeat IPC: 1.533 cumulative IPC: 0.6136 (Simulation time: 05 hr 40 min 30 sec)
[ERROR_CYCLE] Error added at CPU cycle 3067954626, interval 66, pending count: 1
[DRAM_CYCLE_ERROR] Cycle-based error applied! address=0x537c8a8e8 additional_latency=2459910500 cycles
Simulation CPU 0 panic: IPC 0 < 0.01
Heartbeat CPU 0 instructions: 1890000228 cycles: 3089341234 heartbeat IPC: 0.3894 cumulative IPC: 0.6118 (Simulation time: 05 hr 43 min 46 sec)
Heartbeat CPU 0 instructions: 1900000230 cycles: 3094643018 heartbeat IPC: 1.886 cumulative IPC: 0.614 (Simulation time: 05 hr 44 min 38 sec)
Heartbeat CPU 0 instructions: 1910000230 cycles: 3099890461 heartbeat IPC: 1.906 cumulative IPC: 0.6162 (Simulation time: 05 hr 45 min 29 sec)
Heartbeat CPU 0 instructions: 1920000232 cycles: 3105289124 heartbeat IPC: 1.852 cumulative IPC: 0.6183 (Simulation time: 05 hr 46 min 21 sec)
Heartbeat CPU 0 instructions: 1930000233 cycles: 3110586415 heartbeat IPC: 1.888 cumulative IPC: 0.6205 (Simulation time: 05 hr 47 min 13 sec)
[ERROR_CYCLE] Error added at CPU cycle 3114438787, interval 67, pending count: 1
[DRAM_CYCLE_ERROR] Cycle-based error applied! address=0xbcdef6884 additional_latency=2459910500 cycles
Heartbeat CPU 0 instructions: 1940000236 cycles: 3125669981 heartbeat IPC: 0.663 cumulative IPC: 0.6207 (Simulation time: 05 hr 49 min 13 sec)
Heartbeat CPU 0 instructions: 1950000236 cycles: 3131000479 heartbeat IPC: 1.876 cumulative IPC: 0.6228 (Simulation time: 05 hr 50 min 05 sec)
Heartbeat CPU 0 instructions: 1960000239 cycles: 3136277233 heartbeat IPC: 1.895 cumulative IPC: 0.6249 (Simulation time: 05 hr 50 min 57 sec)
Heartbeat CPU 0 instructions: 1970000239 cycles: 3141557683 heartbeat IPC: 1.894 cumulative IPC: 0.6271 (Simulation time: 05 hr 51 min 48 sec)
Heartbeat CPU 0 instructions: 1980000239 cycles: 3146801094 heartbeat IPC: 1.907 cumulative IPC: 0.6292 (Simulation time: 05 hr 52 min 40 sec)
[ERROR_CYCLE] Error added at CPU cycle 3160922948, interval 68, pending count: 1
[DRAM_CYCLE_ERROR] Cycle-based error applied! address=0x2d4cc2c80 additional_latency=2459910500 cycles
Heartbeat CPU 0 instructions: 1990000240 cycles: 3171097266 heartbeat IPC: 0.4116 cumulative IPC: 0.6275 (Simulation time: 05 hr 55 min 32 sec)

=== ERROR PAGE STATISTICS ===
Mode: CYCLE
Error Cycle Interval: 46484161 CPU cycles
Total Error Accesses: 68
==============================
Simulation finished CPU 0 instructions: 1999999880 cycles: 3179630462 cumulative IPC: 0.629 (Simulation time: 05 hr 56 min 46 sec)
Simulation complete CPU 0 instructions: 1999999880 cycles: 3179630462 cumulative IPC: 0.629 (Simulation time: 05 hr 56 min 46 sec)

ChampSim completed all CPUs

=== Simulation ===
CPU 0 runs test_traces/621.wrf_s-6673B.champsimtrace.xz

Region of Interest Statistics

CPU 0 cumulative IPC: 0.629 instructions: 1999999880 cycles: 3179630462
CPU 0 Branch Prediction Accuracy: 93.25% MPKI: 6.743 Average ROB Occupancy at Mispredict: 67.1
Branch type MPKI
BRANCH_DIRECT_JUMP: 0.00112
BRANCH_INDIRECT: 6.95e-05
BRANCH_CONDITIONAL: 5.98
BRANCH_DIRECT_CALL: 0.002089
BRANCH_INDIRECT_CALL: 2e-06
BRANCH_RETURN: 0.7595

cpu0->cpu0_STLB TOTAL        ACCESS:        695 HIT:        562 MISS:        133 MSHR_MERGE:          0
cpu0->cpu0_STLB LOAD         ACCESS:        695 HIT:        562 MISS:        133 MSHR_MERGE:          0
cpu0->cpu0_STLB RFO          ACCESS:          0 HIT:          0 MISS:          0 MSHR_MERGE:          0
cpu0->cpu0_STLB PREFETCH     ACCESS:          0 HIT:          0 MISS:          0 MSHR_MERGE:          0
cpu0->cpu0_STLB WRITE        ACCESS:          0 HIT:          0 MISS:          0 MSHR_MERGE:          0
cpu0->cpu0_STLB TRANSLATION  ACCESS:          0 HIT:          0 MISS:          0 MSHR_MERGE:          0
cpu0->cpu0_STLB PREFETCH REQUESTED:          0 ISSUED:          0 USEFUL:          0 USELESS:          0
cpu0->cpu0_STLB AVERAGE MISS LATENCY: 1.043e+07 cycles
cpu0->cpu0_L2C TOTAL        ACCESS:   24596970 HIT:   13030472 MISS:   11566498 MSHR_MERGE:          0
cpu0->cpu0_L2C LOAD         ACCESS:   13803532 HIT:    4690877 MISS:    9112655 MSHR_MERGE:          0
cpu0->cpu0_L2C RFO          ACCESS:    3870355 HIT:    1420507 MISS:    2449848 MSHR_MERGE:          0
cpu0->cpu0_L2C PREFETCH     ACCESS:          0 HIT:          0 MISS:          0 MSHR_MERGE:          0
cpu0->cpu0_L2C WRITE        ACCESS:    6923083 HIT:    6919088 MISS:       3995 MSHR_MERGE:          0
cpu0->cpu0_L2C TRANSLATION  ACCESS:          0 HIT:          0 MISS:          0 MSHR_MERGE:          0
cpu0->cpu0_L2C PREFETCH REQUESTED:          0 ISSUED:          0 USEFUL:          0 USELESS:          0
cpu0->cpu0_L2C AVERAGE MISS LATENCY: 183 cycles
cpu0->cpu0_L1I TOTAL        ACCESS:  172623062 HIT:  171496776 MISS:    1126286 MSHR_MERGE:     423991
cpu0->cpu0_L1I LOAD         ACCESS:  172623062 HIT:  171496776 MISS:    1126286 MSHR_MERGE:     423991
cpu0->cpu0_L1I RFO          ACCESS:          0 HIT:          0 MISS:          0 MSHR_MERGE:          0
cpu0->cpu0_L1I PREFETCH     ACCESS:          0 HIT:          0 MISS:          0 MSHR_MERGE:          0
cpu0->cpu0_L1I WRITE        ACCESS:          0 HIT:          0 MISS:          0 MSHR_MERGE:          0
cpu0->cpu0_L1I TRANSLATION  ACCESS:          0 HIT:          0 MISS:          0 MSHR_MERGE:          0
cpu0->cpu0_L1I PREFETCH REQUESTED:          0 ISSUED:          0 USEFUL:          0 USELESS:          0
cpu0->cpu0_L1I AVERAGE MISS LATENCY: 27.74 cycles
cpu0->cpu0_L1D TOTAL        ACCESS:  525446329 HIT:  487760703 MISS:   37685626 MSHR_MERGE:   20713821
cpu0->cpu0_L1D LOAD         ACCESS:  412279046 HIT:  388372150 MISS:   23906896 MSHR_MERGE:   10805569
cpu0->cpu0_L1D RFO          ACCESS:          0 HIT:          0 MISS:          0 MSHR_MERGE:          0
cpu0->cpu0_L1D PREFETCH     ACCESS:          0 HIT:          0 MISS:          0 MSHR_MERGE:          0
cpu0->cpu0_L1D WRITE        ACCESS:  113167283 HIT:   99388553 MISS:   13778730 MSHR_MERGE:    9908252
cpu0->cpu0_L1D TRANSLATION  ACCESS:          0 HIT:          0 MISS:          0 MSHR_MERGE:          0
cpu0->cpu0_L1D PREFETCH REQUESTED:          0 ISSUED:          0 USEFUL:          0 USELESS:          0
cpu0->cpu0_L1D AVERAGE MISS LATENCY: 132.7 cycles
cpu0->cpu0_ITLB TOTAL        ACCESS:  147665825 HIT:  147665770 MISS:         55 MSHR_MERGE:         40
cpu0->cpu0_ITLB LOAD         ACCESS:  147665825 HIT:  147665770 MISS:         55 MSHR_MERGE:         40
cpu0->cpu0_ITLB RFO          ACCESS:          0 HIT:          0 MISS:          0 MSHR_MERGE:          0
cpu0->cpu0_ITLB PREFETCH     ACCESS:          0 HIT:          0 MISS:          0 MSHR_MERGE:          0
cpu0->cpu0_ITLB WRITE        ACCESS:          0 HIT:          0 MISS:          0 MSHR_MERGE:          0
cpu0->cpu0_ITLB TRANSLATION  ACCESS:          0 HIT:          0 MISS:          0 MSHR_MERGE:          0
cpu0->cpu0_ITLB PREFETCH REQUESTED:          0 ISSUED:          0 USEFUL:          0 USELESS:          0
cpu0->cpu0_ITLB AVERAGE MISS LATENCY: 9.24e+06 cycles
cpu0->cpu0_DTLB TOTAL        ACCESS:  455346927 HIT:  455345535 MISS:       1392 MSHR_MERGE:        712
cpu0->cpu0_DTLB LOAD         ACCESS:  455346927 HIT:  455345535 MISS:       1392 MSHR_MERGE:        712
cpu0->cpu0_DTLB RFO          ACCESS:          0 HIT:          0 MISS:          0 MSHR_MERGE:          0
cpu0->cpu0_DTLB PREFETCH     ACCESS:          0 HIT:          0 MISS:          0 MSHR_MERGE:          0
cpu0->cpu0_DTLB WRITE        ACCESS:          0 HIT:          0 MISS:          0 MSHR_MERGE:          0
cpu0->cpu0_DTLB TRANSLATION  ACCESS:          0 HIT:          0 MISS:          0 MSHR_MERGE:          0
cpu0->cpu0_DTLB PREFETCH REQUESTED:          0 ISSUED:          0 USEFUL:          0 USELESS:          0
cpu0->cpu0_DTLB AVERAGE MISS LATENCY: 1.835e+06 cycles
cpu0->LLC TOTAL        ACCESS:   16402760 HIT:    6357257 MISS:   10045503 MSHR_MERGE:          0
cpu0->LLC LOAD         ACCESS:    9112655 HIT:    1198548 MISS:    7914107 MSHR_MERGE:          0
cpu0->LLC RFO          ACCESS:    2449848 HIT:     330205 MISS:    2119643 MSHR_MERGE:          0
cpu0->LLC PREFETCH     ACCESS:          0 HIT:          0 MISS:          0 MSHR_MERGE:          0
cpu0->LLC WRITE        ACCESS:    4840257 HIT:    4828504 MISS:      11753 MSHR_MERGE:          0
cpu0->LLC TRANSLATION  ACCESS:          0 HIT:          0 MISS:          0 MSHR_MERGE:          0
cpu0->LLC PREFETCH REQUESTED:          0 ISSUED:          0 USEFUL:          0 USELESS:          0
cpu0->LLC AVERAGE MISS LATENCY: 192.5 cycles

DRAM Statistics

Channel 0 RQ ROW_BUFFER_HIT:     278301
  ROW_BUFFER_MISS:    4738561
  AVG DBUS CONGESTED CYCLE: 10.72
Channel 0 WQ ROW_BUFFER_HIT:     586356
  ROW_BUFFER_MISS:    1420748
  FULL:        475
Channel 0 REFRESHES ISSUED:     264952

Channel 1 RQ ROW_BUFFER_HIT:     278571
  ROW_BUFFER_MISS:    4738391
  AVG DBUS CONGESTED CYCLE: 10.72
Channel 1 WQ ROW_BUFFER_HIT:     582052
  ROW_BUFFER_MISS:    1425123
  FULL:        224
Channel 1 REFRESHES ISSUED:     264952
