
*** ChampSim Multicore Out-of-Order Simulator ***
Warmup Instructions: 0
Simulation Instructions: 9223372036854775807
Number of CPUs: 1
Page size: 1048576

Off-chip DRAM Size: 64 GiB Channels: 2 Width: 32-bit Data Rate: 4807 MT/s
[ERROR_PAGE_MANAGER] Error latency: 0 
[ERROR_PAGE_MANAGER] Random seed: 54321 (fixed for preload reproducibility)
[ERROR_PAGE_MANAGER] Error pages off

=== ERROR PAGE STATISTICS ===
Mode: OFF
Total Error Accesses: 0
==============================
Warmup finished CPU 0 instructions: 0 cycles: 1 cumulative IPC: 0 (Simulation time: 00 hr 00 min 00 sec)
Warmup complete CPU 0 instructions: 0 cycles: 1 cumulative IPC: 0 (Simulation time: 00 hr 00 min 00 sec)
Simulation CPU 0 panic: IPC 0 < 0.01
Simulation CPU 0 panic: IPC 9e-07 < 0.01
Simulation CPU 0 panic: IPC 3e-07 < 0.01
Simulation CPU 0 panic: IPC 1e-07 < 0.01
Simulation CPU 0 panic: IPC 1.8e-06 < 0.01
Simulation CPU 0 panic: IPC 0 < 0.01
Simulation CPU 0 panic: IPC 2.29e-05 < 0.01
Simulation CPU 0 panic: IPC 1.7e-06 < 0.01
Simulation CPU 0 panic: IPC 1.81e-05 < 0.01
Simulation CPU 0 panic: IPC 4.33e-05 < 0.01
Simulation CPU 0 panic: IPC 1.23e-05 < 0.01
Simulation CPU 0 panic: IPC 1e-07 < 0.01
Simulation CPU 0 panic: IPC 1.66e-05 < 0.01
Simulation CPU 0 panic: IPC 8.1e-06 < 0.01
Simulation CPU 0 panic: IPC 1e-07 < 0.01
Simulation CPU 0 panic: IPC 2.9e-06 < 0.01
Simulation CPU 0 panic: IPC 3.8e-06 < 0.01
Simulation CPU 0 panic: IPC 1e-07 < 0.01
Simulation CPU 0 panic: IPC 2.9e-06 < 0.01
Simulation CPU 0 panic: IPC 1e-07 < 0.01
Simulation CPU 0 panic: IPC 2.9e-06 < 0.01
Simulation CPU 0 panic: IPC 3e-06 < 0.01
Simulation CPU 0 panic: IPC 1e-07 < 0.01
Simulation CPU 0 panic: IPC 9.7e-06 < 0.01
Simulation CPU 0 panic: IPC 3e-06 < 0.01
Simulation CPU 0 panic: IPC 3e-06 < 0.01
Simulation CPU 0 panic: IPC 2.34e-05 < 0.01
Simulation CPU 0 panic: IPC 1.52e-05 < 0.01
Simulation CPU 0 panic: IPC 2.35e-05 < 0.01
Simulation CPU 0 panic: IPC 8.2e-06 < 0.01
Simulation CPU 0 panic: IPC 1.95e-05 < 0.01
Simulation CPU 0 panic: IPC 0.0001239 < 0.01
Simulation CPU 0 panic: IPC 0.0001436 < 0.01
Simulation CPU 0 panic: IPC 0.0001423 < 0.01
Simulation CPU 0 panic: IPC 7.53e-05 < 0.01
Simulation CPU 0 panic: IPC 6.57e-05 < 0.01
Simulation CPU 0 panic: IPC 0.000357 < 0.01
Simulation CPU 0 panic: IPC 0.0012567 < 0.01
Simulation CPU 0 panic: IPC 0.0001685 < 0.01
Simulation CPU 0 panic: IPC 3.27e-05 < 0.01
Simulation CPU 0 panic: IPC 6.7e-06 < 0.01
Simulation CPU 0 panic: IPC 3.1e-06 < 0.01
Simulation CPU 0 panic: IPC 2.41e-05 < 0.01
Simulation CPU 0 panic: IPC 1.04e-05 < 0.01
Simulation CPU 0 panic: IPC 7.01e-05 < 0.01
Simulation CPU 0 panic: IPC 1.64e-05 < 0.01
Simulation CPU 0 panic: IPC 2.7e-06 < 0.01
Simulation CPU 0 panic: IPC 0.0001107 < 0.01
Simulation CPU 0 panic: IPC 0.0001304 < 0.01
Simulation CPU 0 panic: IPC 3e-06 < 0.01
Simulation CPU 0 panic: IPC 3e-06 < 0.01
Simulation CPU 0 panic: IPC 1e-07 < 0.01
Simulation CPU 0 panic: IPC 3e-06 < 0.01
Simulation CPU 0 panic: IPC 3e-06 < 0.01
Simulation CPU 0 panic: IPC 3e-06 < 0.01
Simulation CPU 0 panic: IPC 2.9e-06 < 0.01
Simulation CPU 0 panic: IPC 1e-07 < 0.01
Simulation CPU 0 panic: IPC 2.9e-06 < 0.01
Simulation CPU 0 panic: IPC 1e-07 < 0.01
Simulation CPU 0 panic: IPC 2.02e-05 < 0.01
Simulation CPU 0 panic: IPC 0.0001422 < 0.01
Simulation CPU 0 panic: IPC 2.14e-05 < 0.01
Simulation CPU 0 panic: IPC 1e-07 < 0.01
Simulation CPU 0 panic: IPC 5.9e-06 < 0.01
Simulation CPU 0 panic: IPC 6e-06 < 0.01
Simulation CPU 0 panic: IPC 9.1e-06 < 0.01
Simulation CPU 0 panic: IPC 2.12e-05 < 0.01
Simulation CPU 0 panic: IPC 0.0001447 < 0.01
Simulation CPU 0 panic: IPC 7.09e-05 < 0.01
Simulation CPU 0 panic: IPC 7e-06 < 0.01
Simulation CPU 0 panic: IPC 2.22e-05 < 0.01
Simulation CPU 0 panic: IPC 5e-07 < 0.01
Simulation CPU 0 panic: IPC 1.3e-05 < 0.01
Simulation CPU 0 panic: IPC 6.2e-06 < 0.01
Simulation CPU 0 panic: IPC 1.09e-05 < 0.01
Simulation CPU 0 panic: IPC 5.8e-06 < 0.01
Simulation CPU 0 panic: IPC 4e-07 < 0.01
Simulation CPU 0 panic: IPC 8e-07 < 0.01
Simulation CPU 0 panic: IPC 5.1e-06 < 0.01
Simulation CPU 0 panic: IPC 2.8e-05 < 0.01
Simulation CPU 0 panic: IPC 2.47e-05 < 0.01
Simulation CPU 0 panic: IPC 5.4e-06 < 0.01
Simulation CPU 0 panic: IPC 1.71e-05 < 0.01
Simulation CPU 0 panic: IPC 5.1e-06 < 0.01
Simulation CPU 0 panic: IPC 7.4e-06 < 0.01
Simulation CPU 0 panic: IPC 1.64e-05 < 0.01
Simulation CPU 0 panic: IPC 5.5e-06 < 0.01
Simulation CPU 0 panic: IPC 8.5e-06 < 0.01
Simulation CPU 0 panic: IPC 1.48e-05 < 0.01
Simulation CPU 0 panic: IPC 1.25e-05 < 0.01
Simulation CPU 0 panic: IPC 2.58e-05 < 0.01
Simulation CPU 0 panic: IPC 2e-05 < 0.01
Simulation CPU 0 panic: IPC 1.17e-05 < 0.01
Simulation CPU 0 panic: IPC 3.16e-05 < 0.01
Simulation CPU 0 panic: IPC 5.5e-06 < 0.01
Simulation CPU 0 panic: IPC 0.0006164 < 0.01
Simulation CPU 0 panic: IPC 0.0001388 < 0.01
Simulation CPU 0 panic: IPC 0.0004124 < 0.01
Simulation CPU 0 panic: IPC 0.0001653 < 0.01
Simulation CPU 0 panic: IPC 0.0002633 < 0.01
Simulation CPU 0 panic: IPC 0.0011627 < 0.01
Simulation CPU 0 panic: IPC 5.4e-06 < 0.01
Simulation CPU 0 panic: IPC 0.0001581 < 0.01
Simulation CPU 0 panic: IPC 5.4e-06 < 0.01
Simulation CPU 0 panic: IPC 0.0001589 < 0.01
Simulation CPU 0 panic: IPC 5.4e-06 < 0.01
Simulation CPU 0 panic: IPC 0.0003267 < 0.01
Simulation CPU 0 panic: IPC 0.0001719 < 0.01
Simulation CPU 0 panic: IPC 0.0001609 < 0.01
Simulation CPU 0 panic: IPC 0.0003321 < 0.01
Simulation CPU 0 panic: IPC 5.4e-06 < 0.01
Simulation CPU 0 panic: IPC 0.0003799 < 0.01
Simulation CPU 0 panic: IPC 9e-06 < 0.01
Simulation CPU 0 panic: IPC 1e-07 < 0.01
Simulation CPU 0 panic: IPC 0.0001136 < 0.01
Simulation CPU 0 panic: IPC 1.6e-05 < 0.01
Simulation CPU 0 panic: IPC 2.22e-05 < 0.01
Simulation CPU 0 panic: IPC 1.21e-05 < 0.01
Simulation CPU 0 panic: IPC 8.9e-06 < 0.01
Simulation CPU 0 panic: IPC 1e-07 < 0.01
Simulation CPU 0 panic: IPC 0.0001016 < 0.01
Simulation CPU 0 panic: IPC 0.0002726 < 0.01
Simulation CPU 0 panic: IPC 3.75e-05 < 0.01
Simulation CPU 0 panic: IPC 0.0003367 < 0.01
Simulation CPU 0 panic: IPC 6.43e-05 < 0.01
Simulation CPU 0 panic: IPC 0.0002663 < 0.01
Simulation CPU 0 panic: IPC 3.92e-05 < 0.01
Simulation CPU 0 panic: IPC 4.55e-05 < 0.01
Simulation CPU 0 panic: IPC 2.08e-05 < 0.01
Simulation CPU 0 panic: IPC 5.2e-06 < 0.01
Simulation CPU 0 panic: IPC 6.65e-05 < 0.01
Simulation CPU 0 panic: IPC 0.0001063 < 0.01
Simulation CPU 0 panic: IPC 0.0002394 < 0.01
Simulation CPU 0 panic: IPC 0.0007973 < 0.01
Simulation CPU 0 panic: IPC 0.0001879 < 0.01
Simulation CPU 0 panic: IPC 0.0001448 < 0.01
Simulation CPU 0 panic: IPC 9.46e-05 < 0.01
Simulation CPU 0 panic: IPC 0.0004602 < 0.01
Simulation CPU 0 panic: IPC 3.92e-05 < 0.01
Simulation CPU 0 panic: IPC 3.95e-05 < 0.01
Simulation CPU 0 panic: IPC 3.73e-05 < 0.01
Simulation CPU 0 panic: IPC 0.0001282 < 0.01
Simulation CPU 0 panic: IPC 5.09e-05 < 0.01
Simulation CPU 0 panic: IPC 0.0002329 < 0.01
Simulation CPU 0 panic: IPC 9.46e-05 < 0.01
Simulation CPU 0 panic: IPC 0.0006733 < 0.01
Simulation CPU 0 panic: IPC 0.0019324 < 0.01
Simulation CPU 0 panic: IPC 0.0003876 < 0.01
Simulation CPU 0 panic: IPC 0.0009874 < 0.01
Simulation CPU 0 panic: IPC 0.0012842 < 0.01
Simulation CPU 0 panic: IPC 0.0015389 < 0.01
Simulation CPU 0 panic: IPC 0.0003849 < 0.01
Simulation CPU 0 panic: IPC 0.0003655 < 0.01
Simulation CPU 0 panic: IPC 0.000366 < 0.01
Simulation CPU 0 panic: IPC 7.62e-05 < 0.01
Simulation CPU 0 panic: IPC 0.0003003 < 0.01
Simulation CPU 0 panic: IPC 0.0003039 < 0.01
Simulation CPU 0 panic: IPC 0.0002456 < 0.01
Simulation CPU 0 panic: IPC 0.0051855 < 0.01
Simulation CPU 0 panic: IPC 0.0010858 < 0.01
Simulation CPU 0 panic: IPC 0.0002078 < 0.01
Simulation CPU 0 panic: IPC 0.0002537 < 0.01
Simulation CPU 0 panic: IPC 0.0008968 < 0.01
Simulation CPU 0 panic: IPC 0.002866 < 0.01
Simulation CPU 0 panic: IPC 0.0011515 < 0.01
Simulation CPU 0 panic: IPC 0.0008584 < 0.01
Simulation CPU 0 panic: IPC 0.0006085 < 0.01
Simulation CPU 0 panic: IPC 0.0003011 < 0.01
Simulation CPU 0 panic: IPC 0.0021249 < 0.01
Simulation CPU 0 panic: IPC 0.0029258 < 0.01
Simulation CPU 0 panic: IPC 0.0012323 < 0.01
Simulation CPU 0 panic: IPC 0.0041983 < 0.01
Simulation CPU 0 panic: IPC 0.0017629 < 0.01
Simulation CPU 0 panic: IPC 0.0003205 < 0.01
Simulation CPU 0 panic: IPC 0.0003317 < 0.01
Simulation CPU 0 panic: IPC 0.0007435 < 0.01
Simulation CPU 0 panic: IPC 0.0019878 < 0.01
Simulation CPU 0 panic: IPC 0.0003699 < 0.01
Simulation CPU 0 panic: IPC 0.0024232 < 0.01
Simulation CPU 0 panic: IPC 0.0003722 < 0.01
Simulation CPU 0 panic: IPC 0.0009868 < 0.01
Simulation CPU 0 panic: IPC 0.002298 < 0.01
Simulation CPU 0 panic: IPC 0.0021605 < 0.01
Simulation CPU 0 critical: IPC 0.018623 < 0.02
Simulation CPU 0 warning: IPC 0.023852 < 0.05
Heartbeat CPU 0 instructions: 10000003 cycles: 1898855456 heartbeat IPC: 0.005266 cumulative IPC: 0.005266 (Simulation time: 02 hr 32 min 04 sec)
Heartbeat CPU 0 instructions: 20000007 cycles: 1913854203 heartbeat IPC: 0.6667 cumulative IPC: 0.01045 (Simulation time: 02 hr 33 min 53 sec)
Heartbeat CPU 0 instructions: 30000008 cycles: 1928834770 heartbeat IPC: 0.6675 cumulative IPC: 0.01555 (Simulation time: 02 hr 35 min 40 sec)
Heartbeat CPU 0 instructions: 40000008 cycles: 1943905665 heartbeat IPC: 0.6635 cumulative IPC: 0.02058 (Simulation time: 02 hr 37 min 30 sec)
Heartbeat CPU 0 instructions: 50000008 cycles: 1959147603 heartbeat IPC: 0.6561 cumulative IPC: 0.02552 (Simulation time: 02 hr 39 min 21 sec)
Heartbeat CPU 0 instructions: 60000011 cycles: 1973824022 heartbeat IPC: 0.6814 cumulative IPC: 0.0304 (Simulation time: 02 hr 41 min 06 sec)
Heartbeat CPU 0 instructions: 70000011 cycles: 1988842204 heartbeat IPC: 0.6659 cumulative IPC: 0.0352 (Simulation time: 02 hr 42 min 55 sec)
Heartbeat CPU 0 instructions: 80000012 cycles: 2003869505 heartbeat IPC: 0.6655 cumulative IPC: 0.03992 (Simulation time: 02 hr 44 min 38 sec)
Heartbeat CPU 0 instructions: 90000013 cycles: 2018764637 heartbeat IPC: 0.6714 cumulative IPC: 0.04458 (Simulation time: 02 hr 45 min 49 sec)
Heartbeat CPU 0 instructions: 100000017 cycles: 2033676259 heartbeat IPC: 0.6706 cumulative IPC: 0.04917 (Simulation time: 02 hr 47 min 05 sec)
Heartbeat CPU 0 instructions: 110000018 cycles: 2048511145 heartbeat IPC: 0.6741 cumulative IPC: 0.0537 (Simulation time: 02 hr 48 min 52 sec)
Heartbeat CPU 0 instructions: 120000018 cycles: 2063284807 heartbeat IPC: 0.6769 cumulative IPC: 0.05816 (Simulation time: 02 hr 50 min 09 sec)
Heartbeat CPU 0 instructions: 130000018 cycles: 2078154673 heartbeat IPC: 0.6725 cumulative IPC: 0.06256 (Simulation time: 02 hr 51 min 35 sec)
Heartbeat CPU 0 instructions: 140000020 cycles: 2092958436 heartbeat IPC: 0.6755 cumulative IPC: 0.06689 (Simulation time: 02 hr 53 min 02 sec)
Heartbeat CPU 0 instructions: 150000021 cycles: 2107903933 heartbeat IPC: 0.6691 cumulative IPC: 0.07116 (Simulation time: 02 hr 54 min 40 sec)
Heartbeat CPU 0 instructions: 160000021 cycles: 2122823145 heartbeat IPC: 0.6703 cumulative IPC: 0.07537 (Simulation time: 02 hr 56 min 05 sec)
Heartbeat CPU 0 instructions: 170000021 cycles: 2137594734 heartbeat IPC: 0.677 cumulative IPC: 0.07953 (Simulation time: 02 hr 57 min 27 sec)
Heartbeat CPU 0 instructions: 180000024 cycles: 2152205260 heartbeat IPC: 0.6844 cumulative IPC: 0.08364 (Simulation time: 02 hr 58 min 56 sec)
Heartbeat CPU 0 instructions: 190000028 cycles: 2166933254 heartbeat IPC: 0.679 cumulative IPC: 0.08768 (Simulation time: 03 hr 00 min 14 sec)
Heartbeat CPU 0 instructions: 200000029 cycles: 2181827146 heartbeat IPC: 0.6714 cumulative IPC: 0.09167 (Simulation time: 03 hr 01 min 31 sec)
Heartbeat CPU 0 instructions: 210000033 cycles: 2196677882 heartbeat IPC: 0.6734 cumulative IPC: 0.0956 (Simulation time: 03 hr 03 min 04 sec)
Heartbeat CPU 0 instructions: 220000035 cycles: 2211476215 heartbeat IPC: 0.6758 cumulative IPC: 0.09948 (Simulation time: 03 hr 04 min 30 sec)
Heartbeat CPU 0 instructions: 230000036 cycles: 2226469601 heartbeat IPC: 0.667 cumulative IPC: 0.1033 (Simulation time: 03 hr 06 min 19 sec)
Heartbeat CPU 0 instructions: 240000036 cycles: 2241345042 heartbeat IPC: 0.6722 cumulative IPC: 0.1071 (Simulation time: 03 hr 08 min 08 sec)
Heartbeat CPU 0 instructions: 250000038 cycles: 2255757292 heartbeat IPC: 0.6939 cumulative IPC: 0.1108 (Simulation time: 03 hr 09 min 53 sec)
Heartbeat CPU 0 instructions: 260000038 cycles: 2270220760 heartbeat IPC: 0.6914 cumulative IPC: 0.1145 (Simulation time: 03 hr 11 min 38 sec)
Heartbeat CPU 0 instructions: 270000038 cycles: 2285151668 heartbeat IPC: 0.6698 cumulative IPC: 0.1182 (Simulation time: 03 hr 13 min 18 sec)
Heartbeat CPU 0 instructions: 280000041 cycles: 2300341159 heartbeat IPC: 0.6584 cumulative IPC: 0.1217 (Simulation time: 03 hr 14 min 54 sec)
Heartbeat CPU 0 instructions: 290000043 cycles: 2315403575 heartbeat IPC: 0.6639 cumulative IPC: 0.1252 (Simulation time: 03 hr 16 min 34 sec)
Heartbeat CPU 0 instructions: 300000044 cycles: 2329924340 heartbeat IPC: 0.6887 cumulative IPC: 0.1288 (Simulation time: 03 hr 18 min 21 sec)
Heartbeat CPU 0 instructions: 310000047 cycles: 2345015719 heartbeat IPC: 0.6626 cumulative IPC: 0.1322 (Simulation time: 03 hr 20 min 12 sec)
Heartbeat CPU 0 instructions: 320000051 cycles: 2359892811 heartbeat IPC: 0.6722 cumulative IPC: 0.1356 (Simulation time: 03 hr 22 min 01 sec)
Heartbeat CPU 0 instructions: 330000051 cycles: 2374713046 heartbeat IPC: 0.6748 cumulative IPC: 0.139 (Simulation time: 03 hr 23 min 50 sec)
Heartbeat CPU 0 instructions: 340000055 cycles: 2388674352 heartbeat IPC: 0.7163 cumulative IPC: 0.1423 (Simulation time: 03 hr 25 min 33 sec)
Heartbeat CPU 0 instructions: 350000055 cycles: 2403365021 heartbeat IPC: 0.6807 cumulative IPC: 0.1456 (Simulation time: 03 hr 27 min 19 sec)
Heartbeat CPU 0 instructions: 360000056 cycles: 2417785586 heartbeat IPC: 0.6935 cumulative IPC: 0.1489 (Simulation time: 03 hr 29 min 03 sec)
Heartbeat CPU 0 instructions: 370000056 cycles: 2432320691 heartbeat IPC: 0.688 cumulative IPC: 0.1521 (Simulation time: 03 hr 30 min 27 sec)
Heartbeat CPU 0 instructions: 380000056 cycles: 2446748487 heartbeat IPC: 0.6931 cumulative IPC: 0.1553 (Simulation time: 03 hr 31 min 48 sec)
Heartbeat CPU 0 instructions: 390000058 cycles: 2461205605 heartbeat IPC: 0.6917 cumulative IPC: 0.1585 (Simulation time: 03 hr 33 min 09 sec)
Heartbeat CPU 0 instructions: 400000059 cycles: 2475785059 heartbeat IPC: 0.6859 cumulative IPC: 0.1616 (Simulation time: 03 hr 34 min 22 sec)
Heartbeat CPU 0 instructions: 410000059 cycles: 2490261004 heartbeat IPC: 0.6908 cumulative IPC: 0.1646 (Simulation time: 03 hr 35 min 43 sec)
Heartbeat CPU 0 instructions: 420000062 cycles: 2504902489 heartbeat IPC: 0.683 cumulative IPC: 0.1677 (Simulation time: 03 hr 37 min 17 sec)
Heartbeat CPU 0 instructions: 430000065 cycles: 2519635128 heartbeat IPC: 0.6788 cumulative IPC: 0.1707 (Simulation time: 03 hr 39 min 05 sec)
Heartbeat CPU 0 instructions: 440000068 cycles: 2534490314 heartbeat IPC: 0.6732 cumulative IPC: 0.1736 (Simulation time: 03 hr 40 min 54 sec)
Heartbeat CPU 0 instructions: 450000068 cycles: 2549253285 heartbeat IPC: 0.6774 cumulative IPC: 0.1765 (Simulation time: 03 hr 42 min 19 sec)
Heartbeat CPU 0 instructions: 460000068 cycles: 2563944826 heartbeat IPC: 0.6807 cumulative IPC: 0.1794 (Simulation time: 03 hr 43 min 33 sec)
Heartbeat CPU 0 instructions: 470000068 cycles: 2578750993 heartbeat IPC: 0.6754 cumulative IPC: 0.1823 (Simulation time: 03 hr 44 min 56 sec)
Heartbeat CPU 0 instructions: 480000068 cycles: 2593493849 heartbeat IPC: 0.6783 cumulative IPC: 0.1851 (Simulation time: 03 hr 46 min 10 sec)
Heartbeat CPU 0 instructions: 490000071 cycles: 2608768064 heartbeat IPC: 0.6547 cumulative IPC: 0.1878 (Simulation time: 03 hr 47 min 53 sec)
Heartbeat CPU 0 instructions: 500000072 cycles: 2623421029 heartbeat IPC: 0.6825 cumulative IPC: 0.1906 (Simulation time: 03 hr 49 min 38 sec)
Heartbeat CPU 0 instructions: 510000075 cycles: 2638243145 heartbeat IPC: 0.6747 cumulative IPC: 0.1933 (Simulation time: 03 hr 51 min 25 sec)
Heartbeat CPU 0 instructions: 520000079 cycles: 2653086094 heartbeat IPC: 0.6737 cumulative IPC: 0.196 (Simulation time: 03 hr 53 min 15 sec)
Heartbeat CPU 0 instructions: 530000080 cycles: 2667784929 heartbeat IPC: 0.6803 cumulative IPC: 0.1987 (Simulation time: 03 hr 55 min 01 sec)
Heartbeat CPU 0 instructions: 540000080 cycles: 2682827174 heartbeat IPC: 0.6648 cumulative IPC: 0.2013 (Simulation time: 03 hr 56 min 43 sec)
Heartbeat CPU 0 instructions: 550000081 cycles: 2697776600 heartbeat IPC: 0.6689 cumulative IPC: 0.2039 (Simulation time: 03 hr 58 min 07 sec)
Heartbeat CPU 0 instructions: 560000082 cycles: 2712604243 heartbeat IPC: 0.6744 cumulative IPC: 0.2064 (Simulation time: 03 hr 59 min 55 sec)
Heartbeat CPU 0 instructions: 570000082 cycles: 2727631727 heartbeat IPC: 0.6654 cumulative IPC: 0.209 (Simulation time: 04 hr 01 min 18 sec)
Heartbeat CPU 0 instructions: 580000085 cycles: 2742433419 heartbeat IPC: 0.6756 cumulative IPC: 0.2115 (Simulation time: 04 hr 02 min 32 sec)
Heartbeat CPU 0 instructions: 590000085 cycles: 2757425152 heartbeat IPC: 0.667 cumulative IPC: 0.214 (Simulation time: 04 hr 03 min 54 sec)
Heartbeat CPU 0 instructions: 600000086 cycles: 2772194509 heartbeat IPC: 0.6771 cumulative IPC: 0.2164 (Simulation time: 04 hr 05 min 26 sec)
Heartbeat CPU 0 instructions: 610000086 cycles: 2786917988 heartbeat IPC: 0.6792 cumulative IPC: 0.2189 (Simulation time: 04 hr 06 min 50 sec)
Heartbeat CPU 0 instructions: 620000090 cycles: 2801982784 heartbeat IPC: 0.6638 cumulative IPC: 0.2213 (Simulation time: 04 hr 08 min 34 sec)
Heartbeat CPU 0 instructions: 630000094 cycles: 2816874882 heartbeat IPC: 0.6715 cumulative IPC: 0.2237 (Simulation time: 04 hr 10 min 22 sec)
Heartbeat CPU 0 instructions: 640000095 cycles: 2831931923 heartbeat IPC: 0.6641 cumulative IPC: 0.226 (Simulation time: 04 hr 12 min 11 sec)
Heartbeat CPU 0 instructions: 650000098 cycles: 2846857914 heartbeat IPC: 0.67 cumulative IPC: 0.2283 (Simulation time: 04 hr 14 min 00 sec)
Heartbeat CPU 0 instructions: 660000100 cycles: 2861822730 heartbeat IPC: 0.6682 cumulative IPC: 0.2306 (Simulation time: 04 hr 15 min 47 sec)
Heartbeat CPU 0 instructions: 670000101 cycles: 2876708473 heartbeat IPC: 0.6718 cumulative IPC: 0.2329 (Simulation time: 04 hr 17 min 17 sec)
Heartbeat CPU 0 instructions: 680000104 cycles: 2891574069 heartbeat IPC: 0.6727 cumulative IPC: 0.2352 (Simulation time: 04 hr 18 min 55 sec)
Heartbeat CPU 0 instructions: 690000108 cycles: 2906327304 heartbeat IPC: 0.6778 cumulative IPC: 0.2374 (Simulation time: 04 hr 20 min 39 sec)
Heartbeat CPU 0 instructions: 700000111 cycles: 2921082566 heartbeat IPC: 0.6777 cumulative IPC: 0.2396 (Simulation time: 04 hr 22 min 11 sec)
Heartbeat CPU 0 instructions: 710000111 cycles: 2936011228 heartbeat IPC: 0.6699 cumulative IPC: 0.2418 (Simulation time: 04 hr 23 min 55 sec)
Heartbeat CPU 0 instructions: 720000111 cycles: 2950967800 heartbeat IPC: 0.6686 cumulative IPC: 0.244 (Simulation time: 04 hr 25 min 20 sec)
Heartbeat CPU 0 instructions: 730000112 cycles: 2965687449 heartbeat IPC: 0.6794 cumulative IPC: 0.2461 (Simulation time: 04 hr 27 min 04 sec)
Heartbeat CPU 0 instructions: 740000114 cycles: 2980618024 heartbeat IPC: 0.6698 cumulative IPC: 0.2483 (Simulation time: 04 hr 28 min 49 sec)
Heartbeat CPU 0 instructions: 750000115 cycles: 2995377110 heartbeat IPC: 0.6775 cumulative IPC: 0.2504 (Simulation time: 04 hr 30 min 30 sec)
Heartbeat CPU 0 instructions: 760000117 cycles: 3010291634 heartbeat IPC: 0.6705 cumulative IPC: 0.2525 (Simulation time: 04 hr 32 min 15 sec)
Heartbeat CPU 0 instructions: 770000119 cycles: 3024835978 heartbeat IPC: 0.6876 cumulative IPC: 0.2546 (Simulation time: 04 hr 33 min 56 sec)
Heartbeat CPU 0 instructions: 780000119 cycles: 3039721549 heartbeat IPC: 0.6718 cumulative IPC: 0.2566 (Simulation time: 04 hr 35 min 11 sec)
Heartbeat CPU 0 instructions: 790000119 cycles: 3054558544 heartbeat IPC: 0.674 cumulative IPC: 0.2586 (Simulation time: 04 hr 36 min 49 sec)
Heartbeat CPU 0 instructions: 800000119 cycles: 3069236084 heartbeat IPC: 0.6813 cumulative IPC: 0.2607 (Simulation time: 04 hr 38 min 12 sec)
Heartbeat CPU 0 instructions: 810000119 cycles: 3083948107 heartbeat IPC: 0.6797 cumulative IPC: 0.2627 (Simulation time: 04 hr 39 min 33 sec)
Heartbeat CPU 0 instructions: 820000120 cycles: 3098764552 heartbeat IPC: 0.6749 cumulative IPC: 0.2646 (Simulation time: 04 hr 40 min 54 sec)
Heartbeat CPU 0 instructions: 830000122 cycles: 3113500976 heartbeat IPC: 0.6786 cumulative IPC: 0.2666 (Simulation time: 04 hr 42 min 15 sec)
Heartbeat CPU 0 instructions: 840000126 cycles: 3128037459 heartbeat IPC: 0.6879 cumulative IPC: 0.2685 (Simulation time: 04 hr 43 min 29 sec)
Heartbeat CPU 0 instructions: 850000129 cycles: 3142863536 heartbeat IPC: 0.6745 cumulative IPC: 0.2705 (Simulation time: 04 hr 44 min 48 sec)
Heartbeat CPU 0 instructions: 860000133 cycles: 3157599801 heartbeat IPC: 0.6786 cumulative IPC: 0.2724 (Simulation time: 04 hr 46 min 16 sec)
Heartbeat CPU 0 instructions: 870000136 cycles: 3172288143 heartbeat IPC: 0.6808 cumulative IPC: 0.2743 (Simulation time: 04 hr 47 min 41 sec)
Heartbeat CPU 0 instructions: 880000138 cycles: 3186980765 heartbeat IPC: 0.6806 cumulative IPC: 0.2761 (Simulation time: 04 hr 49 min 08 sec)
Heartbeat CPU 0 instructions: 890000138 cycles: 3201636518 heartbeat IPC: 0.6823 cumulative IPC: 0.278 (Simulation time: 04 hr 50 min 39 sec)
Heartbeat CPU 0 instructions: 900000142 cycles: 3216019067 heartbeat IPC: 0.6953 cumulative IPC: 0.2798 (Simulation time: 04 hr 52 min 23 sec)
Heartbeat CPU 0 instructions: 910000142 cycles: 3230647327 heartbeat IPC: 0.6836 cumulative IPC: 0.2817 (Simulation time: 04 hr 54 min 09 sec)
Heartbeat CPU 0 instructions: 920000143 cycles: 3245389864 heartbeat IPC: 0.6783 cumulative IPC: 0.2835 (Simulation time: 04 hr 55 min 56 sec)
Heartbeat CPU 0 instructions: 930000144 cycles: 3259746945 heartbeat IPC: 0.6965 cumulative IPC: 0.2853 (Simulation time: 04 hr 57 min 37 sec)
Heartbeat CPU 0 instructions: 940000145 cycles: 3274124484 heartbeat IPC: 0.6955 cumulative IPC: 0.2871 (Simulation time: 04 hr 59 min 18 sec)
Heartbeat CPU 0 instructions: 950000146 cycles: 3288839431 heartbeat IPC: 0.6796 cumulative IPC: 0.2889 (Simulation time: 05 hr 00 min 46 sec)
Heartbeat CPU 0 instructions: 960000149 cycles: 3303496102 heartbeat IPC: 0.6823 cumulative IPC: 0.2906 (Simulation time: 05 hr 02 min 01 sec)
Heartbeat CPU 0 instructions: 970000151 cycles: 3318231090 heartbeat IPC: 0.6787 cumulative IPC: 0.2923 (Simulation time: 05 hr 03 min 25 sec)
Heartbeat CPU 0 instructions: 980000151 cycles: 3332722793 heartbeat IPC: 0.6901 cumulative IPC: 0.2941 (Simulation time: 05 hr 04 min 38 sec)
Heartbeat CPU 0 instructions: 990000152 cycles: 3347450762 heartbeat IPC: 0.679 cumulative IPC: 0.2957 (Simulation time: 05 hr 05 min 58 sec)
Heartbeat CPU 0 instructions: 1000000155 cycles: 3362192139 heartbeat IPC: 0.6784 cumulative IPC: 0.2974 (Simulation time: 05 hr 07 min 26 sec)
Heartbeat CPU 0 instructions: 1010000157 cycles: 3376765891 heartbeat IPC: 0.6862 cumulative IPC: 0.2991 (Simulation time: 05 hr 09 min 10 sec)
Heartbeat CPU 0 instructions: 1020000158 cycles: 3391520243 heartbeat IPC: 0.6778 cumulative IPC: 0.3008 (Simulation time: 05 hr 10 min 53 sec)
Heartbeat CPU 0 instructions: 1030000159 cycles: 3406188054 heartbeat IPC: 0.6818 cumulative IPC: 0.3024 (Simulation time: 05 hr 12 min 23 sec)
Heartbeat CPU 0 instructions: 1040000159 cycles: 3420830068 heartbeat IPC: 0.683 cumulative IPC: 0.304 (Simulation time: 05 hr 13 min 52 sec)
Heartbeat CPU 0 instructions: 1050000161 cycles: 3435321441 heartbeat IPC: 0.6901 cumulative IPC: 0.3056 (Simulation time: 05 hr 15 min 24 sec)
Heartbeat CPU 0 instructions: 1060000161 cycles: 3449760992 heartbeat IPC: 0.6925 cumulative IPC: 0.3073 (Simulation time: 05 hr 16 min 53 sec)
Heartbeat CPU 0 instructions: 1070000165 cycles: 3464230143 heartbeat IPC: 0.6911 cumulative IPC: 0.3089 (Simulation time: 05 hr 18 min 18 sec)
Heartbeat CPU 0 instructions: 1080000166 cycles: 3479018126 heartbeat IPC: 0.6762 cumulative IPC: 0.3104 (Simulation time: 05 hr 19 min 35 sec)
Heartbeat CPU 0 instructions: 1090000166 cycles: 3493636728 heartbeat IPC: 0.6841 cumulative IPC: 0.312 (Simulation time: 05 hr 21 min 17 sec)
Heartbeat CPU 0 instructions: 1100000166 cycles: 3507936176 heartbeat IPC: 0.6993 cumulative IPC: 0.3136 (Simulation time: 05 hr 22 min 46 sec)
Heartbeat CPU 0 instructions: 1110000166 cycles: 3522626229 heartbeat IPC: 0.6807 cumulative IPC: 0.3151 (Simulation time: 05 hr 24 min 07 sec)
Heartbeat CPU 0 instructions: 1120000168 cycles: 3537063288 heartbeat IPC: 0.6927 cumulative IPC: 0.3166 (Simulation time: 05 hr 25 min 32 sec)
Heartbeat CPU 0 instructions: 1130000172 cycles: 3551789991 heartbeat IPC: 0.679 cumulative IPC: 0.3181 (Simulation time: 05 hr 26 min 44 sec)
Heartbeat CPU 0 instructions: 1140000176 cycles: 3566240944 heartbeat IPC: 0.692 cumulative IPC: 0.3197 (Simulation time: 05 hr 28 min 21 sec)
Heartbeat CPU 0 instructions: 1150000177 cycles: 3580645279 heartbeat IPC: 0.6942 cumulative IPC: 0.3212 (Simulation time: 05 hr 29 min 53 sec)
Heartbeat CPU 0 instructions: 1160000181 cycles: 3595119845 heartbeat IPC: 0.6909 cumulative IPC: 0.3227 (Simulation time: 05 hr 31 min 23 sec)
Heartbeat CPU 0 instructions: 1170000181 cycles: 3609741094 heartbeat IPC: 0.6839 cumulative IPC: 0.3241 (Simulation time: 05 hr 33 min 07 sec)
Heartbeat CPU 0 instructions: 1180000184 cycles: 3624199703 heartbeat IPC: 0.6916 cumulative IPC: 0.3256 (Simulation time: 05 hr 34 min 31 sec)
Heartbeat CPU 0 instructions: 1190000185 cycles: 3638944040 heartbeat IPC: 0.6782 cumulative IPC: 0.327 (Simulation time: 05 hr 36 min 04 sec)
Heartbeat CPU 0 instructions: 1200000186 cycles: 3653531905 heartbeat IPC: 0.6855 cumulative IPC: 0.3284 (Simulation time: 05 hr 37 min 52 sec)
Heartbeat CPU 0 instructions: 1210000189 cycles: 3668054547 heartbeat IPC: 0.6886 cumulative IPC: 0.3299 (Simulation time: 05 hr 39 min 24 sec)
Heartbeat CPU 0 instructions: 1220000191 cycles: 3682607861 heartbeat IPC: 0.6871 cumulative IPC: 0.3313 (Simulation time: 05 hr 41 min 11 sec)
Heartbeat CPU 0 instructions: 1230000191 cycles: 3697176785 heartbeat IPC: 0.6864 cumulative IPC: 0.3327 (Simulation time: 05 hr 42 min 57 sec)
Heartbeat CPU 0 instructions: 1240000192 cycles: 3711663566 heartbeat IPC: 0.6903 cumulative IPC: 0.3341 (Simulation time: 05 hr 44 min 22 sec)
Heartbeat CPU 0 instructions: 1250000193 cycles: 3726236606 heartbeat IPC: 0.6862 cumulative IPC: 0.3355 (Simulation time: 05 hr 45 min 40 sec)
Heartbeat CPU 0 instructions: 1260000195 cycles: 3740759437 heartbeat IPC: 0.6886 cumulative IPC: 0.3368 (Simulation time: 05 hr 47 min 06 sec)
Heartbeat CPU 0 instructions: 1270000195 cycles: 3755229398 heartbeat IPC: 0.6911 cumulative IPC: 0.3382 (Simulation time: 05 hr 48 min 21 sec)
Heartbeat CPU 0 instructions: 1280000196 cycles: 3769820019 heartbeat IPC: 0.6854 cumulative IPC: 0.3395 (Simulation time: 05 hr 49 min 45 sec)
Heartbeat CPU 0 instructions: 1290000197 cycles: 3784538311 heartbeat IPC: 0.6794 cumulative IPC: 0.3409 (Simulation time: 05 hr 51 min 08 sec)
Heartbeat CPU 0 instructions: 1300000199 cycles: 3798994601 heartbeat IPC: 0.6917 cumulative IPC: 0.3422 (Simulation time: 05 hr 52 min 30 sec)
Heartbeat CPU 0 instructions: 1310000199 cycles: 3813362668 heartbeat IPC: 0.696 cumulative IPC: 0.3435 (Simulation time: 05 hr 53 min 49 sec)
Heartbeat CPU 0 instructions: 1320000200 cycles: 3828025111 heartbeat IPC: 0.682 cumulative IPC: 0.3448 (Simulation time: 05 hr 55 min 11 sec)
Heartbeat CPU 0 instructions: 1330000200 cycles: 3842490266 heartbeat IPC: 0.6913 cumulative IPC: 0.3461 (Simulation time: 05 hr 56 min 33 sec)
Heartbeat CPU 0 instructions: 1340000202 cycles: 3857006632 heartbeat IPC: 0.6889 cumulative IPC: 0.3474 (Simulation time: 05 hr 58 min 00 sec)
Heartbeat CPU 0 instructions: 1350000205 cycles: 3871650134 heartbeat IPC: 0.6829 cumulative IPC: 0.3487 (Simulation time: 05 hr 59 min 37 sec)
Heartbeat CPU 0 instructions: 1360000205 cycles: 3885956270 heartbeat IPC: 0.699 cumulative IPC: 0.35 (Simulation time: 06 hr 01 min 13 sec)
Heartbeat CPU 0 instructions: 1370000207 cycles: 3900557722 heartbeat IPC: 0.6849 cumulative IPC: 0.3512 (Simulation time: 06 hr 02 min 42 sec)
Heartbeat CPU 0 instructions: 1380000207 cycles: 3915162630 heartbeat IPC: 0.6847 cumulative IPC: 0.3525 (Simulation time: 06 hr 04 min 09 sec)
Heartbeat CPU 0 instructions: 1390000207 cycles: 3929792087 heartbeat IPC: 0.6836 cumulative IPC: 0.3537 (Simulation time: 06 hr 05 min 44 sec)
Heartbeat CPU 0 instructions: 1400000207 cycles: 3944298669 heartbeat IPC: 0.6893 cumulative IPC: 0.3549 (Simulation time: 06 hr 07 min 30 sec)
Heartbeat CPU 0 instructions: 1410000207 cycles: 3958924792 heartbeat IPC: 0.6837 cumulative IPC: 0.3562 (Simulation time: 06 hr 09 min 17 sec)
Heartbeat CPU 0 instructions: 1420000207 cycles: 3973665504 heartbeat IPC: 0.6784 cumulative IPC: 0.3574 (Simulation time: 06 hr 10 min 51 sec)
Heartbeat CPU 0 instructions: 1430000211 cycles: 3988326915 heartbeat IPC: 0.6821 cumulative IPC: 0.3585 (Simulation time: 06 hr 12 min 35 sec)
Heartbeat CPU 0 instructions: 1440000213 cycles: 4003102801 heartbeat IPC: 0.6768 cumulative IPC: 0.3597 (Simulation time: 06 hr 13 min 59 sec)
Heartbeat CPU 0 instructions: 1450000215 cycles: 4017358654 heartbeat IPC: 0.7015 cumulative IPC: 0.3609 (Simulation time: 06 hr 15 min 33 sec)
Heartbeat CPU 0 instructions: 1460000218 cycles: 4031964375 heartbeat IPC: 0.6847 cumulative IPC: 0.3621 (Simulation time: 06 hr 17 min 05 sec)
Heartbeat CPU 0 instructions: 1470000218 cycles: 4046433459 heartbeat IPC: 0.6911 cumulative IPC: 0.3633 (Simulation time: 06 hr 18 min 52 sec)
Heartbeat CPU 0 instructions: 1480000218 cycles: 4060986322 heartbeat IPC: 0.6872 cumulative IPC: 0.3644 (Simulation time: 06 hr 20 min 39 sec)
Heartbeat CPU 0 instructions: 1490000222 cycles: 4075495363 heartbeat IPC: 0.6892 cumulative IPC: 0.3656 (Simulation time: 06 hr 22 min 18 sec)
Heartbeat CPU 0 instructions: 1500000226 cycles: 4090088200 heartbeat IPC: 0.6853 cumulative IPC: 0.3667 (Simulation time: 06 hr 23 min 52 sec)
Heartbeat CPU 0 instructions: 1510000228 cycles: 4104697644 heartbeat IPC: 0.6845 cumulative IPC: 0.3679 (Simulation time: 06 hr 25 min 40 sec)
Heartbeat CPU 0 instructions: 1520000228 cycles: 4119291750 heartbeat IPC: 0.6852 cumulative IPC: 0.369 (Simulation time: 06 hr 27 min 02 sec)
Heartbeat CPU 0 instructions: 1530000229 cycles: 4134028786 heartbeat IPC: 0.6786 cumulative IPC: 0.3701 (Simulation time: 06 hr 28 min 30 sec)
Heartbeat CPU 0 instructions: 1540000230 cycles: 4148712179 heartbeat IPC: 0.681 cumulative IPC: 0.3712 (Simulation time: 06 hr 29 min 45 sec)
Heartbeat CPU 0 instructions: 1550000230 cycles: 4163620370 heartbeat IPC: 0.6708 cumulative IPC: 0.3723 (Simulation time: 06 hr 31 min 31 sec)
Heartbeat CPU 0 instructions: 1560000231 cycles: 4178367328 heartbeat IPC: 0.6781 cumulative IPC: 0.3734 (Simulation time: 06 hr 33 min 14 sec)
Heartbeat CPU 0 instructions: 1570000233 cycles: 4193175697 heartbeat IPC: 0.6753 cumulative IPC: 0.3744 (Simulation time: 06 hr 35 min 03 sec)
Heartbeat CPU 0 instructions: 1580000237 cycles: 4208131190 heartbeat IPC: 0.6687 cumulative IPC: 0.3755 (Simulation time: 06 hr 36 min 53 sec)
Heartbeat CPU 0 instructions: 1590000240 cycles: 4223063553 heartbeat IPC: 0.6697 cumulative IPC: 0.3765 (Simulation time: 06 hr 38 min 35 sec)
Heartbeat CPU 0 instructions: 1600000244 cycles: 4237855268 heartbeat IPC: 0.6761 cumulative IPC: 0.3775 (Simulation time: 06 hr 40 min 23 sec)
Heartbeat CPU 0 instructions: 1610000244 cycles: 4252633044 heartbeat IPC: 0.6767 cumulative IPC: 0.3786 (Simulation time: 06 hr 41 min 35 sec)
Heartbeat CPU 0 instructions: 1620000248 cycles: 4267419258 heartbeat IPC: 0.6763 cumulative IPC: 0.3796 (Simulation time: 06 hr 42 min 48 sec)
Heartbeat CPU 0 instructions: 1630000248 cycles: 4282307116 heartbeat IPC: 0.6717 cumulative IPC: 0.3806 (Simulation time: 06 hr 44 min 14 sec)
Heartbeat CPU 0 instructions: 1640000252 cycles: 4297030894 heartbeat IPC: 0.6792 cumulative IPC: 0.3817 (Simulation time: 06 hr 45 min 54 sec)
Heartbeat CPU 0 instructions: 1650000253 cycles: 4311796294 heartbeat IPC: 0.6773 cumulative IPC: 0.3827 (Simulation time: 06 hr 47 min 42 sec)
Heartbeat CPU 0 instructions: 1660000256 cycles: 4326642320 heartbeat IPC: 0.6736 cumulative IPC: 0.3837 (Simulation time: 06 hr 49 min 31 sec)
Heartbeat CPU 0 instructions: 1670000258 cycles: 4341440394 heartbeat IPC: 0.6758 cumulative IPC: 0.3847 (Simulation time: 06 hr 51 min 12 sec)
Heartbeat CPU 0 instructions: 1680000261 cycles: 4356391885 heartbeat IPC: 0.6688 cumulative IPC: 0.3856 (Simulation time: 06 hr 52 min 26 sec)
Heartbeat CPU 0 instructions: 1690000261 cycles: 4371240188 heartbeat IPC: 0.6735 cumulative IPC: 0.3866 (Simulation time: 06 hr 53 min 59 sec)
Heartbeat CPU 0 instructions: 1700000265 cycles: 4386087687 heartbeat IPC: 0.6735 cumulative IPC: 0.3876 (Simulation time: 06 hr 55 min 46 sec)
Heartbeat CPU 0 instructions: 1710000266 cycles: 4400846807 heartbeat IPC: 0.6775 cumulative IPC: 0.3886 (Simulation time: 06 hr 57 min 21 sec)
Heartbeat CPU 0 instructions: 1720000269 cycles: 4415760135 heartbeat IPC: 0.6705 cumulative IPC: 0.3895 (Simulation time: 06 hr 58 min 59 sec)
Heartbeat CPU 0 instructions: 1730000270 cycles: 4430804190 heartbeat IPC: 0.6647 cumulative IPC: 0.3904 (Simulation time: 07 hr 00 min 41 sec)
Heartbeat CPU 0 instructions: 1740000273 cycles: 4445456468 heartbeat IPC: 0.6825 cumulative IPC: 0.3914 (Simulation time: 07 hr 02 min 06 sec)
Heartbeat CPU 0 instructions: 1750000274 cycles: 4460179592 heartbeat IPC: 0.6792 cumulative IPC: 0.3924 (Simulation time: 07 hr 03 min 37 sec)
Heartbeat CPU 0 instructions: 1760000274 cycles: 4475168489 heartbeat IPC: 0.6672 cumulative IPC: 0.3933 (Simulation time: 07 hr 04 min 55 sec)
Heartbeat CPU 0 instructions: 1770000277 cycles: 4490160659 heartbeat IPC: 0.667 cumulative IPC: 0.3942 (Simulation time: 07 hr 06 min 24 sec)
Heartbeat CPU 0 instructions: 1780000279 cycles: 4504940633 heartbeat IPC: 0.6766 cumulative IPC: 0.3951 (Simulation time: 07 hr 07 min 45 sec)
Heartbeat CPU 0 instructions: 1790000283 cycles: 4519711738 heartbeat IPC: 0.677 cumulative IPC: 0.396 (Simulation time: 07 hr 09 min 06 sec)
Heartbeat CPU 0 instructions: 1800000284 cycles: 4534520376 heartbeat IPC: 0.6753 cumulative IPC: 0.397 (Simulation time: 07 hr 10 min 38 sec)
Heartbeat CPU 0 instructions: 1810000288 cycles: 4549231484 heartbeat IPC: 0.6798 cumulative IPC: 0.3979 (Simulation time: 07 hr 11 min 50 sec)
Heartbeat CPU 0 instructions: 1820000288 cycles: 4564209801 heartbeat IPC: 0.6676 cumulative IPC: 0.3988 (Simulation time: 07 hr 13 min 23 sec)
Heartbeat CPU 0 instructions: 1830000289 cycles: 4578901879 heartbeat IPC: 0.6806 cumulative IPC: 0.3997 (Simulation time: 07 hr 15 min 12 sec)
Heartbeat CPU 0 instructions: 1840000289 cycles: 4593656900 heartbeat IPC: 0.6777 cumulative IPC: 0.4006 (Simulation time: 07 hr 17 min 00 sec)
Heartbeat CPU 0 instructions: 1850000292 cycles: 4608490551 heartbeat IPC: 0.6741 cumulative IPC: 0.4014 (Simulation time: 07 hr 18 min 49 sec)
Heartbeat CPU 0 instructions: 1860000292 cycles: 4623342446 heartbeat IPC: 0.6733 cumulative IPC: 0.4023 (Simulation time: 07 hr 20 min 10 sec)
Heartbeat CPU 0 instructions: 1870000296 cycles: 4638216380 heartbeat IPC: 0.6723 cumulative IPC: 0.4032 (Simulation time: 07 hr 21 min 26 sec)
Heartbeat CPU 0 instructions: 1880000298 cycles: 4652990964 heartbeat IPC: 0.6768 cumulative IPC: 0.404 (Simulation time: 07 hr 22 min 45 sec)
Heartbeat CPU 0 instructions: 1890000302 cycles: 4667663380 heartbeat IPC: 0.6816 cumulative IPC: 0.4049 (Simulation time: 07 hr 24 min 22 sec)
Heartbeat CPU 0 instructions: 1900000302 cycles: 4682389428 heartbeat IPC: 0.6791 cumulative IPC: 0.4058 (Simulation time: 07 hr 25 min 39 sec)
Heartbeat CPU 0 instructions: 1910000305 cycles: 4697023002 heartbeat IPC: 0.6834 cumulative IPC: 0.4066 (Simulation time: 07 hr 27 min 04 sec)
Heartbeat CPU 0 instructions: 1920000307 cycles: 4711987780 heartbeat IPC: 0.6682 cumulative IPC: 0.4075 (Simulation time: 07 hr 28 min 30 sec)
Heartbeat CPU 0 instructions: 1930000310 cycles: 4726916725 heartbeat IPC: 0.6698 cumulative IPC: 0.4083 (Simulation time: 07 hr 29 min 48 sec)
Heartbeat CPU 0 instructions: 1940000310 cycles: 4741678182 heartbeat IPC: 0.6774 cumulative IPC: 0.4091 (Simulation time: 07 hr 31 min 05 sec)
Heartbeat CPU 0 instructions: 1950000311 cycles: 4756458816 heartbeat IPC: 0.6766 cumulative IPC: 0.41 (Simulation time: 07 hr 32 min 51 sec)
Heartbeat CPU 0 instructions: 1960000313 cycles: 4771079005 heartbeat IPC: 0.684 cumulative IPC: 0.4108 (Simulation time: 07 hr 34 min 34 sec)
Heartbeat CPU 0 instructions: 1970000313 cycles: 4785731708 heartbeat IPC: 0.6825 cumulative IPC: 0.4116 (Simulation time: 07 hr 36 min 21 sec)
Heartbeat CPU 0 instructions: 1980000314 cycles: 4800397833 heartbeat IPC: 0.6818 cumulative IPC: 0.4125 (Simulation time: 07 hr 38 min 03 sec)
Heartbeat CPU 0 instructions: 1990000314 cycles: 4814980147 heartbeat IPC: 0.6858 cumulative IPC: 0.4133 (Simulation time: 07 hr 39 min 36 sec)

=== ERROR PAGE STATISTICS ===
Mode: OFF
Total Error Accesses: 0
==============================
Simulation finished CPU 0 instructions: 1999999986 cycles: 4829532238 cumulative IPC: 0.4141 (Simulation time: 07 hr 41 min 19 sec)
Simulation complete CPU 0 instructions: 1999999986 cycles: 4829532238 cumulative IPC: 0.4141 (Simulation time: 07 hr 41 min 19 sec)

ChampSim completed all CPUs

=== Simulation ===
CPU 0 runs test_traces/620.omnetpp_s-141B.champsimtrace.xz

Region of Interest Statistics

CPU 0 cumulative IPC: 0.4141 instructions: 1999999986 cycles: 4829532238
CPU 0 Branch Prediction Accuracy: 92.96% MPKI: 14.8 Average ROB Occupancy at Mispredict: 42.45
Branch type MPKI
BRANCH_DIRECT_JUMP: 0.8484
BRANCH_INDIRECT: 0.3555
BRANCH_CONDITIONAL: 12.32
BRANCH_DIRECT_CALL: 0.0001295
BRANCH_INDIRECT_CALL: 0.8457
BRANCH_RETURN: 0.4309

cpu0->cpu0_STLB TOTAL        ACCESS:    7943786 HIT:    7943559 MISS:        227 MSHR_MERGE:          0
cpu0->cpu0_STLB LOAD         ACCESS:    7943786 HIT:    7943559 MISS:        227 MSHR_MERGE:          0
cpu0->cpu0_STLB RFO          ACCESS:          0 HIT:          0 MISS:          0 MSHR_MERGE:          0
cpu0->cpu0_STLB PREFETCH     ACCESS:          0 HIT:          0 MISS:          0 MSHR_MERGE:          0
cpu0->cpu0_STLB WRITE        ACCESS:          0 HIT:          0 MISS:          0 MSHR_MERGE:          0
cpu0->cpu0_STLB TRANSLATION  ACCESS:          0 HIT:          0 MISS:          0 MSHR_MERGE:          0
cpu0->cpu0_STLB PREFETCH REQUESTED:          0 ISSUED:          0 USEFUL:          0 USELESS:          0
cpu0->cpu0_STLB AVERAGE MISS LATENCY: 9.321e+06 cycles
cpu0->cpu0_L2C TOTAL        ACCESS:   56648414 HIT:   29476168 MISS:   27172246 MSHR_MERGE:          0
cpu0->cpu0_L2C LOAD         ACCESS:   33707214 HIT:   10164141 MISS:   23543073 MSHR_MERGE:          0
cpu0->cpu0_L2C RFO          ACCESS:    4839160 HIT:    1233032 MISS:    3606128 MSHR_MERGE:          0
cpu0->cpu0_L2C PREFETCH     ACCESS:          0 HIT:          0 MISS:          0 MSHR_MERGE:          0
cpu0->cpu0_L2C WRITE        ACCESS:   18102040 HIT:   18078995 MISS:      23045 MSHR_MERGE:          0
cpu0->cpu0_L2C TRANSLATION  ACCESS:          0 HIT:          0 MISS:          0 MSHR_MERGE:          0
cpu0->cpu0_L2C PREFETCH REQUESTED:          0 ISSUED:          0 USEFUL:          0 USELESS:          0
cpu0->cpu0_L2C AVERAGE MISS LATENCY: 88.55 cycles
cpu0->cpu0_L1I TOTAL        ACCESS:  267256455 HIT:  265533613 MISS:    1722842 MSHR_MERGE:     435755
cpu0->cpu0_L1I LOAD         ACCESS:  267256455 HIT:  265533613 MISS:    1722842 MSHR_MERGE:     435755
cpu0->cpu0_L1I RFO          ACCESS:          0 HIT:          0 MISS:          0 MSHR_MERGE:          0
cpu0->cpu0_L1I PREFETCH     ACCESS:          0 HIT:          0 MISS:          0 MSHR_MERGE:          0
cpu0->cpu0_L1I WRITE        ACCESS:          0 HIT:          0 MISS:          0 MSHR_MERGE:          0
cpu0->cpu0_L1I TRANSLATION  ACCESS:          0 HIT:          0 MISS:          0 MSHR_MERGE:          0
cpu0->cpu0_L1I PREFETCH REQUESTED:          0 ISSUED:          0 USEFUL:          0 USELESS:          0
cpu0->cpu0_L1I AVERAGE MISS LATENCY: 11.92 cycles
cpu0->cpu0_L1D TOTAL        ACCESS:  808786370 HIT:  751460588 MISS:   57325782 MSHR_MERGE:   20066361
cpu0->cpu0_L1D LOAD         ACCESS:  441104170 HIT:  397765523 MISS:   43338647 MSHR_MERGE:   10918433
cpu0->cpu0_L1D RFO          ACCESS:          0 HIT:          0 MISS:          0 MSHR_MERGE:          0
cpu0->cpu0_L1D PREFETCH     ACCESS:          0 HIT:          0 MISS:          0 MSHR_MERGE:          0
cpu0->cpu0_L1D WRITE        ACCESS:  367682200 HIT:  353695065 MISS:   13987135 MSHR_MERGE:    9147928
cpu0->cpu0_L1D TRANSLATION  ACCESS:          0 HIT:          0 MISS:          0 MSHR_MERGE:          0
cpu0->cpu0_L1D PREFETCH REQUESTED:          0 ISSUED:          0 USEFUL:          0 USELESS:          0
cpu0->cpu0_L1D AVERAGE MISS LATENCY: 73.22 cycles
cpu0->cpu0_ITLB TOTAL        ACCESS:  234322770 HIT:  234322766 MISS:          4 MSHR_MERGE:          1
cpu0->cpu0_ITLB LOAD         ACCESS:  234322770 HIT:  234322766 MISS:          4 MSHR_MERGE:          1
cpu0->cpu0_ITLB RFO          ACCESS:          0 HIT:          0 MISS:          0 MSHR_MERGE:          0
cpu0->cpu0_ITLB PREFETCH     ACCESS:          0 HIT:          0 MISS:          0 MSHR_MERGE:          0
cpu0->cpu0_ITLB WRITE        ACCESS:          0 HIT:          0 MISS:          0 MSHR_MERGE:          0
cpu0->cpu0_ITLB TRANSLATION  ACCESS:          0 HIT:          0 MISS:          0 MSHR_MERGE:          0
cpu0->cpu0_ITLB PREFETCH REQUESTED:          0 ISSUED:          0 USEFUL:          0 USELESS:          0
cpu0->cpu0_ITLB AVERAGE MISS LATENCY: 1.232e+07 cycles
cpu0->cpu0_DTLB TOTAL        ACCESS:  689736534 HIT:  680453543 MISS:    9282991 MSHR_MERGE:    1339208
cpu0->cpu0_DTLB LOAD         ACCESS:  689736534 HIT:  680453543 MISS:    9282991 MSHR_MERGE:    1339208
cpu0->cpu0_DTLB RFO          ACCESS:          0 HIT:          0 MISS:          0 MSHR_MERGE:          0
cpu0->cpu0_DTLB PREFETCH     ACCESS:          0 HIT:          0 MISS:          0 MSHR_MERGE:          0
cpu0->cpu0_DTLB WRITE        ACCESS:          0 HIT:          0 MISS:          0 MSHR_MERGE:          0
cpu0->cpu0_DTLB TRANSLATION  ACCESS:          0 HIT:          0 MISS:          0 MSHR_MERGE:          0
cpu0->cpu0_DTLB PREFETCH REQUESTED:          0 ISSUED:          0 USEFUL:          0 USELESS:          0
cpu0->cpu0_DTLB AVERAGE MISS LATENCY: 266.7 cycles
cpu0->LLC TOTAL        ACCESS:   40303034 HIT:   19732341 MISS:   20570693 MSHR_MERGE:          0
cpu0->LLC LOAD         ACCESS:   23543071 HIT:    5179974 MISS:   18363097 MSHR_MERGE:          0
cpu0->LLC RFO          ACCESS:    3606128 HIT:    1446352 MISS:    2159776 MSHR_MERGE:          0
cpu0->LLC PREFETCH     ACCESS:          0 HIT:          0 MISS:          0 MSHR_MERGE:          0
cpu0->LLC WRITE        ACCESS:   13153835 HIT:   13106015 MISS:      47820 MSHR_MERGE:          0
cpu0->LLC TRANSLATION  ACCESS:          0 HIT:          0 MISS:          0 MSHR_MERGE:          0
cpu0->LLC PREFETCH REQUESTED:          0 ISSUED:          0 USEFUL:          0 USELESS:          0
cpu0->LLC AVERAGE MISS LATENCY: 96.19 cycles

DRAM Statistics

Channel 0 RQ ROW_BUFFER_HIT:     360067
  ROW_BUFFER_MISS:    9900212
  AVG DBUS CONGESTED CYCLE: 13.54
Channel 0 WQ ROW_BUFFER_HIT:     750881
  ROW_BUFFER_MISS:    3994191
  FULL:          0
Channel 0 REFRESHES ISSUED:     402435

Channel 1 RQ ROW_BUFFER_HIT:     362310
  ROW_BUFFER_MISS:    9900714
  AVG DBUS CONGESTED CYCLE: 13.57
Channel 1 WQ ROW_BUFFER_HIT:     753497
  ROW_BUFFER_MISS:    4003210
  FULL:          0
Channel 1 REFRESHES ISSUED:     402435
