
*** ChampSim Multicore Out-of-Order Simulator ***
Warmup Instructions: 0
Simulation Instructions: 9223372036854775807
Number of CPUs: 1
Page size: 1048576

Off-chip DRAM Size: 64 GiB Channels: 2 Width: 32-bit Data Rate: 4807 MT/s
[ERROR_PAGE_MANAGER] Error latency: 0 
[ERROR_PAGE_MANAGER] Random seed: 54321 (fixed for preload reproducibility)
[ERROR_PAGE_MANAGER] Error pages off

=== ERROR PAGE STATISTICS ===
Mode: OFF
Total Error Accesses: 0
==============================
Warmup finished CPU 0 instructions: 0 cycles: 1 cumulative IPC: 0 (Simulation time: 00 hr 00 min 00 sec)
Warmup complete CPU 0 instructions: 0 cycles: 1 cumulative IPC: 0 (Simulation time: 00 hr 00 min 00 sec)
Simulation CPU 0 panic: IPC 0 < 0.01
Simulation CPU 0 panic: IPC 2e-07 < 0.01
Simulation CPU 0 panic: IPC 0 < 0.01
Simulation CPU 0 panic: IPC 2.1e-06 < 0.01
Simulation CPU 0 panic: IPC 0 < 0.01
Simulation CPU 0 panic: IPC 6.49e-05 < 0.01
Simulation CPU 0 warning: IPC 0.027624 < 0.05
Simulation CPU 0 warning: IPC 0.030096 < 0.05
Simulation CPU 0 warning: IPC 0.027793 < 0.05
Simulation CPU 0 warning: IPC 0.030094 < 0.05
Simulation CPU 0 warning: IPC 0.030096 < 0.05
Simulation CPU 0 critical: IPC 0.014829 < 0.02
Heartbeat CPU 0 instructions: 10000004 cycles: 174039089 heartbeat IPC: 0.05746 cumulative IPC: 0.05746 (Simulation time: 00 hr 17 min 35 sec)
Simulation CPU 0 warning: IPC 0.030342 < 0.05
Simulation CPU 0 warning: IPC 0.030075 < 0.05
Simulation CPU 0 panic: IPC 0.0033524 < 0.01
Simulation CPU 0 warning: IPC 0.047441 < 0.05
Simulation CPU 0 critical: IPC 0.015478 < 0.02
Heartbeat CPU 0 instructions: 20000004 cycles: 246576817 heartbeat IPC: 0.1379 cumulative IPC: 0.08111 (Simulation time: 00 hr 24 min 41 sec)
Simulation CPU 0 warning: IPC 0.024204 < 0.05
Simulation CPU 0 panic: IPC 0.0034267 < 0.01
Simulation CPU 0 warning: IPC 0.030094 < 0.05
Simulation CPU 0 panic: IPC 0.0061594 < 0.01
Simulation CPU 0 warning: IPC 0.030106 < 0.05
Simulation CPU 0 warning: IPC 0.030105 < 0.05
Simulation CPU 0 critical: IPC 0.014809 < 0.02
Heartbeat CPU 0 instructions: 30000005 cycles: 356002869 heartbeat IPC: 0.09139 cumulative IPC: 0.08427 (Simulation time: 00 hr 35 min 35 sec)
Simulation CPU 0 warning: IPC 0.030332 < 0.05
Simulation CPU 0 warning: IPC 0.030105 < 0.05
Simulation CPU 0 warning: IPC 0.021388 < 0.05
Simulation CPU 0 warning: IPC 0.027624 < 0.05
Simulation CPU 0 warning: IPC 0.030096 < 0.05
Simulation CPU 0 warning: IPC 0.024204 < 0.05
Heartbeat CPU 0 instructions: 40000008 cycles: 446932071 heartbeat IPC: 0.11 cumulative IPC: 0.0895 (Simulation time: 00 hr 45 min 14 sec)
Simulation CPU 0 critical: IPC 0.014829 < 0.02
Heartbeat CPU 0 instructions: 50000009 cycles: 510165626 heartbeat IPC: 0.1581 cumulative IPC: 0.09801 (Simulation time: 00 hr 52 min 31 sec)
Simulation CPU 0 warning: IPC 0.030323 < 0.05
Simulation CPU 0 warning: IPC 0.030106 < 0.05
Simulation CPU 0 warning: IPC 0.027634 < 0.05
Simulation CPU 0 warning: IPC 0.030094 < 0.05
Simulation CPU 0 panic: IPC 0.0025701 < 0.01
Heartbeat CPU 0 instructions: 60000010 cycles: 601301895 heartbeat IPC: 0.1097 cumulative IPC: 0.09978 (Simulation time: 01 hr 01 min 06 sec)
Simulation CPU 0 warning: IPC 0.030105 < 0.05
Simulation CPU 0 warning: IPC 0.030096 < 0.05
Simulation CPU 0 critical: IPC 0.014818 < 0.02
Heartbeat CPU 0 instructions: 70000013 cycles: 655305099 heartbeat IPC: 0.1852 cumulative IPC: 0.1068 (Simulation time: 01 hr 06 min 18 sec)
Simulation CPU 0 warning: IPC 0.030096 < 0.05
Simulation CPU 0 critical: IPC 0.017811 < 0.02
Simulation CPU 0 warning: IPC 0.027603 < 0.05
Simulation CPU 0 warning: IPC 0.030106 < 0.05
Simulation CPU 0 warning: IPC 0.020625 < 0.05
Heartbeat CPU 0 instructions: 80000013 cycles: 737539327 heartbeat IPC: 0.1216 cumulative IPC: 0.1085 (Simulation time: 01 hr 15 min 27 sec)
Simulation CPU 0 warning: IPC 0.030093 < 0.05
Heartbeat CPU 0 instructions: 90000014 cycles: 791958722 heartbeat IPC: 0.1838 cumulative IPC: 0.1136 (Simulation time: 01 hr 21 min 01 sec)
Simulation CPU 0 warning: IPC 0.030323 < 0.05
Simulation CPU 0 warning: IPC 0.026268 < 0.05
Simulation CPU 0 warning: IPC 0.031889 < 0.05
Simulation CPU 0 warning: IPC 0.027624 < 0.05
Simulation CPU 0 warning: IPC 0.029085 < 0.05
Simulation CPU 0 panic: IPC 0.0010113 < 0.01
Heartbeat CPU 0 instructions: 100000015 cycles: 882945445 heartbeat IPC: 0.1099 cumulative IPC: 0.1133 (Simulation time: 01 hr 30 min 50 sec)
Simulation CPU 0 warning: IPC 0.030105 < 0.05
Simulation CPU 0 warning: IPC 0.030086 < 0.05
Heartbeat CPU 0 instructions: 110000018 cycles: 936955413 heartbeat IPC: 0.1852 cumulative IPC: 0.1174 (Simulation time: 01 hr 35 min 26 sec)
Simulation CPU 0 warning: IPC 0.030096 < 0.05
Simulation CPU 0 critical: IPC 0.014219 < 0.02
Simulation CPU 0 warning: IPC 0.027613 < 0.05
Simulation CPU 0 warning: IPC 0.030105 < 0.05
Simulation CPU 0 critical: IPC 0.017035 < 0.02
Heartbeat CPU 0 instructions: 120000022 cycles: 1018856178 heartbeat IPC: 0.1221 cumulative IPC: 0.1178 (Simulation time: 01 hr 44 min 17 sec)
Simulation CPU 0 warning: IPC 0.039527 < 0.05
Simulation CPU 0 warning: IPC 0.029823 < 0.05
Simulation CPU 0 warning: IPC 0.030342 < 0.05
Simulation CPU 0 warning: IPC 0.022679 < 0.05
Simulation CPU 0 panic: IPC 0.0075351 < 0.01
Heartbeat CPU 0 instructions: 130000024 cycles: 1110296608 heartbeat IPC: 0.1094 cumulative IPC: 0.1171 (Simulation time: 01 hr 54 min 22 sec)
Simulation CPU 0 warning: IPC 0.027624 < 0.05
Simulation CPU 0 warning: IPC 0.025496 < 0.05
Simulation CPU 0 panic: IPC 0.0046006 < 0.01
Heartbeat CPU 0 instructions: 140000025 cycles: 1164351250 heartbeat IPC: 0.185 cumulative IPC: 0.1202 (Simulation time: 02 hr 00 min 07 sec)
Simulation CPU 0 warning: IPC 0.030084 < 0.05
Simulation CPU 0 warning: IPC 0.030105 < 0.05
Simulation CPU 0 warning: IPC 0.030321 < 0.05
Simulation CPU 0 warning: IPC 0.030106 < 0.05
Simulation CPU 0 critical: IPC 0.01063 < 0.02
Heartbeat CPU 0 instructions: 150000028 cycles: 1255412277 heartbeat IPC: 0.1098 cumulative IPC: 0.1195 (Simulation time: 02 hr 08 min 28 sec)
Simulation CPU 0 warning: IPC 0.027613 < 0.05
Simulation CPU 0 warning: IPC 0.030106 < 0.05
Simulation CPU 0 critical: IPC 0.013446 < 0.02
Heartbeat CPU 0 instructions: 160000029 cycles: 1309344028 heartbeat IPC: 0.1854 cumulative IPC: 0.1222 (Simulation time: 02 hr 13 min 02 sec)
Simulation CPU 0 warning: IPC 0.030155 < 0.05
Simulation CPU 0 warning: IPC 0.030086 < 0.05
Simulation CPU 0 warning: IPC 0.028684 < 0.05
Heartbeat CPU 0 instructions: 170000032 cycles: 1381803357 heartbeat IPC: 0.138 cumulative IPC: 0.123 (Simulation time: 02 hr 20 min 15 sec)
Simulation CPU 0 warning: IPC 0.027615 < 0.05
Simulation CPU 0 warning: IPC 0.021916 < 0.05
Simulation CPU 0 panic: IPC 0.0081896 < 0.01
Heartbeat CPU 0 instructions: 180000035 cycles: 1445278131 heartbeat IPC: 0.1575 cumulative IPC: 0.1245 (Simulation time: 02 hr 27 min 13 sec)
Simulation CPU 0 warning: IPC 0.030085 < 0.05
Simulation CPU 0 warning: IPC 0.030105 < 0.05
Simulation CPU 0 warning: IPC 0.030323 < 0.05
Simulation CPU 0 warning: IPC 0.030094 < 0.05
Simulation CPU 0 panic: IPC 0.0070504 < 0.01
Heartbeat CPU 0 instructions: 190000037 cycles: 1536416600 heartbeat IPC: 0.1097 cumulative IPC: 0.1237 (Simulation time: 02 hr 36 min 35 sec)
Simulation CPU 0 warning: IPC 0.027613 < 0.05
Simulation CPU 0 warning: IPC 0.030096 < 0.05
Simulation CPU 0 panic: IPC 0.0098667 < 0.01
Heartbeat CPU 0 instructions: 200000039 cycles: 1599833742 heartbeat IPC: 0.1577 cumulative IPC: 0.125 (Simulation time: 02 hr 43 min 39 sec)
Simulation CPU 0 warning: IPC 0.030106 < 0.05
Simulation CPU 0 warning: IPC 0.030096 < 0.05
Simulation CPU 0 warning: IPC 0.030332 < 0.05
Heartbeat CPU 0 instructions: 210000042 cycles: 1681639002 heartbeat IPC: 0.1222 cumulative IPC: 0.1249 (Simulation time: 02 hr 52 min 26 sec)
Simulation CPU 0 warning: IPC 0.027634 < 0.05
Simulation CPU 0 warning: IPC 0.030105 < 0.05
Simulation CPU 0 warning: IPC 0.027902 < 0.05
Simulation CPU 0 warning: IPC 0.030094 < 0.05
Simulation CPU 0 warning: IPC 0.030105 < 0.05
Heartbeat CPU 0 instructions: 220000046 cycles: 1763363444 heartbeat IPC: 0.1224 cumulative IPC: 0.1248 (Simulation time: 03 hr 01 min 22 sec)
Simulation CPU 0 warning: IPC 0.030094 < 0.05
Simulation CPU 0 panic: IPC 0.0034614 < 0.01
Heartbeat CPU 0 instructions: 230000048 cycles: 1817427897 heartbeat IPC: 0.185 cumulative IPC: 0.1266 (Simulation time: 03 hr 07 min 53 sec)
Simulation CPU 0 warning: IPC 0.027634 < 0.05
Simulation CPU 0 warning: IPC 0.030075 < 0.05
Simulation CPU 0 panic: IPC 0.0062872 < 0.01
Simulation CPU 0 warning: IPC 0.030096 < 0.05
Simulation CPU 0 warning: IPC 0.030105 < 0.05
Heartbeat CPU 0 instructions: 240000049 cycles: 1917569216 heartbeat IPC: 0.09986 cumulative IPC: 0.1252 (Simulation time: 03 hr 19 min 20 sec)
Simulation CPU 0 warning: IPC 0.047443 < 0.05
Simulation CPU 0 warning: IPC 0.034491 < 0.05
Heartbeat CPU 0 instructions: 250000050 cycles: 1962313926 heartbeat IPC: 0.2235 cumulative IPC: 0.1274 (Simulation time: 03 hr 24 min 27 sec)
Simulation CPU 0 warning: IPC 0.027624 < 0.05
Simulation CPU 0 warning: IPC 0.030105 < 0.05
Simulation CPU 0 warning: IPC 0.030663 < 0.05
Simulation CPU 0 warning: IPC 0.030105 < 0.05
Simulation CPU 0 warning: IPC 0.030075 < 0.05
Heartbeat CPU 0 instructions: 260000052 cycles: 2062626823 heartbeat IPC: 0.09969 cumulative IPC: 0.1261 (Simulation time: 03 hr 35 min 25 sec)
Simulation CPU 0 warning: IPC 0.029966 < 0.05
Heartbeat CPU 0 instructions: 270000054 cycles: 2098617746 heartbeat IPC: 0.2778 cumulative IPC: 0.1287 (Simulation time: 03 hr 39 min 37 sec)
Simulation CPU 0 warning: IPC 0.027615 < 0.05
Simulation CPU 0 warning: IPC 0.030094 < 0.05
Simulation CPU 0 panic: IPC 0.0026982 < 0.01
Simulation CPU 0 warning: IPC 0.033143 < 0.05
Heartbeat CPU 0 instructions: 280000055 cycles: 2189724459 heartbeat IPC: 0.1098 cumulative IPC: 0.1279 (Simulation time: 03 hr 48 min 05 sec)
Simulation CPU 0 warning: IPC 0.030321 < 0.05
Simulation CPU 0 warning: IPC 0.030105 < 0.05
Simulation CPU 0 warning: IPC 0.04044 < 0.05
Simulation CPU 0 warning: IPC 0.027613 < 0.05
Heartbeat CPU 0 instructions: 290000059 cycles: 2262510082 heartbeat IPC: 0.1374 cumulative IPC: 0.1282 (Simulation time: 03 hr 54 min 54 sec)
Simulation CPU 0 warning: IPC 0.030096 < 0.05
Simulation CPU 0 warning: IPC 0.020743 < 0.05
Simulation CPU 0 warning: IPC 0.030105 < 0.05
Simulation CPU 0 warning: IPC 0.030084 < 0.05
Heartbeat CPU 0 instructions: 300000062 cycles: 2334966673 heartbeat IPC: 0.138 cumulative IPC: 0.1285 (Simulation time: 04 hr 02 min 26 sec)
Simulation CPU 0 warning: IPC 0.030342 < 0.05
Simulation CPU 0 warning: IPC 0.026377 < 0.05
Simulation CPU 0 panic: IPC 0.0037194 < 0.01
Simulation CPU 0 warning: IPC 0.027624 < 0.05
Simulation CPU 0 warning: IPC 0.029203 < 0.05
Simulation CPU 0 panic: IPC 0.0009026 < 0.01
Heartbeat CPU 0 instructions: 310000062 cycles: 2425930111 heartbeat IPC: 0.1099 cumulative IPC: 0.1278 (Simulation time: 04 hr 11 min 42 sec)
Simulation CPU 0 warning: IPC 0.030105 < 0.05
Heartbeat CPU 0 instructions: 320000065 cycles: 2470677682 heartbeat IPC: 0.2235 cumulative IPC: 0.1295 (Simulation time: 04 hr 16 min 36 sec)
Simulation CPU 0 warning: IPC 0.030105 < 0.05
Simulation CPU 0 critical: IPC 0.014328 < 0.02
Simulation CPU 0 warning: IPC 0.027613 < 0.05
Simulation CPU 0 warning: IPC 0.030096 < 0.05
Simulation CPU 0 critical: IPC 0.017153 < 0.02
Heartbeat CPU 0 instructions: 330000065 cycles: 2552516786 heartbeat IPC: 0.1222 cumulative IPC: 0.1293 (Simulation time: 04 hr 24 min 35 sec)
Simulation CPU 0 warning: IPC 0.030096 < 0.05
Simulation CPU 0 warning: IPC 0.030105 < 0.05
Heartbeat CPU 0 instructions: 340000066 cycles: 2615779523 heartbeat IPC: 0.1581 cumulative IPC: 0.13 (Simulation time: 04 hr 31 min 14 sec)
Simulation CPU 0 warning: IPC 0.030323 < 0.05
Simulation CPU 0 warning: IPC 0.022807 < 0.05
Simulation CPU 0 panic: IPC 0.0072984 < 0.01
Simulation CPU 0 warning: IPC 0.027624 < 0.05
Simulation CPU 0 warning: IPC 0.025614 < 0.05
Simulation CPU 0 panic: IPC 0.0044916 < 0.01
Heartbeat CPU 0 instructions: 350000070 cycles: 2706684939 heartbeat IPC: 0.11 cumulative IPC: 0.1293 (Simulation time: 04 hr 39 min 48 sec)
Simulation CPU 0 warning: IPC 0.030094 < 0.05
Simulation CPU 0 warning: IPC 0.030096 < 0.05
Heartbeat CPU 0 instructions: 360000070 cycles: 2760737090 heartbeat IPC: 0.185 cumulative IPC: 0.1304 (Simulation time: 04 hr 45 min 25 sec)
Simulation CPU 0 critical: IPC 0.010758 < 0.02
Simulation CPU 0 warning: IPC 0.027603 < 0.05
Simulation CPU 0 warning: IPC 0.030106 < 0.05
Heartbeat CPU 0 instructions: 370000071 cycles: 2851753275 heartbeat IPC: 0.1099 cumulative IPC: 0.1297 (Simulation time: 04 hr 54 min 16 sec)
Simulation CPU 0 warning: IPC 0.030096 < 0.05
Simulation CPU 0 warning: IPC 0.030105 < 0.05
Heartbeat CPU 0 instructions: 380000075 cycles: 2905739005 heartbeat IPC: 0.1852 cumulative IPC: 0.1308 (Simulation time: 05 hr 00 min 25 sec)
Simulation CPU 0 warning: IPC 0.030105 < 0.05
Simulation CPU 0 warning: IPC 0.028793 < 0.05
Simulation CPU 0 panic: IPC 0 < 0.01
Simulation CPU 0 warning: IPC 0.027634 < 0.05
Simulation CPU 0 warning: IPC 0.023519 < 0.05
Heartbeat CPU 0 instructions: 390000077 cycles: 2992265360 heartbeat IPC: 0.1156 cumulative IPC: 0.1303 (Simulation time: 05 hr 08 min 34 sec)
Simulation CPU 0 warning: IPC 0.030094 < 0.05
Simulation CPU 0 warning: IPC 0.030096 < 0.05
Simulation CPU 0 warning: IPC 0.030332 < 0.05
Simulation CPU 0 warning: IPC 0.030085 < 0.05
Simulation CPU 0 panic: IPC 0.0071684 < 0.01
Heartbeat CPU 0 instructions: 400000080 cycles: 3083375409 heartbeat IPC: 0.1098 cumulative IPC: 0.1297 (Simulation time: 05 hr 17 min 59 sec)
Simulation CPU 0 warning: IPC 0.027613 < 0.05
Simulation CPU 0 warning: IPC 0.030105 < 0.05
Simulation CPU 0 panic: IPC 0.0099852 < 0.01
Heartbeat CPU 0 instructions: 410000081 cycles: 3137365892 heartbeat IPC: 0.1852 cumulative IPC: 0.1307 (Simulation time: 05 hr 23 min 43 sec)
Simulation CPU 0 warning: IPC 0.030106 < 0.05
Simulation CPU 0 warning: IPC 0.030105 < 0.05
Simulation CPU 0 warning: IPC 0.03917 < 0.05
Simulation CPU 0 warning: IPC 0.025204 < 0.05
Heartbeat CPU 0 instructions: 420000081 cycles: 3219145563 heartbeat IPC: 0.1223 cumulative IPC: 0.1305 (Simulation time: 05 hr 31 min 41 sec)
Simulation CPU 0 warning: IPC 0.027624 < 0.05
Simulation CPU 0 warning: IPC 0.031043 < 0.05
Heartbeat CPU 0 instructions: 430000081 cycles: 3273307802 heartbeat IPC: 0.1846 cumulative IPC: 0.1314 (Simulation time: 05 hr 36 min 50 sec)
Simulation CPU 0 warning: IPC 0.030075 < 0.05
Simulation CPU 0 warning: IPC 0.030105 < 0.05
Simulation CPU 0 warning: IPC 0.030332 < 0.05
Simulation CPU 0 warning: IPC 0.030094 < 0.05
Simulation CPU 0 panic: IPC 0.0035794 < 0.01
Heartbeat CPU 0 instructions: 440000085 cycles: 3364271204 heartbeat IPC: 0.1099 cumulative IPC: 0.1308 (Simulation time: 05 hr 45 min 41 sec)
Simulation CPU 0 warning: IPC 0.027624 < 0.05
Simulation CPU 0 warning: IPC 0.030094 < 0.05
Simulation CPU 0 panic: IPC 0.0063962 < 0.01
Heartbeat CPU 0 instructions: 450000086 cycles: 3427469299 heartbeat IPC: 0.1582 cumulative IPC: 0.1313 (Simulation time: 05 hr 51 min 55 sec)
Simulation CPU 0 warning: IPC 0.030105 < 0.05
Simulation CPU 0 warning: IPC 0.030096 < 0.05
Simulation CPU 0 warning: IPC 0.030342 < 0.05
Simulation CPU 0 warning: IPC 0.030096 < 0.05
Simulation CPU 0 warning: IPC 0.021624 < 0.05
Heartbeat CPU 0 instructions: 460000087 cycles: 3509242209 heartbeat IPC: 0.1223 cumulative IPC: 0.1311 (Simulation time: 06 hr 00 min 09 sec)
Simulation CPU 0 warning: IPC 0.044958 < 0.05
Simulation CPU 0 warning: IPC 0.024441 < 0.05
Heartbeat CPU 0 instructions: 470000088 cycles: 3572360292 heartbeat IPC: 0.1584 cumulative IPC: 0.1316 (Simulation time: 06 hr 06 min 30 sec)
Simulation CPU 0 warning: IPC 0.030096 < 0.05
Simulation CPU 0 warning: IPC 0.030093 < 0.05
Simulation CPU 0 warning: IPC 0.030084 < 0.05
Heartbeat CPU 0 instructions: 480000088 cycles: 3626651241 heartbeat IPC: 0.1842 cumulative IPC: 0.1324 (Simulation time: 06 hr 12 min 14 sec)
Simulation CPU 0 warning: IPC 0.027624 < 0.05
Simulation CPU 0 warning: IPC 0.030084 < 0.05
Simulation CPU 0 panic: IPC 0.0028165 < 0.01
Simulation CPU 0 warning: IPC 0.043407 < 0.05
Simulation CPU 0 warning: IPC 0.030105 < 0.05
Simulation CPU 0 warning: IPC 0.030096 < 0.05
Heartbeat CPU 0 instructions: 490000091 cycles: 3727189343 heartbeat IPC: 0.09946 cumulative IPC: 0.1315 (Simulation time: 06 hr 22 min 59 sec)
Simulation CPU 0 warning: IPC 0.030086 < 0.05
Simulation CPU 0 critical: IPC 0.018044 < 0.02
Heartbeat CPU 0 instructions: 500000092 cycles: 3781387948 heartbeat IPC: 0.1845 cumulative IPC: 0.1322 (Simulation time: 06 hr 28 min 00 sec)
Simulation CPU 0 warning: IPC 0.027613 < 0.05
Simulation CPU 0 warning: IPC 0.043045 < 0.05
Simulation CPU 0 warning: IPC 0.030106 < 0.05
Simulation CPU 0 warning: IPC 0.030093 < 0.05
Heartbeat CPU 0 instructions: 510000092 cycles: 3881770839 heartbeat IPC: 0.09962 cumulative IPC: 0.1314 (Simulation time: 06 hr 38 min 51 sec)
Simulation CPU 0 warning: IPC 0.030332 < 0.05
Simulation CPU 0 warning: IPC 0.026505 < 0.05
Simulation CPU 0 panic: IPC 0.0036006 < 0.01
Heartbeat CPU 0 instructions: 520000096 cycles: 3936003792 heartbeat IPC: 0.1844 cumulative IPC: 0.1321 (Simulation time: 06 hr 45 min 13 sec)
Simulation CPU 0 warning: IPC 0.027624 < 0.05
Simulation CPU 0 warning: IPC 0.029312 < 0.05
Simulation CPU 0 panic: IPC 0.0007846 < 0.01
Simulation CPU 0 warning: IPC 0.030096 < 0.05
Simulation CPU 0 warning: IPC 0.030105 < 0.05
Heartbeat CPU 0 instructions: 530000100 cycles: 4017702081 heartbeat IPC: 0.1224 cumulative IPC: 0.1319 (Simulation time: 06 hr 54 min 45 sec)
Simulation CPU 0 warning: IPC 0.044561 < 0.05
Simulation CPU 0 panic: IPC 0.0043697 < 0.01
Heartbeat CPU 0 instructions: 540000104 cycles: 4081095098 heartbeat IPC: 0.1577 cumulative IPC: 0.1323 (Simulation time: 07 hr 02 min 05 sec)
Simulation CPU 0 warning: IPC 0.027622 < 0.05
Simulation CPU 0 warning: IPC 0.038142 < 0.05
Simulation CPU 0 warning: IPC 0.030105 < 0.05
Simulation CPU 0 warning: IPC 0.030096 < 0.05
Heartbeat CPU 0 instructions: 550000108 cycles: 4162853919 heartbeat IPC: 0.1223 cumulative IPC: 0.1321 (Simulation time: 07 hr 11 min 28 sec)
Simulation CPU 0 warning: IPC 0.030332 < 0.05
Simulation CPU 0 warning: IPC 0.022916 < 0.05
Simulation CPU 0 panic: IPC 0.0071803 < 0.01
Simulation CPU 0 warning: IPC 0.027615 < 0.05
Simulation CPU 0 warning: IPC 0.025742 < 0.05
Simulation CPU 0 panic: IPC 0.0043637 < 0.01
Heartbeat CPU 0 instructions: 560000111 cycles: 4254262499 heartbeat IPC: 0.1094 cumulative IPC: 0.1316 (Simulation time: 07 hr 22 min 11 sec)
Simulation CPU 0 warning: IPC 0.030085 < 0.05
Simulation CPU 0 warning: IPC 0.030105 < 0.05
Heartbeat CPU 0 instructions: 570000112 cycles: 4308497750 heartbeat IPC: 0.1844 cumulative IPC: 0.1323 (Simulation time: 07 hr 28 min 35 sec)
Simulation CPU 0 warning: IPC 0.030105 < 0.05
Simulation CPU 0 critical: IPC 0.010866 < 0.02
Simulation CPU 0 warning: IPC 0.027613 < 0.05
Simulation CPU 0 warning: IPC 0.03269 < 0.05
Heartbeat CPU 0 instructions: 580000116 cycles: 4400046984 heartbeat IPC: 0.1092 cumulative IPC: 0.1318 (Simulation time: 07 hr 39 min 15 sec)
Simulation CPU 0 warning: IPC 0.030106 < 0.05
Simulation CPU 0 warning: IPC 0.030086 < 0.05
Heartbeat CPU 0 instructions: 590000117 cycles: 4444896839 heartbeat IPC: 0.223 cumulative IPC: 0.1327 (Simulation time: 07 hr 44 min 26 sec)
Simulation CPU 0 critical: IPC 0.01933 < 0.02
Simulation CPU 0 critical: IPC 0.010773 < 0.02
Simulation CPU 0 warning: IPC 0.028911 < 0.05
Simulation CPU 0 warning: IPC 0.027624 < 0.05
Simulation CPU 0 warning: IPC 0.022153 < 0.05
Simulation CPU 0 panic: IPC 0.0079527 < 0.01
Heartbeat CPU 0 instructions: 600000118 cycles: 4535872189 heartbeat IPC: 0.1099 cumulative IPC: 0.1323 (Simulation time: 07 hr 54 min 31 sec)
Simulation CPU 0 warning: IPC 0.030094 < 0.05
Simulation CPU 0 warning: IPC 0.030105 < 0.05
Heartbeat CPU 0 instructions: 610000122 cycles: 4589918048 heartbeat IPC: 0.185 cumulative IPC: 0.1329 (Simulation time: 08 hr 00 min 48 sec)
Simulation CPU 0 warning: IPC 0.030094 < 0.05
Simulation CPU 0 panic: IPC 0.0072774 < 0.01
Simulation CPU 0 warning: IPC 0.027613 < 0.05
Simulation CPU 0 warning: IPC 0.0402 < 0.05
Heartbeat CPU 0 instructions: 620000125 cycles: 4680858534 heartbeat IPC: 0.11 cumulative IPC: 0.1325 (Simulation time: 08 hr 10 min 27 sec)
Simulation CPU 0 warning: IPC 0.030096 < 0.05
Simulation CPU 0 warning: IPC 0.030105 < 0.05
Heartbeat CPU 0 instructions: 630000125 cycles: 4735007394 heartbeat IPC: 0.1847 cumulative IPC: 0.1331 (Simulation time: 08 hr 15 min 45 sec)
Simulation CPU 0 warning: IPC 0.030106 < 0.05
Simulation CPU 0 warning: IPC 0.025322 < 0.05
Simulation CPU 0 warning: IPC 0.027624 < 0.05
Simulation CPU 0 warning: IPC 0.030106 < 0.05
Simulation CPU 0 warning: IPC 0.028138 < 0.05
Heartbeat CPU 0 instructions: 640000126 cycles: 4816863384 heartbeat IPC: 0.1222 cumulative IPC: 0.1329 (Simulation time: 08 hr 23 min 45 sec)
Simulation CPU 0 warning: IPC 0.030094 < 0.05
Simulation CPU 0 warning: IPC 0.030096 < 0.05
Simulation CPU 0 critical: IPC 0.010465 < 0.02
Simulation CPU 0 warning: IPC 0.030075 < 0.05
Simulation CPU 0 panic: IPC 0.0037075 < 0.01
Heartbeat CPU 0 instructions: 650000127 cycles: 4907817371 heartbeat IPC: 0.1099 cumulative IPC: 0.1324 (Simulation time: 08 hr 32 min 50 sec)
Simulation CPU 0 warning: IPC 0.027615 < 0.05
Simulation CPU 0 warning: IPC 0.036608 < 0.05
Heartbeat CPU 0 instructions: 660000128 cycles: 4961805737 heartbeat IPC: 0.1852 cumulative IPC: 0.133 (Simulation time: 08 hr 39 min 24 sec)
Simulation CPU 0 warning: IPC 0.030096 < 0.05
Simulation CPU 0 warning: IPC 0.030105 < 0.05
Simulation CPU 0 warning: IPC 0.030323 < 0.05
Simulation CPU 0 warning: IPC 0.030105 < 0.05
Simulation CPU 0 warning: IPC 0.021742 < 0.05
Heartbeat CPU 0 instructions: 670000132 cycles: 5052776822 heartbeat IPC: 0.1099 cumulative IPC: 0.1326 (Simulation time: 08 hr 49 min 53 sec)
Simulation CPU 0 warning: IPC 0.027624 < 0.05
Simulation CPU 0 warning: IPC 0.030096 < 0.05
Simulation CPU 0 warning: IPC 0.024559 < 0.05
Heartbeat CPU 0 instructions: 680000133 cycles: 5106763746 heartbeat IPC: 0.1852 cumulative IPC: 0.1332 (Simulation time: 08 hr 56 min 23 sec)
Simulation CPU 0 warning: IPC 0.030106 < 0.05
Simulation CPU 0 warning: IPC 0.030084 < 0.05
Simulation CPU 0 warning: IPC 0.030085 < 0.05
Simulation CPU 0 panic: IPC 0.0001182 < 0.01
Heartbeat CPU 0 instructions: 690000136 cycles: 5179260045 heartbeat IPC: 0.1379 cumulative IPC: 0.1332 (Simulation time: 09 hr 04 min 37 sec)
Simulation CPU 0 warning: IPC 0.027634 < 0.05
Simulation CPU 0 warning: IPC 0.033019 < 0.05
Heartbeat CPU 0 instructions: 700000136 cycles: 5242770138 heartbeat IPC: 0.1575 cumulative IPC: 0.1335 (Simulation time: 09 hr 11 min 43 sec)
Simulation CPU 0 warning: IPC 0.030106 < 0.05
Simulation CPU 0 warning: IPC 0.030105 < 0.05
Simulation CPU 0 warning: IPC 0.03032 < 0.05
Simulation CPU 0 warning: IPC 0.030105 < 0.05
Simulation CPU 0 critical: IPC 0.018153 < 0.02
Heartbeat CPU 0 instructions: 710000139 cycles: 5338668776 heartbeat IPC: 0.1043 cumulative IPC: 0.133 (Simulation time: 09 hr 22 min 54 sec)
Simulation CPU 0 warning: IPC 0.030087 < 0.05
Simulation CPU 0 warning: IPC 0.020979 < 0.05
Heartbeat CPU 0 instructions: 720000143 cycles: 5401906529 heartbeat IPC: 0.1581 cumulative IPC: 0.1333 (Simulation time: 09 hr 30 min 15 sec)
Simulation CPU 0 warning: IPC 0.030096 < 0.05
Simulation CPU 0 warning: IPC 0.030094 < 0.05
Simulation CPU 0 warning: IPC 0.030323 < 0.05
Simulation CPU 0 warning: IPC 0.026623 < 0.05
Simulation CPU 0 panic: IPC 0.0034826 < 0.01
Heartbeat CPU 0 instructions: 730000143 cycles: 5483892372 heartbeat IPC: 0.122 cumulative IPC: 0.1331 (Simulation time: 09 hr 40 min 06 sec)
Simulation CPU 0 warning: IPC 0.027624 < 0.05
Simulation CPU 0 warning: IPC 0.02944 < 0.05
Simulation CPU 0 panic: IPC 0.0006658 < 0.01
Simulation CPU 0 warning: IPC 0.030105 < 0.05
Heartbeat CPU 0 instructions: 740000145 cycles: 5556662910 heartbeat IPC: 0.1374 cumulative IPC: 0.1332 (Simulation time: 09 hr 48 min 29 sec)
Simulation CPU 0 warning: IPC 0.030086 < 0.05
Simulation CPU 0 warning: IPC 0.030096 < 0.05
Simulation CPU 0 critical: IPC 0.014574 < 0.02
Heartbeat CPU 0 instructions: 750000149 cycles: 5620219192 heartbeat IPC: 0.1573 cumulative IPC: 0.1334 (Simulation time: 09 hr 55 min 02 sec)
Simulation CPU 0 critical: IPC 0.01739 < 0.02
Simulation CPU 0 warning: IPC 0.030087 < 0.05
Simulation CPU 0 warning: IPC 0.030105 < 0.05
Heartbeat CPU 0 instructions: 760000150 cycles: 5720581177 heartbeat IPC: 0.09964 cumulative IPC: 0.1329 (Simulation time: 10 hr 05 min 58 sec)
Simulation CPU 0 warning: IPC 0.030333 < 0.05
Simulation CPU 0 warning: IPC 0.023034 < 0.05
Simulation CPU 0 panic: IPC 0.0070714 < 0.01
Heartbeat CPU 0 instructions: 770000150 cycles: 5765545277 heartbeat IPC: 0.2224 cumulative IPC: 0.1336 (Simulation time: 10 hr 11 min 06 sec)
Simulation CPU 0 warning: IPC 0.027624 < 0.05
Simulation CPU 0 warning: IPC 0.025851 < 0.05
Simulation CPU 0 panic: IPC 0.0042455 < 0.01
Simulation CPU 0 warning: IPC 0.030094 < 0.05
Simulation CPU 0 warning: IPC 0.030096 < 0.05
Heartbeat CPU 0 instructions: 780000152 cycles: 5865755752 heartbeat IPC: 0.09979 cumulative IPC: 0.133 (Simulation time: 10 hr 20 min 50 sec)
Simulation CPU 0 warning: IPC 0.030096 < 0.05
Simulation CPU 0 critical: IPC 0.010984 < 0.02
Heartbeat CPU 0 instructions: 790000153 cycles: 5910888032 heartbeat IPC: 0.2216 cumulative IPC: 0.1337 (Simulation time: 10 hr 25 min 16 sec)
Simulation CPU 0 warning: IPC 0.020555 < 0.05
Simulation CPU 0 warning: IPC 0.030106 < 0.05
Simulation CPU 0 warning: IPC 0.030105 < 0.05
Heartbeat CPU 0 instructions: 800000155 cycles: 6001865452 heartbeat IPC: 0.1099 cumulative IPC: 0.1333 (Simulation time: 10 hr 34 min 53 sec)
Simulation CPU 0 warning: IPC 0.030342 < 0.05
Simulation CPU 0 warning: IPC 0.030105 < 0.05
Simulation CPU 0 warning: IPC 0.02902 < 0.05
Simulation CPU 0 warning: IPC 0.027624 < 0.05
Heartbeat CPU 0 instructions: 810000158 cycles: 6074476433 heartbeat IPC: 0.1377 cumulative IPC: 0.1333 (Simulation time: 10 hr 42 min 35 sec)
Simulation CPU 0 warning: IPC 0.022262 < 0.05
Simulation CPU 0 panic: IPC 0.0078348 < 0.01
Simulation CPU 0 warning: IPC 0.030084 < 0.05
Simulation CPU 0 warning: IPC 0.030105 < 0.05
Heartbeat CPU 0 instructions: 820000159 cycles: 6147094615 heartbeat IPC: 0.1377 cumulative IPC: 0.1334 (Simulation time: 10 hr 50 min 08 sec)
Simulation CPU 0 warning: IPC 0.030323 < 0.05
Simulation CPU 0 warning: IPC 0.030094 < 0.05
Simulation CPU 0 panic: IPC 0.0074052 < 0.01
Simulation CPU 0 warning: IPC 0.030105 < 0.05
Simulation CPU 0 critical: IPC 0.010212 < 0.02
Heartbeat CPU 0 instructions: 830000161 cycles: 6238027848 heartbeat IPC: 0.11 cumulative IPC: 0.1331 (Simulation time: 11 hr 00 min 08 sec)
Simulation CPU 0 warning: IPC 0.030105 < 0.05
Simulation CPU 0 warning: IPC 0.030096 < 0.05
Heartbeat CPU 0 instructions: 840000162 cycles: 6282787988 heartbeat IPC: 0.2234 cumulative IPC: 0.1337 (Simulation time: 11 hr 04 min 45 sec)
Simulation CPU 0 warning: IPC 0.030096 < 0.05
Simulation CPU 0 warning: IPC 0.02545 < 0.05
Simulation CPU 0 warning: IPC 0.027615 < 0.05
Simulation CPU 0 warning: IPC 0.030106 < 0.05
Simulation CPU 0 warning: IPC 0.028256 < 0.05
Heartbeat CPU 0 instructions: 850000162 cycles: 6364481590 heartbeat IPC: 0.1224 cumulative IPC: 0.1336 (Simulation time: 11 hr 14 min 00 sec)
Simulation CPU 0 warning: IPC 0.030085 < 0.05
Simulation CPU 0 warning: IPC 0.030105 < 0.05
Heartbeat CPU 0 instructions: 860000162 cycles: 6427675021 heartbeat IPC: 0.1582 cumulative IPC: 0.1338 (Simulation time: 11 hr 21 min 29 sec)
Simulation CPU 0 warning: IPC 0.030323 < 0.05
Simulation CPU 0 warning: IPC 0.030094 < 0.05
Simulation CPU 0 panic: IPC 0.0038162 < 0.01
Simulation CPU 0 warning: IPC 0.027634 < 0.05
Simulation CPU 0 warning: IPC 0.030075 < 0.05
Simulation CPU 0 panic: IPC 0.0066423 < 0.01
Heartbeat CPU 0 instructions: 870000163 cycles: 6518625925 heartbeat IPC: 0.1099 cumulative IPC: 0.1335 (Simulation time: 11 hr 31 min 12 sec)
Simulation CPU 0 warning: IPC 0.030106 < 0.05
Heartbeat CPU 0 instructions: 880000164 cycles: 6573100470 heartbeat IPC: 0.1836 cumulative IPC: 0.1339 (Simulation time: 11 hr 36 min 24 sec)
Simulation CPU 0 warning: IPC 0.030332 < 0.05
Simulation CPU 0 warning: IPC 0.030096 < 0.05
Simulation CPU 0 warning: IPC 0.02186 < 0.05
Simulation CPU 0 warning: IPC 0.027624 < 0.05
Simulation CPU 0 warning: IPC 0.030105 < 0.05
Simulation CPU 0 warning: IPC 0.024677 < 0.05
Heartbeat CPU 0 instructions: 890000167 cycles: 6664224583 heartbeat IPC: 0.1097 cumulative IPC: 0.1335 (Simulation time: 11 hr 45 min 25 sec)
Simulation CPU 0 warning: IPC 0.030106 < 0.05
Simulation CPU 0 warning: IPC 0.030093 < 0.05
Heartbeat CPU 0 instructions: 900000167 cycles: 6718242396 heartbeat IPC: 0.1851 cumulative IPC: 0.134 (Simulation time: 11 hr 51 min 45 sec)
Simulation CPU 0 warning: IPC 0.030094 < 0.05
Simulation CPU 0 panic: IPC 0.0002272 < 0.01
Simulation CPU 0 warning: IPC 0.027624 < 0.05
Simulation CPU 0 warning: IPC 0.030085 < 0.05
Simulation CPU 0 panic: IPC 0.003053 < 0.01
Heartbeat CPU 0 instructions: 910000170 cycles: 6799943630 heartbeat IPC: 0.1224 cumulative IPC: 0.1338 (Simulation time: 12 hr 01 min 28 sec)
Simulation CPU 0 warning: IPC 0.030086 < 0.05
Simulation CPU 0 warning: IPC 0.030321 < 0.05
Simulation CPU 0 warning: IPC 0.030106 < 0.05
Simulation CPU 0 critical: IPC 0.018271 < 0.02
Heartbeat CPU 0 instructions: 920000170 cycles: 6890951792 heartbeat IPC: 0.1099 cumulative IPC: 0.1335 (Simulation time: 12 hr 12 min 05 sec)
Simulation CPU 0 warning: IPC 0.027613 < 0.05
Simulation CPU 0 warning: IPC 0.030106 < 0.05
Simulation CPU 0 warning: IPC 0.021088 < 0.05
Heartbeat CPU 0 instructions: 930000172 cycles: 6945047262 heartbeat IPC: 0.1849 cumulative IPC: 0.1339 (Simulation time: 12 hr 18 min 23 sec)
Simulation CPU 0 warning: IPC 0.030105 < 0.05
Simulation CPU 0 warning: IPC 0.030084 < 0.05
Simulation CPU 0 warning: IPC 0.026732 < 0.05
Simulation CPU 0 panic: IPC 0.0033643 < 0.01
Heartbeat CPU 0 instructions: 940000173 cycles: 7026736560 heartbeat IPC: 0.1224 cumulative IPC: 0.1338 (Simulation time: 12 hr 27 min 54 sec)
Simulation CPU 0 warning: IPC 0.027615 < 0.05
Simulation CPU 0 warning: IPC 0.029558 < 0.05
Simulation CPU 0 panic: IPC 0.0005477 < 0.01
Heartbeat CPU 0 instructions: 950000174 cycles: 7080676938 heartbeat IPC: 0.1854 cumulative IPC: 0.1342 (Simulation time: 12 hr 34 min 27 sec)
Simulation CPU 0 warning: IPC 0.030096 < 0.05
Simulation CPU 0 warning: IPC 0.044333 < 0.05
Simulation CPU 0 warning: IPC 0.030321 < 0.05
Simulation CPU 0 warning: IPC 0.030105 < 0.05
Simulation CPU 0 critical: IPC 0.014682 < 0.02
Heartbeat CPU 0 instructions: 960000177 cycles: 7171858833 heartbeat IPC: 0.1097 cumulative IPC: 0.1339 (Simulation time: 12 hr 43 min 35 sec)
Simulation CPU 0 warning: IPC 0.027613 < 0.05
Simulation CPU 0 warning: IPC 0.030096 < 0.05
Simulation CPU 0 critical: IPC 0.017508 < 0.02
Heartbeat CPU 0 instructions: 970000177 cycles: 7235688883 heartbeat IPC: 0.1567 cumulative IPC: 0.1341 (Simulation time: 12 hr 49 min 45 sec)
Simulation CPU 0 warning: IPC 0.030105 < 0.05
Simulation CPU 0 warning: IPC 0.030096 < 0.05
Simulation CPU 0 warning: IPC 0.030342 < 0.05
Simulation CPU 0 warning: IPC 0.023142 < 0.05
Simulation CPU 0 panic: IPC 0.0069438 < 0.01
Heartbeat CPU 0 instructions: 980000178 cycles: 7317828958 heartbeat IPC: 0.1217 cumulative IPC: 0.1339 (Simulation time: 12 hr 57 min 26 sec)
Simulation CPU 0 warning: IPC 0.027624 < 0.05
Simulation CPU 0 warning: IPC 0.025969 < 0.05
Simulation CPU 0 panic: IPC 0.0041368 < 0.01
Heartbeat CPU 0 instructions: 990000178 cycles: 7381157629 heartbeat IPC: 0.1579 cumulative IPC: 0.1341 (Simulation time: 13 hr 04 min 50 sec)
Simulation CPU 0 warning: IPC 0.030094 < 0.05
Simulation CPU 0 warning: IPC 0.032105 < 0.05
Simulation CPU 0 warning: IPC 0.030105 < 0.05
Simulation CPU 0 critical: IPC 0.011103 < 0.02
Heartbeat CPU 0 instructions: 1000000180 cycles: 7444430766 heartbeat IPC: 0.158 cumulative IPC: 0.1343 (Simulation time: 13 hr 12 min 28 sec)
Simulation CPU 0 warning: IPC 0.027613 < 0.05
Simulation CPU 0 warning: IPC 0.030096 < 0.05
Simulation CPU 0 critical: IPC 0.013919 < 0.02
Simulation CPU 0 warning: IPC 0.030096 < 0.05
Simulation CPU 0 warning: IPC 0.030105 < 0.05
Heartbeat CPU 0 instructions: 1010000180 cycles: 7544622278 heartbeat IPC: 0.09981 cumulative IPC: 0.1339 (Simulation time: 13 hr 22 min 54 sec)
Simulation CPU 0 warning: IPC 0.030323 < 0.05
Simulation CPU 0 warning: IPC 0.030106 < 0.05
Simulation CPU 0 panic: IPC 0 < 0.01
Simulation CPU 0 warning: IPC 0.029147 < 0.05
Heartbeat CPU 0 instructions: 1020000183 cycles: 7603322019 heartbeat IPC: 0.1704 cumulative IPC: 0.1342 (Simulation time: 13 hr 29 min 56 sec)
Simulation CPU 0 warning: IPC 0.027634 < 0.05
Simulation CPU 0 warning: IPC 0.02238 < 0.05
Simulation CPU 0 panic: IPC 0.0077261 < 0.01
Simulation CPU 0 warning: IPC 0.030094 < 0.05
Simulation CPU 0 warning: IPC 0.030096 < 0.05
Heartbeat CPU 0 instructions: 1030000184 cycles: 7703713645 heartbeat IPC: 0.09961 cumulative IPC: 0.1337 (Simulation time: 13 hr 41 min 01 sec)
Simulation CPU 0 warning: IPC 0.030332 < 0.05
Simulation CPU 0 warning: IPC 0.030084 < 0.05
Simulation CPU 0 panic: IPC 0.0075235 < 0.01
Heartbeat CPU 0 instructions: 1040000185 cycles: 7748403916 heartbeat IPC: 0.2238 cumulative IPC: 0.1342 (Simulation time: 13 hr 46 min 19 sec)
Simulation CPU 0 warning: IPC 0.027603 < 0.05
Simulation CPU 0 warning: IPC 0.030106 < 0.05
Simulation CPU 0 critical: IPC 0.01034 < 0.02
Simulation CPU 0 warning: IPC 0.030105 < 0.05
Heartbeat CPU 0 instructions: 1050000186 cycles: 7839332186 heartbeat IPC: 0.11 cumulative IPC: 0.1339 (Simulation time: 13 hr 56 min 58 sec)
Simulation CPU 0 warning: IPC 0.030105 < 0.05
Simulation CPU 0 warning: IPC 0.025558 < 0.05
Simulation CPU 0 warning: IPC 0.02997 < 0.05
Simulation CPU 0 critical: IPC 0.018592 < 0.02
Simulation CPU 0 critical: IPC 0.014343 < 0.02
Heartbeat CPU 0 instructions: 1060000190 cycles: 7911858027 heartbeat IPC: 0.1379 cumulative IPC: 0.134 (Simulation time: 14 hr 04 min 47 sec)
Simulation CPU 0 warning: IPC 0.027624 < 0.05
Simulation CPU 0 warning: IPC 0.030096 < 0.05
Simulation CPU 0 warning: IPC 0.028385 < 0.05
Simulation CPU 0 warning: IPC 0.030094 < 0.05
Simulation CPU 0 warning: IPC 0.030086 < 0.05
Heartbeat CPU 0 instructions: 1070000194 cycles: 7993985045 heartbeat IPC: 0.1218 cumulative IPC: 0.1339 (Simulation time: 14 hr 13 min 56 sec)
Simulation CPU 0 warning: IPC 0.030342 < 0.05
Simulation CPU 0 warning: IPC 0.030085 < 0.05
Simulation CPU 0 panic: IPC 0.0039342 < 0.01
Simulation CPU 0 warning: IPC 0.027624 < 0.05
Simulation CPU 0 warning: IPC 0.030094 < 0.05
Simulation CPU 0 panic: IPC 0.006751 < 0.01
Heartbeat CPU 0 instructions: 1080000194 cycles: 8085426417 heartbeat IPC: 0.1094 cumulative IPC: 0.1336 (Simulation time: 14 hr 23 min 35 sec)
Simulation CPU 0 warning: IPC 0.030106 < 0.05
Simulation CPU 0 warning: IPC 0.030105 < 0.05
Heartbeat CPU 0 instructions: 1090000194 cycles: 8139383471 heartbeat IPC: 0.1853 cumulative IPC: 0.1339 (Simulation time: 14 hr 29 min 49 sec)
Simulation CPU 0 warning: IPC 0.030105 < 0.05
Simulation CPU 0 warning: IPC 0.027624 < 0.05
Simulation CPU 0 warning: IPC 0.030096 < 0.05
Simulation CPU 0 warning: IPC 0.024795 < 0.05
Heartbeat CPU 0 instructions: 1100000194 cycles: 8221475292 heartbeat IPC: 0.1218 cumulative IPC: 0.1338 (Simulation time: 14 hr 38 min 14 sec)
Simulation CPU 0 warning: IPC 0.030096 < 0.05
Simulation CPU 0 warning: IPC 0.030094 < 0.05
Heartbeat CPU 0 instructions: 1110000196 cycles: 8266267137 heartbeat IPC: 0.2233 cumulative IPC: 0.1343 (Simulation time: 14 hr 43 min 41 sec)
Simulation CPU 0 panic: IPC 0.0092442 < 0.01
Simulation CPU 0 warning: IPC 0.030094 < 0.05
Simulation CPU 0 panic: IPC 0.0003452 < 0.01
Simulation CPU 0 warning: IPC 0.027624 < 0.05
Simulation CPU 0 warning: IPC 0.030094 < 0.05
Simulation CPU 0 panic: IPC 0.003162 < 0.01
Heartbeat CPU 0 instructions: 1120000200 cycles: 8357288660 heartbeat IPC: 0.1099 cumulative IPC: 0.134 (Simulation time: 14 hr 53 min 00 sec)
Simulation CPU 0 warning: IPC 0.030096 < 0.05
Heartbeat CPU 0 instructions: 1130000201 cycles: 8411648283 heartbeat IPC: 0.184 cumulative IPC: 0.1343 (Simulation time: 14 hr 58 min 21 sec)
Simulation CPU 0 warning: IPC 0.03033 < 0.05
Simulation CPU 0 warning: IPC 0.030086 < 0.05
Simulation CPU 0 warning: IPC 0.031833 < 0.05
Simulation CPU 0 warning: IPC 0.027603 < 0.05
Simulation CPU 0 warning: IPC 0.030106 < 0.05
Simulation CPU 0 warning: IPC 0.021206 < 0.05
Heartbeat CPU 0 instructions: 1140000204 cycles: 8502846749 heartbeat IPC: 0.1097 cumulative IPC: 0.1341 (Simulation time: 15 hr 08 min 42 sec)
Simulation CPU 0 warning: IPC 0.030096 < 0.05
Simulation CPU 0 warning: IPC 0.030093 < 0.05
Heartbeat CPU 0 instructions: 1150000204 cycles: 8556848454 heartbeat IPC: 0.1852 cumulative IPC: 0.1344 (Simulation time: 15 hr 15 min 02 sec)
Simulation CPU 0 warning: IPC 0.02686 < 0.05
Simulation CPU 0 panic: IPC 0.0032458 < 0.01
Simulation CPU 0 warning: IPC 0.027624 < 0.05
Simulation CPU 0 warning: IPC 0.029667 < 0.05
Simulation CPU 0 panic: IPC 0.0004295 < 0.01
Heartbeat CPU 0 instructions: 1160000206 cycles: 8638536143 heartbeat IPC: 0.1224 cumulative IPC: 0.1343 (Simulation time: 15 hr 24 min 26 sec)
Simulation CPU 0 warning: IPC 0.04209 < 0.05
Simulation CPU 0 critical: IPC 0.018118 < 0.02
Simulation CPU 0 warning: IPC 0.03032 < 0.05
Simulation CPU 0 warning: IPC 0.030096 < 0.05
Heartbeat CPU 0 instructions: 1170000207 cycles: 8729473226 heartbeat IPC: 0.11 cumulative IPC: 0.134 (Simulation time: 15 hr 34 min 44 sec)
Simulation CPU 0 warning: IPC 0.027622 < 0.05
Simulation CPU 0 warning: IPC 0.030105 < 0.05
Simulation CPU 0 critical: IPC 0.017617 < 0.02
Heartbeat CPU 0 instructions: 1180000209 cycles: 8783402937 heartbeat IPC: 0.1854 cumulative IPC: 0.1343 (Simulation time: 15 hr 40 min 43 sec)
Simulation CPU 0 warning: IPC 0.030106 < 0.05
Simulation CPU 0 warning: IPC 0.030105 < 0.05
Simulation CPU 0 warning: IPC 0.030332 < 0.05
Simulation CPU 0 warning: IPC 0.023271 < 0.05
Simulation CPU 0 panic: IPC 0.0068348 < 0.01
Heartbeat CPU 0 instructions: 1190000210 cycles: 8874372215 heartbeat IPC: 0.1099 cumulative IPC: 0.1341 (Simulation time: 15 hr 50 min 49 sec)
Simulation CPU 0 warning: IPC 0.027634 < 0.05
Simulation CPU 0 warning: IPC 0.026077 < 0.05
Simulation CPU 0 panic: IPC 0.004009 < 0.01
Heartbeat CPU 0 instructions: 1200000214 cycles: 8928613833 heartbeat IPC: 0.1844 cumulative IPC: 0.1344 (Simulation time: 15 hr 56 min 11 sec)
Simulation CPU 0 warning: IPC 0.030084 < 0.05
Simulation CPU 0 warning: IPC 0.030105 < 0.05
Simulation CPU 0 warning: IPC 0.030106 < 0.05
Simulation CPU 0 critical: IPC 0.017474 < 0.02
Heartbeat CPU 0 instructions: 1210000217 cycles: 9001167278 heartbeat IPC: 0.1378 cumulative IPC: 0.1344 (Simulation time: 16 hr 03 min 00 sec)
Simulation CPU 0 warning: IPC 0.027613 < 0.05
Simulation CPU 0 warning: IPC 0.030106 < 0.05
Simulation CPU 0 critical: IPC 0.014038 < 0.02
Heartbeat CPU 0 instructions: 1220000219 cycles: 9064434845 heartbeat IPC: 0.1581 cumulative IPC: 0.1346 (Simulation time: 16 hr 08 min 17 sec)
Simulation CPU 0 warning: IPC 0.030105 < 0.05
Simulation CPU 0 warning: IPC 0.030086 < 0.05
Simulation CPU 0 warning: IPC 0.030342 < 0.05
Simulation CPU 0 warning: IPC 0.030096 < 0.05
Simulation CPU 0 warning: IPC 0.029266 < 0.05
Heartbeat CPU 0 instructions: 1230000220 cycles: 9155433256 heartbeat IPC: 0.1099 cumulative IPC: 0.1343 (Simulation time: 16 hr 17 min 54 sec)
Simulation CPU 0 warning: IPC 0.027615 < 0.05
Simulation CPU 0 warning: IPC 0.022508 < 0.05
Simulation CPU 0 panic: IPC 0.0075979 < 0.01
Heartbeat CPU 0 instructions: 1240000220 cycles: 9218646022 heartbeat IPC: 0.1582 cumulative IPC: 0.1345 (Simulation time: 16 hr 25 min 34 sec)
Simulation CPU 0 warning: IPC 0.030075 < 0.05
Simulation CPU 0 warning: IPC 0.030105 < 0.05
Simulation CPU 0 warning: IPC 0.030094 < 0.05
Simulation CPU 0 panic: IPC 0.0076322 < 0.01
Heartbeat CPU 0 instructions: 1250000222 cycles: 9300362024 heartbeat IPC: 0.1224 cumulative IPC: 0.1344 (Simulation time: 16 hr 35 min 12 sec)
Simulation CPU 0 warning: IPC 0.027613 < 0.05
Simulation CPU 0 warning: IPC 0.040554 < 0.05
Simulation CPU 0 warning: IPC 0.030105 < 0.05
Heartbeat CPU 0 instructions: 1260000225 cycles: 9372992398 heartbeat IPC: 0.1377 cumulative IPC: 0.1344 (Simulation time: 16 hr 43 min 58 sec)
Simulation CPU 0 warning: IPC 0.030096 < 0.05
Simulation CPU 0 warning: IPC 0.030096 < 0.05
Simulation CPU 0 warning: IPC 0.025676 < 0.05
Heartbeat CPU 0 instructions: 1270000225 cycles: 9436465161 heartbeat IPC: 0.1575 cumulative IPC: 0.1346 (Simulation time: 16 hr 50 min 17 sec)
Simulation CPU 0 warning: IPC 0.027624 < 0.05
Simulation CPU 0 warning: IPC 0.030105 < 0.05
Simulation CPU 0 warning: IPC 0.028493 < 0.05
Simulation CPU 0 warning: IPC 0.030094 < 0.05
Simulation CPU 0 warning: IPC 0.030105 < 0.05
Heartbeat CPU 0 instructions: 1280000226 cycles: 9527427548 heartbeat IPC: 0.1099 cumulative IPC: 0.1343 (Simulation time: 16 hr 59 min 57 sec)
Simulation CPU 0 warning: IPC 0.030093 < 0.05
Simulation CPU 0 panic: IPC 0.0040434 < 0.01
Heartbeat CPU 0 instructions: 1290000227 cycles: 9581592673 heartbeat IPC: 0.1846 cumulative IPC: 0.1346 (Simulation time: 17 hr 05 min 20 sec)
Simulation CPU 0 warning: IPC 0.027624 < 0.05
Simulation CPU 0 warning: IPC 0.036954 < 0.05
Simulation CPU 0 warning: IPC 0.030096 < 0.05
Simulation CPU 0 warning: IPC 0.030105 < 0.05
Heartbeat CPU 0 instructions: 1300000230 cycles: 9681863202 heartbeat IPC: 0.09973 cumulative IPC: 0.1343 (Simulation time: 17 hr 15 min 24 sec)
Simulation CPU 0 warning: IPC 0.030106 < 0.05
Simulation CPU 0 warning: IPC 0.022097 < 0.05
Heartbeat CPU 0 instructions: 1310000231 cycles: 9726704596 heartbeat IPC: 0.223 cumulative IPC: 0.1347 (Simulation time: 17 hr 20 min 22 sec)
Simulation CPU 0 warning: IPC 0.027624 < 0.05
Simulation CPU 0 warning: IPC 0.030106 < 0.05
Simulation CPU 0 warning: IPC 0.024904 < 0.05
Simulation CPU 0 warning: IPC 0.030105 < 0.05
Simulation CPU 0 warning: IPC 0.030084 < 0.05
Heartbeat CPU 0 instructions: 1320000231 cycles: 9817836298 heartbeat IPC: 0.1097 cumulative IPC: 0.1344 (Simulation time: 17 hr 28 min 08 sec)
Simulation CPU 0 warning: IPC 0.039407 < 0.05
Simulation CPU 0 panic: IPC 0.0004733 < 0.01
Simulation CPU 0 panic: IPC 0 < 0.01
Simulation CPU 0 warning: IPC 0.027615 < 0.05
Heartbeat CPU 0 instructions: 1330000231 cycles: 9895129888 heartbeat IPC: 0.1294 cumulative IPC: 0.1344 (Simulation time: 17 hr 36 min 45 sec)
Simulation CPU 0 warning: IPC 0.030094 < 0.05
Simulation CPU 0 panic: IPC 0.00328 < 0.01
Simulation CPU 0 warning: IPC 0.030096 < 0.05
Simulation CPU 0 warning: IPC 0.030105 < 0.05
Heartbeat CPU 0 instructions: 1340000231 cycles: 9967602220 heartbeat IPC: 0.138 cumulative IPC: 0.1344 (Simulation time: 17 hr 43 min 25 sec)
Simulation CPU 0 warning: IPC 0.030311 < 0.05
Simulation CPU 0 warning: IPC 0.030105 < 0.05
Simulation CPU 0 critical: IPC 0.018508 < 0.02
Simulation CPU 0 warning: IPC 0.021334 < 0.05
Heartbeat CPU 0 instructions: 1350000231 cycles: 10058510721 heartbeat IPC: 0.11 cumulative IPC: 0.1342 (Simulation time: 17 hr 52 min 42 sec)
Simulation CPU 0 warning: IPC 0.030106 < 0.05
Simulation CPU 0 warning: IPC 0.030084 < 0.05
Heartbeat CPU 0 instructions: 1360000232 cycles: 10103528259 heartbeat IPC: 0.2221 cumulative IPC: 0.1346 (Simulation time: 17 hr 57 min 39 sec)
Simulation CPU 0 warning: IPC 0.026969 < 0.05
Simulation CPU 0 panic: IPC 0.0031278 < 0.01
Simulation CPU 0 warning: IPC 0.027624 < 0.05
Simulation CPU 0 warning: IPC 0.029794 < 0.05
Simulation CPU 0 panic: IPC 0.000311 < 0.01
Heartbeat CPU 0 instructions: 1370000234 cycles: 10185652356 heartbeat IPC: 0.1218 cumulative IPC: 0.1345 (Simulation time: 18 hr 06 min 30 sec)
Simulation CPU 0 warning: IPC 0.030106 < 0.05
Simulation CPU 0 warning: IPC 0.030105 < 0.05
Heartbeat CPU 0 instructions: 1380000236 cycles: 10249183589 heartbeat IPC: 0.1574 cumulative IPC: 0.1346 (Simulation time: 18 hr 13 min 52 sec)
Simulation CPU 0 warning: IPC 0.035973 < 0.05
Simulation CPU 0 warning: IPC 0.030105 < 0.05
Simulation CPU 0 critical: IPC 0.014919 < 0.02
Simulation CPU 0 warning: IPC 0.04778 < 0.05
Simulation CPU 0 warning: IPC 0.027674 < 0.05
Heartbeat CPU 0 instructions: 1390000238 cycles: 10340113444 heartbeat IPC: 0.11 cumulative IPC: 0.1344 (Simulation time: 18 hr 23 min 54 sec)
Simulation CPU 0 warning: IPC 0.030086 < 0.05
Simulation CPU 0 warning: IPC 0.030094 < 0.05
Heartbeat CPU 0 instructions: 1400000242 cycles: 10394463920 heartbeat IPC: 0.184 cumulative IPC: 0.1347 (Simulation time: 18 hr 30 min 12 sec)
Simulation CPU 0 warning: IPC 0.030332 < 0.05
Simulation CPU 0 warning: IPC 0.023389 < 0.05
Simulation CPU 0 panic: IPC 0.0067168 < 0.01
Simulation CPU 0 warning: IPC 0.027624 < 0.05
Simulation CPU 0 warning: IPC 0.026206 < 0.05
Simulation CPU 0 panic: IPC 0.0039 < 0.01
Heartbeat CPU 0 instructions: 1410000243 cycles: 10485602731 heartbeat IPC: 0.1097 cumulative IPC: 0.1345 (Simulation time: 18 hr 39 min 35 sec)
Simulation CPU 0 warning: IPC 0.030094 < 0.05
Simulation CPU 0 warning: IPC 0.030096 < 0.05
Heartbeat CPU 0 instructions: 1420000247 cycles: 10540140735 heartbeat IPC: 0.1834 cumulative IPC: 0.1347 (Simulation time: 18 hr 45 min 56 sec)
Simulation CPU 0 warning: IPC 0.041436 < 0.05
Simulation CPU 0 warning: IPC 0.027603 < 0.05
Simulation CPU 0 warning: IPC 0.030106 < 0.05
Heartbeat CPU 0 instructions: 1430000248 cycles: 10622271744 heartbeat IPC: 0.1218 cumulative IPC: 0.1346 (Simulation time: 18 hr 55 min 48 sec)
Simulation CPU 0 warning: IPC 0.030096 < 0.05
Simulation CPU 0 warning: IPC 0.030105 < 0.05
Simulation CPU 0 warning: IPC 0.030333 < 0.05
Simulation CPU 0 warning: IPC 0.030105 < 0.05
Simulation CPU 0 warning: IPC 0.029374 < 0.05
Heartbeat CPU 0 instructions: 1440000252 cycles: 10713317986 heartbeat IPC: 0.1098 cumulative IPC: 0.1344 (Simulation time: 19 hr 05 min 09 sec)
Simulation CPU 0 warning: IPC 0.027624 < 0.05
Simulation CPU 0 warning: IPC 0.022616 < 0.05
Simulation CPU 0 panic: IPC 0.0074797 < 0.01
Heartbeat CPU 0 instructions: 1450000253 cycles: 10767312070 heartbeat IPC: 0.1852 cumulative IPC: 0.1347 (Simulation time: 19 hr 11 min 28 sec)
Simulation CPU 0 warning: IPC 0.030094 < 0.05
Simulation CPU 0 warning: IPC 0.030096 < 0.05
Simulation CPU 0 panic: IPC 0.00776 < 0.01
Heartbeat CPU 0 instructions: 1460000254 cycles: 10849226991 heartbeat IPC: 0.1221 cumulative IPC: 0.1346 (Simulation time: 19 hr 19 min 31 sec)
Simulation CPU 0 warning: IPC 0.027613 < 0.05
Simulation CPU 0 warning: IPC 0.030105 < 0.05
Simulation CPU 0 warning: IPC 0.042988 < 0.05
Heartbeat CPU 0 instructions: 1470000255 cycles: 10903694877 heartbeat IPC: 0.1836 cumulative IPC: 0.1348 (Simulation time: 19 hr 25 min 52 sec)
Simulation CPU 0 warning: IPC 0.030106 < 0.05
Simulation CPU 0 warning: IPC 0.030105 < 0.05
Simulation CPU 0 warning: IPC 0.030332 < 0.05
Simulation CPU 0 warning: IPC 0.030105 < 0.05
Simulation CPU 0 warning: IPC 0.025795 < 0.05
Heartbeat CPU 0 instructions: 1480000258 cycles: 10994921692 heartbeat IPC: 0.1096 cumulative IPC: 0.1346 (Simulation time: 19 hr 35 min 50 sec)
Simulation CPU 0 warning: IPC 0.027624 < 0.05
Simulation CPU 0 warning: IPC 0.030096 < 0.05
Simulation CPU 0 warning: IPC 0.028611 < 0.05
Heartbeat CPU 0 instructions: 1490000258 cycles: 11058199826 heartbeat IPC: 0.158 cumulative IPC: 0.1347 (Simulation time: 19 hr 41 min 50 sec)
Simulation CPU 0 warning: IPC 0.030084 < 0.05
Simulation CPU 0 warning: IPC 0.030105 < 0.05
Simulation CPU 0 warning: IPC 0.030094 < 0.05
Simulation CPU 0 panic: IPC 0.0041712 < 0.01
Heartbeat CPU 0 instructions: 1500000259 cycles: 11139861612 heartbeat IPC: 0.1225 cumulative IPC: 0.1347 (Simulation time: 19 hr 50 min 48 sec)
Simulation CPU 0 warning: IPC 0.027634 < 0.05
Simulation CPU 0 warning: IPC 0.037072 < 0.05
Heartbeat CPU 0 instructions: 1510000262 cycles: 11203094840 heartbeat IPC: 0.1581 cumulative IPC: 0.1348 (Simulation time: 19 hr 57 min 27 sec)
Simulation CPU 0 warning: IPC 0.030105 < 0.05
Simulation CPU 0 warning: IPC 0.030096 < 0.05
Simulation CPU 0 warning: IPC 0.030096 < 0.05
Simulation CPU 0 warning: IPC 0.022215 < 0.05
Heartbeat CPU 0 instructions: 1520000266 cycles: 11266579327 heartbeat IPC: 0.1575 cumulative IPC: 0.1349 (Simulation time: 20 hr 04 min 06 sec)
Simulation CPU 0 warning: IPC 0.027615 < 0.05
Simulation CPU 0 warning: IPC 0.030106 < 0.05
Simulation CPU 0 warning: IPC 0.025032 < 0.05
Simulation CPU 0 warning: IPC 0.030096 < 0.05
Simulation CPU 0 warning: IPC 0.030093 < 0.05
Heartbeat CPU 0 instructions: 1530000268 cycles: 11366990974 heartbeat IPC: 0.09959 cumulative IPC: 0.1346 (Simulation time: 20 hr 15 min 08 sec)
Simulation CPU 0 warning: IPC 0.030094 < 0.05
Simulation CPU 0 panic: IPC 0.000582 < 0.01
Heartbeat CPU 0 instructions: 1540000269 cycles: 11421230468 heartbeat IPC: 0.1844 cumulative IPC: 0.1348 (Simulation time: 20 hr 21 min 35 sec)
Simulation CPU 0 warning: IPC 0.027624 < 0.05
Simulation CPU 0 warning: IPC 0.033492 < 0.05
Simulation CPU 0 warning: IPC 0.030106 < 0.05
Simulation CPU 0 warning: IPC 0.030086 < 0.05
Heartbeat CPU 0 instructions: 1550000271 cycles: 11521575472 heartbeat IPC: 0.09966 cumulative IPC: 0.1345 (Simulation time: 20 hr 32 min 23 sec)
Simulation CPU 0 warning: IPC 0.03033 < 0.05
Simulation CPU 0 warning: IPC 0.030096 < 0.05
Simulation CPU 0 critical: IPC 0.018626 < 0.02
Heartbeat CPU 0 instructions: 1560000273 cycles: 11566518853 heartbeat IPC: 0.2225 cumulative IPC: 0.1349 (Simulation time: 20 hr 37 min 35 sec)
Simulation CPU 0 warning: IPC 0.027613 < 0.05
Simulation CPU 0 warning: IPC 0.030105 < 0.05
Simulation CPU 0 warning: IPC 0.021443 < 0.05
Simulation CPU 0 warning: IPC 0.030106 < 0.05
Simulation CPU 0 warning: IPC 0.030093 < 0.05
Heartbeat CPU 0 instructions: 1570000273 cycles: 11657380889 heartbeat IPC: 0.1101 cumulative IPC: 0.1347 (Simulation time: 20 hr 46 min 35 sec)
Simulation CPU 0 panic: IPC 0.0030188 < 0.01
Simulation CPU 0 panic: IPC 0.0014044 < 0.01
Heartbeat CPU 0 instructions: 1580000274 cycles: 11711285635 heartbeat IPC: 0.1855 cumulative IPC: 0.1349 (Simulation time: 20 hr 51 min 41 sec)
Simulation CPU 0 warning: IPC 0.027624 < 0.05
Simulation CPU 0 warning: IPC 0.030096 < 0.05
Simulation CPU 0 warning: IPC 0.030105 < 0.05
Heartbeat CPU 0 instructions: 1590000277 cycles: 11792947778 heartbeat IPC: 0.1225 cumulative IPC: 0.1348 (Simulation time: 20 hr 59 min 40 sec)
Simulation CPU 0 warning: IPC 0.030321 < 0.05
Simulation CPU 0 warning: IPC 0.030106 < 0.05
Simulation CPU 0 critical: IPC 0.015037 < 0.02
Simulation CPU 0 warning: IPC 0.027613 < 0.05
Simulation CPU 0 warning: IPC 0.030106 < 0.05
Heartbeat CPU 0 instructions: 1600000278 cycles: 11874996118 heartbeat IPC: 0.1219 cumulative IPC: 0.1347 (Simulation time: 21 hr 09 min 10 sec)
Simulation CPU 0 critical: IPC 0.017854 < 0.02
Simulation CPU 0 warning: IPC 0.030105 < 0.05
Simulation CPU 0 warning: IPC 0.030084 < 0.05
Heartbeat CPU 0 instructions: 1610000279 cycles: 11938378165 heartbeat IPC: 0.1578 cumulative IPC: 0.1349 (Simulation time: 21 hr 15 min 48 sec)
Simulation CPU 0 panic: IPC 0.0065887 < 0.01
Simulation CPU 0 warning: IPC 0.027615 < 0.05
Simulation CPU 0 warning: IPC 0.026324 < 0.05
Simulation CPU 0 warning: IPC 0.042282 < 0.05
Heartbeat CPU 0 instructions: 1620000279 cycles: 12020352916 heartbeat IPC: 0.122 cumulative IPC: 0.1348 (Simulation time: 21 hr 25 min 09 sec)
Simulation CPU 0 warning: IPC 0.030085 < 0.05
Simulation CPU 0 warning: IPC 0.030105 < 0.05
Heartbeat CPU 0 instructions: 1630000281 cycles: 12065210271 heartbeat IPC: 0.2229 cumulative IPC: 0.1351 (Simulation time: 21 hr 30 min 35 sec)
Simulation CPU 0 panic: IPC 0.0074889 < 0.01
Simulation CPU 0 warning: IPC 0.030311 < 0.05
Simulation CPU 0 warning: IPC 0.030105 < 0.05
Simulation CPU 0 critical: IPC 0.011458 < 0.02
Simulation CPU 0 warning: IPC 0.027613 < 0.05
Simulation CPU 0 warning: IPC 0.030096 < 0.05
Simulation CPU 0 critical: IPC 0.014274 < 0.02
Heartbeat CPU 0 instructions: 1640000282 cycles: 12165453329 heartbeat IPC: 0.09976 cumulative IPC: 0.1348 (Simulation time: 21 hr 42 min 20 sec)
Simulation CPU 0 warning: IPC 0.030105 < 0.05
Simulation CPU 0 warning: IPC 0.030096 < 0.05
Heartbeat CPU 0 instructions: 1650000284 cycles: 12219517889 heartbeat IPC: 0.185 cumulative IPC: 0.135 (Simulation time: 21 hr 48 min 24 sec)
Simulation CPU 0 warning: IPC 0.047749 < 0.05
Simulation CPU 0 warning: IPC 0.030096 < 0.05
Simulation CPU 0 warning: IPC 0.029502 < 0.05
Simulation CPU 0 warning: IPC 0.027634 < 0.05
Simulation CPU 0 warning: IPC 0.030105 < 0.05
Heartbeat CPU 0 instructions: 1660000285 cycles: 12310664575 heartbeat IPC: 0.1097 cumulative IPC: 0.1348 (Simulation time: 21 hr 57 min 51 sec)
Simulation CPU 0 warning: IPC 0.030094 < 0.05
Simulation CPU 0 warning: IPC 0.030105 < 0.05
Heartbeat CPU 0 instructions: 1670000285 cycles: 12364854109 heartbeat IPC: 0.1845 cumulative IPC: 0.1351 (Simulation time: 22 hr 04 min 08 sec)
Simulation CPU 0 warning: IPC 0.030094 < 0.05
Simulation CPU 0 panic: IPC 0.007869 < 0.01
Simulation CPU 0 warning: IPC 0.027623 < 0.05
Simulation CPU 0 warning: IPC 0.030086 < 0.05
Simulation CPU 0 critical: IPC 0.010695 < 0.02
Heartbeat CPU 0 instructions: 1680000286 cycles: 12446519874 heartbeat IPC: 0.1225 cumulative IPC: 0.135 (Simulation time: 22 hr 12 min 26 sec)
Simulation CPU 0 critical: IPC 0.013513 < 0.02
Simulation CPU 0 critical: IPC 0.01659 < 0.02
Simulation CPU 0 warning: IPC 0.030105 < 0.05
Simulation CPU 0 warning: IPC 0.030106 < 0.05
Heartbeat CPU 0 instructions: 1690000289 cycles: 12528691382 heartbeat IPC: 0.1217 cumulative IPC: 0.1349 (Simulation time: 22 hr 21 min 31 sec)
Simulation CPU 0 warning: IPC 0.025913 < 0.05
Simulation CPU 0 warning: IPC 0.027624 < 0.05
Simulation CPU 0 warning: IPC 0.030105 < 0.05
Heartbeat CPU 0 instructions: 1700000290 cycles: 12592291106 heartbeat IPC: 0.1572 cumulative IPC: 0.135 (Simulation time: 22 hr 27 min 33 sec)
Simulation CPU 0 warning: IPC 0.030094 < 0.05
Simulation CPU 0 warning: IPC 0.030086 < 0.05
Simulation CPU 0 warning: IPC 0.030342 < 0.05
Simulation CPU 0 warning: IPC 0.030084 < 0.05
Simulation CPU 0 panic: IPC 0.0042893 < 0.01
Heartbeat CPU 0 instructions: 1710000291 cycles: 12683373211 heartbeat IPC: 0.1098 cumulative IPC: 0.1348 (Simulation time: 22 hr 37 min 34 sec)
Simulation CPU 0 warning: IPC 0.027615 < 0.05
Simulation CPU 0 warning: IPC 0.030094 < 0.05
Simulation CPU 0 panic: IPC 0.007106 < 0.01
Heartbeat CPU 0 instructions: 1720000292 cycles: 12737784798 heartbeat IPC: 0.1838 cumulative IPC: 0.135 (Simulation time: 22 hr 44 min 08 sec)
Simulation CPU 0 warning: IPC 0.030086 < 0.05
Simulation CPU 0 warning: IPC 0.030105 < 0.05
Simulation CPU 0 warning: IPC 0.030105 < 0.05
Heartbeat CPU 0 instructions: 1730000293 cycles: 12810557338 heartbeat IPC: 0.1374 cumulative IPC: 0.135 (Simulation time: 22 hr 52 min 30 sec)
Simulation CPU 0 warning: IPC 0.027624 < 0.05
Simulation CPU 0 warning: IPC 0.030096 < 0.05
Simulation CPU 0 warning: IPC 0.02515 < 0.05
Simulation CPU 0 warning: IPC 0.039687 < 0.05
Heartbeat CPU 0 instructions: 1740000295 cycles: 12874115252 heartbeat IPC: 0.1573 cumulative IPC: 0.1352 (Simulation time: 23 hr 00 min 02 sec)
Simulation CPU 0 warning: IPC 0.030106 < 0.05
Simulation CPU 0 warning: IPC 0.030084 < 0.05
Simulation CPU 0 warning: IPC 0.030342 < 0.05
Simulation CPU 0 warning: IPC 0.030085 < 0.05
Simulation CPU 0 panic: IPC 0.0007 < 0.01
Heartbeat CPU 0 instructions: 1750000296 cycles: 12965197464 heartbeat IPC: 0.1098 cumulative IPC: 0.135 (Simulation time: 23 hr 10 min 14 sec)
Simulation CPU 0 warning: IPC 0.027624 < 0.05
Simulation CPU 0 warning: IPC 0.030094 < 0.05
Simulation CPU 0 panic: IPC 0.0035168 < 0.01
Heartbeat CPU 0 instructions: 1760000299 cycles: 13028387273 heartbeat IPC: 0.1583 cumulative IPC: 0.1351 (Simulation time: 23 hr 16 min 14 sec)
Simulation CPU 0 warning: IPC 0.030106 < 0.05
Simulation CPU 0 warning: IPC 0.030105 < 0.05
Simulation CPU 0 warning: IPC 0.030106 < 0.05
Simulation CPU 0 critical: IPC 0.018735 < 0.02
Heartbeat CPU 0 instructions: 1770000303 cycles: 13110277933 heartbeat IPC: 0.1221 cumulative IPC: 0.135 (Simulation time: 23 hr 25 min 07 sec)
Simulation CPU 0 warning: IPC 0.027613 < 0.05
Simulation CPU 0 warning: IPC 0.037265 < 0.05
Simulation CPU 0 warning: IPC 0.030096 < 0.05
Heartbeat CPU 0 instructions: 1780000303 cycles: 13182900267 heartbeat IPC: 0.1377 cumulative IPC: 0.135 (Simulation time: 23 hr 32 min 54 sec)
Simulation CPU 0 warning: IPC 0.030094 < 0.05
Simulation CPU 0 warning: IPC 0.027215 < 0.05
Simulation CPU 0 panic: IPC 0.002891 < 0.01
Heartbeat CPU 0 instructions: 1790000306 cycles: 13246248489 heartbeat IPC: 0.1579 cumulative IPC: 0.1351 (Simulation time: 23 hr 39 min 52 sec)
Simulation CPU 0 warning: IPC 0.027624 < 0.05
Simulation CPU 0 warning: IPC 0.030021 < 0.05
Simulation CPU 0 warning: IPC 0.030105 < 0.05
Simulation CPU 0 warning: IPC 0.030096 < 0.05
Heartbeat CPU 0 instructions: 1800000307 cycles: 13327922976 heartbeat IPC: 0.1224 cumulative IPC: 0.1351 (Simulation time: 23 hr 49 min 08 sec)
Simulation CPU 0 critical: IPC 0.015165 < 0.02
Heartbeat CPU 0 instructions: 1810000308 cycles: 13381904809 heartbeat IPC: 0.1852 cumulative IPC: 0.1353 (Simulation time: 23 hr 55 min 21 sec)
Simulation CPU 0 warning: IPC 0.027603 < 0.05
Simulation CPU 0 warning: IPC 0.030106 < 0.05
Simulation CPU 0 warning: IPC 0.030096 < 0.05
Simulation CPU 0 warning: IPC 0.030094 < 0.05
Heartbeat CPU 0 instructions: 1820000309 cycles: 13482184251 heartbeat IPC: 0.09972 cumulative IPC: 0.135 (Simulation time: 00 hr 05 min 53 sec)
Simulation CPU 0 warning: IPC 0.023625 < 0.05
Simulation CPU 0 panic: IPC 0.00648 < 0.01
Heartbeat CPU 0 instructions: 1830000310 cycles: 13527134221 heartbeat IPC: 0.2225 cumulative IPC: 0.1353 (Simulation time: 00 hr 10 min 43 sec)
Simulation CPU 0 warning: IPC 0.027634 < 0.05
Simulation CPU 0 warning: IPC 0.026432 < 0.05
Simulation CPU 0 panic: IPC 0.0036539 < 0.01
Simulation CPU 0 warning: IPC 0.030094 < 0.05
Simulation CPU 0 warning: IPC 0.030096 < 0.05
Heartbeat CPU 0 instructions: 1840000311 cycles: 13618137077 heartbeat IPC: 0.1099 cumulative IPC: 0.1351 (Simulation time: 00 hr 19 min 35 sec)
Simulation CPU 0 critical: IPC 0.011576 < 0.02
Heartbeat CPU 0 instructions: 1850000315 cycles: 13681463402 heartbeat IPC: 0.1579 cumulative IPC: 0.1352 (Simulation time: 00 hr 25 min 17 sec)
Simulation CPU 0 warning: IPC 0.027613 < 0.05
Simulation CPU 0 warning: IPC 0.030105 < 0.05
Simulation CPU 0 warning: IPC 0.030106 < 0.05
Simulation CPU 0 warning: IPC 0.030105 < 0.05
Heartbeat CPU 0 instructions: 1860000316 cycles: 13763135985 heartbeat IPC: 0.1224 cumulative IPC: 0.1351 (Simulation time: 00 hr 33 min 20 sec)
Simulation CPU 0 warning: IPC 0.030342 < 0.05
Simulation CPU 0 warning: IPC 0.030105 < 0.05
Simulation CPU 0 warning: IPC 0.02961 < 0.05
Simulation CPU 0 warning: IPC 0.027624 < 0.05
Simulation CPU 0 warning: IPC 0.022853 < 0.05
Simulation CPU 0 panic: IPC 0.0072432 < 0.01
Heartbeat CPU 0 instructions: 1870000316 cycles: 13854029623 heartbeat IPC: 0.11 cumulative IPC: 0.135 (Simulation time: 00 hr 41 min 26 sec)
Simulation CPU 0 warning: IPC 0.030075 < 0.05
Simulation CPU 0 warning: IPC 0.030105 < 0.05
Heartbeat CPU 0 instructions: 1880000318 cycles: 13898786168 heartbeat IPC: 0.2234 cumulative IPC: 0.1353 (Simulation time: 00 hr 45 min 28 sec)
Simulation CPU 0 panic: IPC 0.0097411 < 0.01
Simulation CPU 0 warning: IPC 0.027613 < 0.05
Simulation CPU 0 warning: IPC 0.030105 < 0.05
Heartbeat CPU 0 instructions: 1890000319 cycles: 13980457644 heartbeat IPC: 0.1224 cumulative IPC: 0.1352 (Simulation time: 00 hr 54 min 29 sec)
Simulation CPU 0 warning: IPC 0.030105 < 0.05
Simulation CPU 0 warning: IPC 0.030096 < 0.05
Heartbeat CPU 0 instructions: 1900000319 cycles: 14043800481 heartbeat IPC: 0.1579 cumulative IPC: 0.1353 (Simulation time: 01 hr 01 min 26 sec)
Simulation CPU 0 warning: IPC 0.030342 < 0.05
Simulation CPU 0 warning: IPC 0.030096 < 0.05
Simulation CPU 0 warning: IPC 0.026031 < 0.05
Simulation CPU 0 warning: IPC 0.027615 < 0.05
Simulation CPU 0 warning: IPC 0.030106 < 0.05
Simulation CPU 0 warning: IPC 0.028848 < 0.05
Heartbeat CPU 0 instructions: 1910000322 cycles: 14134982270 heartbeat IPC: 0.1097 cumulative IPC: 0.1351 (Simulation time: 01 hr 09 min 24 sec)
Simulation CPU 0 warning: IPC 0.030085 < 0.05
Simulation CPU 0 warning: IPC 0.030105 < 0.05
Heartbeat CPU 0 instructions: 1920000323 cycles: 14189119539 heartbeat IPC: 0.1847 cumulative IPC: 0.1353 (Simulation time: 01 hr 15 min 45 sec)
Simulation CPU 0 warning: IPC 0.030333 < 0.05
Simulation CPU 0 warning: IPC 0.030094 < 0.05
Simulation CPU 0 panic: IPC 0.004398 < 0.01
Simulation CPU 0 warning: IPC 0.040734 < 0.05
Simulation CPU 0 panic: IPC 0.0072241 < 0.01
Heartbeat CPU 0 instructions: 1930000324 cycles: 14280137044 heartbeat IPC: 0.1099 cumulative IPC: 0.1352 (Simulation time: 01 hr 25 min 43 sec)
Simulation CPU 0 warning: IPC 0.030105 < 0.05
Simulation CPU 0 warning: IPC 0.030096 < 0.05
Heartbeat CPU 0 instructions: 1940000325 cycles: 14325030969 heartbeat IPC: 0.2227 cumulative IPC: 0.1354 (Simulation time: 01 hr 30 min 53 sec)
Simulation CPU 0 warning: IPC 0.030086 < 0.05
Simulation CPU 0 warning: IPC 0.022452 < 0.05
Simulation CPU 0 warning: IPC 0.027624 < 0.05
Simulation CPU 0 warning: IPC 0.030105 < 0.05
Simulation CPU 0 warning: IPC 0.025259 < 0.05
Heartbeat CPU 0 instructions: 1950000326 cycles: 14416189177 heartbeat IPC: 0.1097 cumulative IPC: 0.1353 (Simulation time: 01 hr 40 min 25 sec)
Simulation CPU 0 warning: IPC 0.030106 < 0.05
Simulation CPU 0 warning: IPC 0.030093 < 0.05
Simulation CPU 0 warning: IPC 0.030332 < 0.05
Simulation CPU 0 warning: IPC 0.030094 < 0.05
Simulation CPU 0 panic: IPC 0.0008188 < 0.01
Heartbeat CPU 0 instructions: 1960000330 cycles: 14507151174 heartbeat IPC: 0.1099 cumulative IPC: 0.1351 (Simulation time: 01 hr 50 min 15 sec)
Simulation CPU 0 warning: IPC 0.030355 < 0.05
Simulation CPU 0 panic: IPC 0.0036348 < 0.01
Heartbeat CPU 0 instructions: 1970000334 cycles: 14561108642 heartbeat IPC: 0.1853 cumulative IPC: 0.1353 (Simulation time: 01 hr 55 min 58 sec)
Simulation CPU 0 warning: IPC 0.030096 < 0.05
Simulation CPU 0 warning: IPC 0.030105 < 0.05
Simulation CPU 0 warning: IPC 0.030106 < 0.05
Simulation CPU 0 critical: IPC 0.018863 < 0.02
Heartbeat CPU 0 instructions: 1980000335 cycles: 14642770413 heartbeat IPC: 0.1225 cumulative IPC: 0.1352 (Simulation time: 02 hr 05 min 00 sec)
Simulation CPU 0 warning: IPC 0.027634 < 0.05
Simulation CPU 0 warning: IPC 0.030106 < 0.05
Simulation CPU 0 warning: IPC 0.02167 < 0.05
Heartbeat CPU 0 instructions: 1990000336 cycles: 14696761909 heartbeat IPC: 0.1852 cumulative IPC: 0.1354 (Simulation time: 02 hr 11 min 04 sec)
Simulation CPU 0 warning: IPC 0.030105 < 0.05
Simulation CPU 0 warning: IPC 0.030084 < 0.05
Simulation CPU 0 warning: IPC 0.030332 < 0.05
Simulation CPU 0 warning: IPC 0.027323 < 0.05
Simulation CPU 0 panic: IPC 0.0027727 < 0.01

=== ERROR PAGE STATISTICS ===
Mode: OFF
Total Error Accesses: 0
==============================
Simulation finished CPU 0 instructions: 1999999656 cycles: 14787686956 cumulative IPC: 0.1352 (Simulation time: 02 hr 19 min 42 sec)
Simulation complete CPU 0 instructions: 1999999656 cycles: 14787686956 cumulative IPC: 0.1352 (Simulation time: 02 hr 19 min 42 sec)

ChampSim completed all CPUs

=== Simulation ===
CPU 0 runs test_traces/603.bwaves_s-2931B.champsimtrace.xz

Region of Interest Statistics

CPU 0 cumulative IPC: 0.1352 instructions: 1999999656 cycles: 14787686956
CPU 0 Branch Prediction Accuracy: 80.62% MPKI: 1.636 Average ROB Occupancy at Mispredict: 300.1
Branch type MPKI
BRANCH_DIRECT_JUMP: 0
BRANCH_INDIRECT: 0
BRANCH_CONDITIONAL: 1.636
BRANCH_DIRECT_CALL: 0
BRANCH_INDIRECT_CALL: 0
BRANCH_RETURN: 0

cpu0->cpu0_STLB TOTAL        ACCESS:   71424551 HIT:   71423069 MISS:       1482 MSHR_MERGE:          0
cpu0->cpu0_STLB LOAD         ACCESS:   71424551 HIT:   71423069 MISS:       1482 MSHR_MERGE:          0
cpu0->cpu0_STLB RFO          ACCESS:          0 HIT:          0 MISS:          0 MSHR_MERGE:          0
cpu0->cpu0_STLB PREFETCH     ACCESS:          0 HIT:          0 MISS:          0 MSHR_MERGE:          0
cpu0->cpu0_STLB WRITE        ACCESS:          0 HIT:          0 MISS:          0 MSHR_MERGE:          0
cpu0->cpu0_STLB TRANSLATION  ACCESS:          0 HIT:          0 MISS:          0 MSHR_MERGE:          0
cpu0->cpu0_STLB PREFETCH REQUESTED:          0 ISSUED:          0 USEFUL:          0 USELESS:          0
cpu0->cpu0_STLB AVERAGE MISS LATENCY: 9.324e+06 cycles
cpu0->cpu0_L2C TOTAL        ACCESS:   46712912 HIT:   16976092 MISS:   29736820 MSHR_MERGE:          0
cpu0->cpu0_L2C LOAD         ACCESS:   20711292 HIT:    2882496 MISS:   17828796 MSHR_MERGE:          0
cpu0->cpu0_L2C RFO          ACCESS:   12912732 HIT:    1005039 MISS:   11907693 MSHR_MERGE:          0
cpu0->cpu0_L2C PREFETCH     ACCESS:          0 HIT:          0 MISS:          0 MSHR_MERGE:          0
cpu0->cpu0_L2C WRITE        ACCESS:   13088888 HIT:   13088557 MISS:        331 MSHR_MERGE:          0
cpu0->cpu0_L2C TRANSLATION  ACCESS:          0 HIT:          0 MISS:          0 MSHR_MERGE:          0
cpu0->cpu0_L2C PREFETCH REQUESTED:          0 ISSUED:          0 USEFUL:          0 USELESS:          0
cpu0->cpu0_L2C AVERAGE MISS LATENCY: 117.9 cycles
cpu0->cpu0_L1I TOTAL        ACCESS:  226650964 HIT:  226650893 MISS:         71 MSHR_MERGE:         22
cpu0->cpu0_L1I LOAD         ACCESS:  226650964 HIT:  226650893 MISS:         71 MSHR_MERGE:         22
cpu0->cpu0_L1I RFO          ACCESS:          0 HIT:          0 MISS:          0 MSHR_MERGE:          0
cpu0->cpu0_L1I PREFETCH     ACCESS:          0 HIT:          0 MISS:          0 MSHR_MERGE:          0
cpu0->cpu0_L1I WRITE        ACCESS:          0 HIT:          0 MISS:          0 MSHR_MERGE:          0
cpu0->cpu0_L1I TRANSLATION  ACCESS:          0 HIT:          0 MISS:          0 MSHR_MERGE:          0
cpu0->cpu0_L1I PREFETCH REQUESTED:          0 ISSUED:          0 USEFUL:          0 USELESS:          0
cpu0->cpu0_L1I AVERAGE MISS LATENCY: 134.1 cycles
cpu0->cpu0_L1D TOTAL        ACCESS:  661297595 HIT:  609858119 MISS:   51439476 MSHR_MERGE:   17780784
cpu0->cpu0_L1D LOAD         ACCESS:  295387024 HIT:  274450868 MISS:   20936156 MSHR_MERGE:     224650
cpu0->cpu0_L1D RFO          ACCESS:          0 HIT:          0 MISS:          0 MSHR_MERGE:          0
cpu0->cpu0_L1D PREFETCH     ACCESS:          0 HIT:          0 MISS:          0 MSHR_MERGE:          0
cpu0->cpu0_L1D WRITE        ACCESS:  365910571 HIT:  335407251 MISS:   30503320 MSHR_MERGE:   17556134
cpu0->cpu0_L1D TRANSLATION  ACCESS:          0 HIT:          0 MISS:          0 MSHR_MERGE:          0
cpu0->cpu0_L1D PREFETCH REQUESTED:          0 ISSUED:          0 USEFUL:          0 USELESS:          0
cpu0->cpu0_L1D AVERAGE MISS LATENCY: 113.1 cycles
cpu0->cpu0_ITLB TOTAL        ACCESS:  180974807 HIT:  180974800 MISS:          7 MSHR_MERGE:          6
cpu0->cpu0_ITLB LOAD         ACCESS:  180974807 HIT:  180974800 MISS:          7 MSHR_MERGE:          6
cpu0->cpu0_ITLB RFO          ACCESS:          0 HIT:          0 MISS:          0 MSHR_MERGE:          0
cpu0->cpu0_ITLB PREFETCH     ACCESS:          0 HIT:          0 MISS:          0 MSHR_MERGE:          0
cpu0->cpu0_ITLB WRITE        ACCESS:          0 HIT:          0 MISS:          0 MSHR_MERGE:          0
cpu0->cpu0_ITLB TRANSLATION  ACCESS:          0 HIT:          0 MISS:          0 MSHR_MERGE:          0
cpu0->cpu0_ITLB PREFETCH REQUESTED:          0 ISSUED:          0 USEFUL:          0 USELESS:          0
cpu0->cpu0_ITLB AVERAGE MISS LATENCY: 1.848e+07 cycles
cpu0->cpu0_DTLB TOTAL        ACCESS:  562582163 HIT:  484834265 MISS:   77747898 MSHR_MERGE:    6323348
cpu0->cpu0_DTLB LOAD         ACCESS:  562582163 HIT:  484834265 MISS:   77747898 MSHR_MERGE:    6323348
cpu0->cpu0_DTLB RFO          ACCESS:          0 HIT:          0 MISS:          0 MSHR_MERGE:          0
cpu0->cpu0_DTLB PREFETCH     ACCESS:          0 HIT:          0 MISS:          0 MSHR_MERGE:          0
cpu0->cpu0_DTLB WRITE        ACCESS:          0 HIT:          0 MISS:          0 MSHR_MERGE:          0
cpu0->cpu0_DTLB TRANSLATION  ACCESS:          0 HIT:          0 MISS:          0 MSHR_MERGE:          0
cpu0->cpu0_DTLB PREFETCH REQUESTED:          0 ISSUED:          0 USEFUL:          0 USELESS:          0
cpu0->cpu0_DTLB AVERAGE MISS LATENCY: 198.2 cycles
cpu0->LLC TOTAL        ACCESS:   41642046 HIT:   14382824 MISS:   27259222 MSHR_MERGE:          0
cpu0->LLC LOAD         ACCESS:   17828796 HIT:    2477565 MISS:   15351231 MSHR_MERGE:          0
cpu0->LLC RFO          ACCESS:   11907693 HIT:          0 MISS:   11907693 MSHR_MERGE:          0
cpu0->LLC PREFETCH     ACCESS:          0 HIT:          0 MISS:          0 MSHR_MERGE:          0
cpu0->LLC WRITE        ACCESS:   11905557 HIT:   11905259 MISS:        298 MSHR_MERGE:          0
cpu0->LLC TRANSLATION  ACCESS:          0 HIT:          0 MISS:          0 MSHR_MERGE:          0
cpu0->LLC PREFETCH REQUESTED:          0 ISSUED:          0 USEFUL:          0 USELESS:          0
cpu0->LLC AVERAGE MISS LATENCY: 111.2 cycles

DRAM Statistics

Channel 0 RQ ROW_BUFFER_HIT:     305981
  ROW_BUFFER_MISS:   13325085
  AVG DBUS CONGESTED CYCLE: 10.95
Channel 0 WQ ROW_BUFFER_HIT:    2747586
  ROW_BUFFER_MISS:    3199620
  FULL:          0
Channel 0 REFRESHES ISSUED:    1232228

Channel 1 RQ ROW_BUFFER_HIT:     307460
  ROW_BUFFER_MISS:   13323378
  AVG DBUS CONGESTED CYCLE: 10.95
Channel 1 WQ ROW_BUFFER_HIT:    2750450
  ROW_BUFFER_MISS:    3196585
  FULL:          0
Channel 1 REFRESHES ISSUED:    1232228
