
*** ChampSim Multicore Out-of-Order Simulator ***
Warmup Instructions: 0
Simulation Instructions: 9223372036854775807
Number of CPUs: 1
Page size: 2097152

Off-chip DRAM Size: 128 GiB Channels: 2 Width: 32-bit Data Rate: 4807 MT/s
[ERROR_PAGE_MANAGER] Error latency: 1990500 
[ERROR_PAGE_MANAGER] Random seed: 54321 (fixed for preload reproducibility)
[ERROR_PAGE_MANAGER] Cycle-based error modeling enabled
[ERROR_PAGE_MANAGER] Errors per interval: 1
[ERROR_PAGE_MANAGER] Error cycle interval: 2576304788 cycles

=== ERROR PAGE STATISTICS ===
Mode: CYCLE
Error Cycle Interval: 2576304788 CPU cycles
Total Error Accesses: 0
==============================
Warmup finished CPU 0 instructions: 0 cycles: 1 cumulative IPC: 0 (Simulation time: 00 hr 00 min 00 sec)
Warmup complete CPU 0 instructions: 0 cycles: 1 cumulative IPC: 0 (Simulation time: 00 hr 00 min 00 sec)
Heartbeat CPU 0 instructions: 10000002 cycles: 26599294 heartbeat IPC: 0.3759 cumulative IPC: 0.3759 (Simulation time: 00 hr 02 min 42 sec)
Heartbeat CPU 0 instructions: 20000002 cycles: 53024441 heartbeat IPC: 0.3784 cumulative IPC: 0.3772 (Simulation time: 00 hr 05 min 23 sec)
Heartbeat CPU 0 instructions: 30000004 cycles: 79425576 heartbeat IPC: 0.3788 cumulative IPC: 0.3777 (Simulation time: 00 hr 08 min 03 sec)
Heartbeat CPU 0 instructions: 40000005 cycles: 105901271 heartbeat IPC: 0.3777 cumulative IPC: 0.3777 (Simulation time: 00 hr 10 min 24 sec)
Heartbeat CPU 0 instructions: 50000009 cycles: 132301051 heartbeat IPC: 0.3788 cumulative IPC: 0.3779 (Simulation time: 00 hr 13 min 06 sec)
Heartbeat CPU 0 instructions: 60000012 cycles: 158729793 heartbeat IPC: 0.3784 cumulative IPC: 0.378 (Simulation time: 00 hr 15 min 48 sec)
Heartbeat CPU 0 instructions: 70000012 cycles: 185201862 heartbeat IPC: 0.3778 cumulative IPC: 0.378 (Simulation time: 00 hr 18 min 30 sec)
Heartbeat CPU 0 instructions: 80000016 cycles: 211743876 heartbeat IPC: 0.3768 cumulative IPC: 0.3778 (Simulation time: 00 hr 21 min 13 sec)
Heartbeat CPU 0 instructions: 90000018 cycles: 238163762 heartbeat IPC: 0.3785 cumulative IPC: 0.3779 (Simulation time: 00 hr 23 min 53 sec)
Heartbeat CPU 0 instructions: 100000020 cycles: 264534595 heartbeat IPC: 0.3792 cumulative IPC: 0.378 (Simulation time: 00 hr 26 min 34 sec)
Heartbeat CPU 0 instructions: 110000020 cycles: 290995320 heartbeat IPC: 0.3779 cumulative IPC: 0.378 (Simulation time: 00 hr 29 min 16 sec)
Heartbeat CPU 0 instructions: 120000024 cycles: 317460364 heartbeat IPC: 0.3779 cumulative IPC: 0.378 (Simulation time: 00 hr 31 min 57 sec)
Heartbeat CPU 0 instructions: 130000024 cycles: 343934680 heartbeat IPC: 0.3777 cumulative IPC: 0.378 (Simulation time: 00 hr 34 min 38 sec)
Heartbeat CPU 0 instructions: 140000027 cycles: 370307041 heartbeat IPC: 0.3792 cumulative IPC: 0.3781 (Simulation time: 00 hr 37 min 19 sec)
Heartbeat CPU 0 instructions: 150000029 cycles: 396669808 heartbeat IPC: 0.3793 cumulative IPC: 0.3781 (Simulation time: 00 hr 40 min 00 sec)
Heartbeat CPU 0 instructions: 160000031 cycles: 423138591 heartbeat IPC: 0.3778 cumulative IPC: 0.3781 (Simulation time: 00 hr 42 min 42 sec)
Heartbeat CPU 0 instructions: 170000034 cycles: 449529864 heartbeat IPC: 0.3789 cumulative IPC: 0.3782 (Simulation time: 00 hr 45 min 23 sec)
Heartbeat CPU 0 instructions: 180000036 cycles: 475930896 heartbeat IPC: 0.3788 cumulative IPC: 0.3782 (Simulation time: 00 hr 48 min 04 sec)
Heartbeat CPU 0 instructions: 190000039 cycles: 502438466 heartbeat IPC: 0.3773 cumulative IPC: 0.3782 (Simulation time: 00 hr 50 min 47 sec)
Heartbeat CPU 0 instructions: 200000040 cycles: 528807227 heartbeat IPC: 0.3792 cumulative IPC: 0.3782 (Simulation time: 00 hr 53 min 29 sec)
Heartbeat CPU 0 instructions: 210000042 cycles: 555186906 heartbeat IPC: 0.3791 cumulative IPC: 0.3783 (Simulation time: 00 hr 56 min 11 sec)
Heartbeat CPU 0 instructions: 220000045 cycles: 581653295 heartbeat IPC: 0.3778 cumulative IPC: 0.3782 (Simulation time: 00 hr 58 min 53 sec)
Heartbeat CPU 0 instructions: 230000046 cycles: 608083717 heartbeat IPC: 0.3784 cumulative IPC: 0.3782 (Simulation time: 01 hr 01 min 35 sec)
Heartbeat CPU 0 instructions: 240000047 cycles: 634523858 heartbeat IPC: 0.3782 cumulative IPC: 0.3782 (Simulation time: 01 hr 04 min 18 sec)
Heartbeat CPU 0 instructions: 250000047 cycles: 660909108 heartbeat IPC: 0.379 cumulative IPC: 0.3783 (Simulation time: 01 hr 07 min 00 sec)
Heartbeat CPU 0 instructions: 260000051 cycles: 687353937 heartbeat IPC: 0.3781 cumulative IPC: 0.3783 (Simulation time: 01 hr 09 min 41 sec)
Heartbeat CPU 0 instructions: 270000051 cycles: 713802962 heartbeat IPC: 0.3781 cumulative IPC: 0.3783 (Simulation time: 01 hr 12 min 22 sec)
Heartbeat CPU 0 instructions: 280000052 cycles: 740213349 heartbeat IPC: 0.3786 cumulative IPC: 0.3783 (Simulation time: 01 hr 15 min 04 sec)
Heartbeat CPU 0 instructions: 290000052 cycles: 766604329 heartbeat IPC: 0.3789 cumulative IPC: 0.3783 (Simulation time: 01 hr 17 min 45 sec)
Heartbeat CPU 0 instructions: 300000056 cycles: 793000318 heartbeat IPC: 0.3788 cumulative IPC: 0.3783 (Simulation time: 01 hr 20 min 25 sec)
Heartbeat CPU 0 instructions: 310000056 cycles: 819404037 heartbeat IPC: 0.3787 cumulative IPC: 0.3783 (Simulation time: 01 hr 23 min 06 sec)
Heartbeat CPU 0 instructions: 320000059 cycles: 845815869 heartbeat IPC: 0.3786 cumulative IPC: 0.3783 (Simulation time: 01 hr 25 min 48 sec)
Heartbeat CPU 0 instructions: 330000059 cycles: 872221051 heartbeat IPC: 0.3787 cumulative IPC: 0.3783 (Simulation time: 01 hr 28 min 30 sec)
Heartbeat CPU 0 instructions: 340000061 cycles: 898658976 heartbeat IPC: 0.3782 cumulative IPC: 0.3783 (Simulation time: 01 hr 31 min 12 sec)
Heartbeat CPU 0 instructions: 350000063 cycles: 925052647 heartbeat IPC: 0.3789 cumulative IPC: 0.3784 (Simulation time: 01 hr 33 min 54 sec)
Heartbeat CPU 0 instructions: 360000064 cycles: 951442971 heartbeat IPC: 0.3789 cumulative IPC: 0.3784 (Simulation time: 01 hr 36 min 35 sec)
Heartbeat CPU 0 instructions: 370000067 cycles: 977817185 heartbeat IPC: 0.3792 cumulative IPC: 0.3784 (Simulation time: 01 hr 39 min 17 sec)
Heartbeat CPU 0 instructions: 380000068 cycles: 1004277486 heartbeat IPC: 0.3779 cumulative IPC: 0.3784 (Simulation time: 01 hr 41 min 58 sec)
Heartbeat CPU 0 instructions: 390000071 cycles: 1030721476 heartbeat IPC: 0.3782 cumulative IPC: 0.3784 (Simulation time: 01 hr 44 min 23 sec)
Heartbeat CPU 0 instructions: 400000074 cycles: 1057177819 heartbeat IPC: 0.378 cumulative IPC: 0.3784 (Simulation time: 01 hr 46 min 48 sec)
Heartbeat CPU 0 instructions: 410000076 cycles: 1083618870 heartbeat IPC: 0.3782 cumulative IPC: 0.3784 (Simulation time: 01 hr 49 min 30 sec)
Heartbeat CPU 0 instructions: 420000076 cycles: 1110048148 heartbeat IPC: 0.3784 cumulative IPC: 0.3784 (Simulation time: 01 hr 52 min 10 sec)
Heartbeat CPU 0 instructions: 430000076 cycles: 1136432127 heartbeat IPC: 0.379 cumulative IPC: 0.3784 (Simulation time: 01 hr 54 min 51 sec)
Heartbeat CPU 0 instructions: 440000080 cycles: 1162834988 heartbeat IPC: 0.3787 cumulative IPC: 0.3784 (Simulation time: 01 hr 57 min 22 sec)
Heartbeat CPU 0 instructions: 450000081 cycles: 1189234170 heartbeat IPC: 0.3788 cumulative IPC: 0.3784 (Simulation time: 01 hr 59 min 23 sec)
Heartbeat CPU 0 instructions: 460000083 cycles: 1215580458 heartbeat IPC: 0.3796 cumulative IPC: 0.3784 (Simulation time: 02 hr 01 min 24 sec)
Heartbeat CPU 0 instructions: 470000085 cycles: 1241907820 heartbeat IPC: 0.3798 cumulative IPC: 0.3785 (Simulation time: 02 hr 03 min 23 sec)
Heartbeat CPU 0 instructions: 480000086 cycles: 1268245477 heartbeat IPC: 0.3797 cumulative IPC: 0.3785 (Simulation time: 02 hr 05 min 47 sec)
Heartbeat CPU 0 instructions: 490000086 cycles: 1294573167 heartbeat IPC: 0.3798 cumulative IPC: 0.3785 (Simulation time: 02 hr 07 min 38 sec)
Heartbeat CPU 0 instructions: 500000086 cycles: 1321003640 heartbeat IPC: 0.3784 cumulative IPC: 0.3785 (Simulation time: 02 hr 09 min 33 sec)
Heartbeat CPU 0 instructions: 510000087 cycles: 1347380286 heartbeat IPC: 0.3791 cumulative IPC: 0.3785 (Simulation time: 02 hr 11 min 37 sec)
Heartbeat CPU 0 instructions: 520000087 cycles: 1373722986 heartbeat IPC: 0.3796 cumulative IPC: 0.3785 (Simulation time: 02 hr 14 min 14 sec)
Heartbeat CPU 0 instructions: 530000091 cycles: 1400088069 heartbeat IPC: 0.3793 cumulative IPC: 0.3785 (Simulation time: 02 hr 16 min 52 sec)
Heartbeat CPU 0 instructions: 540000093 cycles: 1426537861 heartbeat IPC: 0.3781 cumulative IPC: 0.3785 (Simulation time: 02 hr 19 min 05 sec)
Heartbeat CPU 0 instructions: 550000093 cycles: 1452903917 heartbeat IPC: 0.3793 cumulative IPC: 0.3786 (Simulation time: 02 hr 20 min 55 sec)
Heartbeat CPU 0 instructions: 560000095 cycles: 1479305875 heartbeat IPC: 0.3788 cumulative IPC: 0.3786 (Simulation time: 02 hr 23 min 11 sec)
Heartbeat CPU 0 instructions: 570000095 cycles: 1505702260 heartbeat IPC: 0.3788 cumulative IPC: 0.3786 (Simulation time: 02 hr 24 min 52 sec)
Heartbeat CPU 0 instructions: 580000099 cycles: 1532105564 heartbeat IPC: 0.3787 cumulative IPC: 0.3786 (Simulation time: 02 hr 26 min 57 sec)
Heartbeat CPU 0 instructions: 590000102 cycles: 1558502065 heartbeat IPC: 0.3788 cumulative IPC: 0.3786 (Simulation time: 02 hr 28 min 50 sec)
Heartbeat CPU 0 instructions: 600000104 cycles: 1584944869 heartbeat IPC: 0.3782 cumulative IPC: 0.3786 (Simulation time: 02 hr 30 min 45 sec)
Heartbeat CPU 0 instructions: 610000105 cycles: 1611398814 heartbeat IPC: 0.378 cumulative IPC: 0.3786 (Simulation time: 02 hr 33 min 07 sec)
Heartbeat CPU 0 instructions: 620000107 cycles: 1639813748 heartbeat IPC: 0.3519 cumulative IPC: 0.3781 (Simulation time: 02 hr 35 min 49 sec)
Heartbeat CPU 0 instructions: 630000107 cycles: 1667013955 heartbeat IPC: 0.3676 cumulative IPC: 0.3779 (Simulation time: 02 hr 38 min 31 sec)
Heartbeat CPU 0 instructions: 640000107 cycles: 1693763861 heartbeat IPC: 0.3738 cumulative IPC: 0.3779 (Simulation time: 02 hr 40 min 52 sec)
Heartbeat CPU 0 instructions: 650000107 cycles: 1720723180 heartbeat IPC: 0.3709 cumulative IPC: 0.3777 (Simulation time: 02 hr 43 min 25 sec)
Heartbeat CPU 0 instructions: 660000108 cycles: 1747259017 heartbeat IPC: 0.3768 cumulative IPC: 0.3777 (Simulation time: 02 hr 46 min 08 sec)
Heartbeat CPU 0 instructions: 670000109 cycles: 1773707105 heartbeat IPC: 0.3781 cumulative IPC: 0.3777 (Simulation time: 02 hr 48 min 52 sec)
Heartbeat CPU 0 instructions: 680000110 cycles: 1800114906 heartbeat IPC: 0.3787 cumulative IPC: 0.3778 (Simulation time: 02 hr 51 min 35 sec)
Heartbeat CPU 0 instructions: 690000111 cycles: 1826429115 heartbeat IPC: 0.38 cumulative IPC: 0.3778 (Simulation time: 02 hr 54 min 16 sec)
Heartbeat CPU 0 instructions: 700000115 cycles: 1852738447 heartbeat IPC: 0.3801 cumulative IPC: 0.3778 (Simulation time: 02 hr 56 min 41 sec)
Heartbeat CPU 0 instructions: 710000116 cycles: 1879057957 heartbeat IPC: 0.3799 cumulative IPC: 0.3778 (Simulation time: 02 hr 58 min 53 sec)
Heartbeat CPU 0 instructions: 720000117 cycles: 1905363165 heartbeat IPC: 0.3802 cumulative IPC: 0.3779 (Simulation time: 03 hr 01 min 04 sec)
Heartbeat CPU 0 instructions: 730000120 cycles: 1931727674 heartbeat IPC: 0.3793 cumulative IPC: 0.3779 (Simulation time: 03 hr 03 min 01 sec)
Heartbeat CPU 0 instructions: 740000121 cycles: 1958162788 heartbeat IPC: 0.3783 cumulative IPC: 0.3779 (Simulation time: 03 hr 05 min 39 sec)
Heartbeat CPU 0 instructions: 750000122 cycles: 1984565139 heartbeat IPC: 0.3788 cumulative IPC: 0.3779 (Simulation time: 03 hr 08 min 14 sec)
Heartbeat CPU 0 instructions: 760000122 cycles: 2010975841 heartbeat IPC: 0.3786 cumulative IPC: 0.3779 (Simulation time: 03 hr 10 min 21 sec)
Heartbeat CPU 0 instructions: 770000122 cycles: 2037348898 heartbeat IPC: 0.3792 cumulative IPC: 0.3779 (Simulation time: 03 hr 12 min 51 sec)
Heartbeat CPU 0 instructions: 780000124 cycles: 2063717550 heartbeat IPC: 0.3792 cumulative IPC: 0.378 (Simulation time: 03 hr 15 min 28 sec)
Heartbeat CPU 0 instructions: 790000127 cycles: 2090041351 heartbeat IPC: 0.3799 cumulative IPC: 0.378 (Simulation time: 03 hr 18 min 08 sec)
Heartbeat CPU 0 instructions: 800000128 cycles: 2116459326 heartbeat IPC: 0.3785 cumulative IPC: 0.378 (Simulation time: 03 hr 20 min 50 sec)
Heartbeat CPU 0 instructions: 810000128 cycles: 2142841783 heartbeat IPC: 0.379 cumulative IPC: 0.378 (Simulation time: 03 hr 23 min 25 sec)
Heartbeat CPU 0 instructions: 820000128 cycles: 2169245729 heartbeat IPC: 0.3787 cumulative IPC: 0.378 (Simulation time: 03 hr 25 min 54 sec)
Heartbeat CPU 0 instructions: 830000128 cycles: 2195625748 heartbeat IPC: 0.3791 cumulative IPC: 0.378 (Simulation time: 03 hr 28 min 36 sec)
Heartbeat CPU 0 instructions: 840000128 cycles: 2222022157 heartbeat IPC: 0.3788 cumulative IPC: 0.378 (Simulation time: 03 hr 31 min 18 sec)
Heartbeat CPU 0 instructions: 850000131 cycles: 2248422760 heartbeat IPC: 0.3788 cumulative IPC: 0.378 (Simulation time: 03 hr 33 min 48 sec)
Heartbeat CPU 0 instructions: 860000134 cycles: 2274720866 heartbeat IPC: 0.3803 cumulative IPC: 0.3781 (Simulation time: 03 hr 36 min 24 sec)
Heartbeat CPU 0 instructions: 870000134 cycles: 2301048596 heartbeat IPC: 0.3798 cumulative IPC: 0.3781 (Simulation time: 03 hr 39 min 00 sec)
Heartbeat CPU 0 instructions: 880000136 cycles: 2327362936 heartbeat IPC: 0.38 cumulative IPC: 0.3781 (Simulation time: 03 hr 41 min 36 sec)
Heartbeat CPU 0 instructions: 890000137 cycles: 2353722441 heartbeat IPC: 0.3794 cumulative IPC: 0.3781 (Simulation time: 03 hr 44 min 12 sec)
Heartbeat CPU 0 instructions: 900000137 cycles: 2380066390 heartbeat IPC: 0.3796 cumulative IPC: 0.3781 (Simulation time: 03 hr 46 min 48 sec)
Heartbeat CPU 0 instructions: 910000140 cycles: 2406416274 heartbeat IPC: 0.3795 cumulative IPC: 0.3782 (Simulation time: 03 hr 49 min 21 sec)
Heartbeat CPU 0 instructions: 920000140 cycles: 2432735341 heartbeat IPC: 0.38 cumulative IPC: 0.3782 (Simulation time: 03 hr 51 min 07 sec)
Heartbeat CPU 0 instructions: 930000140 cycles: 2459062071 heartbeat IPC: 0.3798 cumulative IPC: 0.3782 (Simulation time: 03 hr 53 min 18 sec)
Heartbeat CPU 0 instructions: 940000144 cycles: 2485400945 heartbeat IPC: 0.3797 cumulative IPC: 0.3782 (Simulation time: 03 hr 55 min 49 sec)
Heartbeat CPU 0 instructions: 950000147 cycles: 2511731702 heartbeat IPC: 0.3798 cumulative IPC: 0.3782 (Simulation time: 03 hr 58 min 30 sec)
Heartbeat CPU 0 instructions: 960000147 cycles: 2538067638 heartbeat IPC: 0.3797 cumulative IPC: 0.3782 (Simulation time: 04 hr 01 min 12 sec)
Heartbeat CPU 0 instructions: 970000149 cycles: 2564382960 heartbeat IPC: 0.38 cumulative IPC: 0.3783 (Simulation time: 04 hr 03 min 18 sec)
[ERROR_CYCLE] Error added at CPU cycle 2576304788, interval 1, pending count: 1
[DRAM_CYCLE_ERROR] Cycle-based error applied! address=0x2405495c8 additional_latency=1990500 cycles
Heartbeat CPU 0 instructions: 980000150 cycles: 2590721470 heartbeat IPC: 0.3797 cumulative IPC: 0.3783 (Simulation time: 04 hr 05 min 51 sec)
Heartbeat CPU 0 instructions: 990000150 cycles: 2617022061 heartbeat IPC: 0.3802 cumulative IPC: 0.3783 (Simulation time: 04 hr 07 min 46 sec)
Heartbeat CPU 0 instructions: 1000000152 cycles: 2643375342 heartbeat IPC: 0.3795 cumulative IPC: 0.3783 (Simulation time: 04 hr 09 min 33 sec)
Heartbeat CPU 0 instructions: 1010000153 cycles: 2669687414 heartbeat IPC: 0.3801 cumulative IPC: 0.3783 (Simulation time: 04 hr 11 min 44 sec)
Heartbeat CPU 0 instructions: 1020000155 cycles: 2695995120 heartbeat IPC: 0.3801 cumulative IPC: 0.3783 (Simulation time: 04 hr 14 min 23 sec)
Heartbeat CPU 0 instructions: 1030000155 cycles: 2722321697 heartbeat IPC: 0.3798 cumulative IPC: 0.3784 (Simulation time: 04 hr 16 min 57 sec)
Heartbeat CPU 0 instructions: 1040000157 cycles: 2748648867 heartbeat IPC: 0.3798 cumulative IPC: 0.3784 (Simulation time: 04 hr 19 min 32 sec)
Heartbeat CPU 0 instructions: 1050000160 cycles: 2774958221 heartbeat IPC: 0.3801 cumulative IPC: 0.3784 (Simulation time: 04 hr 21 min 57 sec)
Heartbeat CPU 0 instructions: 1060000161 cycles: 2801298998 heartbeat IPC: 0.3796 cumulative IPC: 0.3784 (Simulation time: 04 hr 24 min 20 sec)
Heartbeat CPU 0 instructions: 1070000162 cycles: 2827614354 heartbeat IPC: 0.38 cumulative IPC: 0.3784 (Simulation time: 04 hr 26 min 56 sec)
Heartbeat CPU 0 instructions: 1080000163 cycles: 2853945040 heartbeat IPC: 0.3798 cumulative IPC: 0.3784 (Simulation time: 04 hr 29 min 12 sec)
Heartbeat CPU 0 instructions: 1090000163 cycles: 2880266718 heartbeat IPC: 0.3799 cumulative IPC: 0.3784 (Simulation time: 04 hr 31 min 13 sec)
Heartbeat CPU 0 instructions: 1100000164 cycles: 2906636131 heartbeat IPC: 0.3792 cumulative IPC: 0.3784 (Simulation time: 04 hr 33 min 19 sec)
Heartbeat CPU 0 instructions: 1110000164 cycles: 2932981082 heartbeat IPC: 0.3796 cumulative IPC: 0.3785 (Simulation time: 04 hr 35 min 31 sec)
Heartbeat CPU 0 instructions: 1120000166 cycles: 2959307296 heartbeat IPC: 0.3798 cumulative IPC: 0.3785 (Simulation time: 04 hr 38 min 05 sec)
Heartbeat CPU 0 instructions: 1130000166 cycles: 2985627672 heartbeat IPC: 0.3799 cumulative IPC: 0.3785 (Simulation time: 04 hr 40 min 37 sec)
Heartbeat CPU 0 instructions: 1140000169 cycles: 3011947638 heartbeat IPC: 0.3799 cumulative IPC: 0.3785 (Simulation time: 04 hr 43 min 10 sec)
Heartbeat CPU 0 instructions: 1150000169 cycles: 3038333973 heartbeat IPC: 0.379 cumulative IPC: 0.3785 (Simulation time: 04 hr 45 min 14 sec)
Heartbeat CPU 0 instructions: 1160000171 cycles: 3064673427 heartbeat IPC: 0.3797 cumulative IPC: 0.3785 (Simulation time: 04 hr 47 min 24 sec)
Heartbeat CPU 0 instructions: 1170000172 cycles: 3090778982 heartbeat IPC: 0.3831 cumulative IPC: 0.3785 (Simulation time: 04 hr 49 min 53 sec)
Heartbeat CPU 0 instructions: 1180000173 cycles: 3117054638 heartbeat IPC: 0.3806 cumulative IPC: 0.3786 (Simulation time: 04 hr 51 min 57 sec)
Heartbeat CPU 0 instructions: 1190000173 cycles: 3143378619 heartbeat IPC: 0.3799 cumulative IPC: 0.3786 (Simulation time: 04 hr 53 min 55 sec)
Heartbeat CPU 0 instructions: 1200000173 cycles: 3169690037 heartbeat IPC: 0.3801 cumulative IPC: 0.3786 (Simulation time: 04 hr 56 min 25 sec)
Heartbeat CPU 0 instructions: 1210000174 cycles: 3196022789 heartbeat IPC: 0.3798 cumulative IPC: 0.3786 (Simulation time: 04 hr 58 min 55 sec)
Heartbeat CPU 0 instructions: 1220000178 cycles: 3222348321 heartbeat IPC: 0.3799 cumulative IPC: 0.3786 (Simulation time: 05 hr 01 min 23 sec)
Heartbeat CPU 0 instructions: 1230000181 cycles: 3248553801 heartbeat IPC: 0.3816 cumulative IPC: 0.3786 (Simulation time: 05 hr 03 min 43 sec)
Heartbeat CPU 0 instructions: 1240000182 cycles: 3274841021 heartbeat IPC: 0.3804 cumulative IPC: 0.3786 (Simulation time: 05 hr 06 min 22 sec)
Heartbeat CPU 0 instructions: 1250000185 cycles: 3301156537 heartbeat IPC: 0.38 cumulative IPC: 0.3787 (Simulation time: 05 hr 09 min 01 sec)
Heartbeat CPU 0 instructions: 1260000185 cycles: 3327392898 heartbeat IPC: 0.3812 cumulative IPC: 0.3787 (Simulation time: 05 hr 11 min 22 sec)
Heartbeat CPU 0 instructions: 1270000185 cycles: 3353706053 heartbeat IPC: 0.38 cumulative IPC: 0.3787 (Simulation time: 05 hr 13 min 18 sec)
Heartbeat CPU 0 instructions: 1280000186 cycles: 3380109427 heartbeat IPC: 0.3787 cumulative IPC: 0.3787 (Simulation time: 05 hr 15 min 42 sec)
Heartbeat CPU 0 instructions: 1290000186 cycles: 3406554204 heartbeat IPC: 0.3781 cumulative IPC: 0.3787 (Simulation time: 05 hr 18 min 07 sec)
Heartbeat CPU 0 instructions: 1300000190 cycles: 3432915301 heartbeat IPC: 0.3793 cumulative IPC: 0.3787 (Simulation time: 05 hr 20 min 05 sec)
Heartbeat CPU 0 instructions: 1310000190 cycles: 3459347909 heartbeat IPC: 0.3783 cumulative IPC: 0.3787 (Simulation time: 05 hr 22 min 39 sec)
Heartbeat CPU 0 instructions: 1320000190 cycles: 3485768507 heartbeat IPC: 0.3785 cumulative IPC: 0.3787 (Simulation time: 05 hr 25 min 05 sec)
Heartbeat CPU 0 instructions: 1330000190 cycles: 3512191656 heartbeat IPC: 0.3785 cumulative IPC: 0.3787 (Simulation time: 05 hr 27 min 45 sec)
Heartbeat CPU 0 instructions: 1340000190 cycles: 3538528789 heartbeat IPC: 0.3797 cumulative IPC: 0.3787 (Simulation time: 05 hr 30 min 13 sec)
Heartbeat CPU 0 instructions: 1350000192 cycles: 3564823658 heartbeat IPC: 0.3803 cumulative IPC: 0.3787 (Simulation time: 05 hr 32 min 41 sec)
Heartbeat CPU 0 instructions: 1360000193 cycles: 3591121284 heartbeat IPC: 0.3803 cumulative IPC: 0.3787 (Simulation time: 05 hr 35 min 20 sec)
Heartbeat CPU 0 instructions: 1370000194 cycles: 3617481181 heartbeat IPC: 0.3794 cumulative IPC: 0.3787 (Simulation time: 05 hr 37 min 59 sec)
Heartbeat CPU 0 instructions: 1380000197 cycles: 3643835281 heartbeat IPC: 0.3794 cumulative IPC: 0.3787 (Simulation time: 05 hr 40 min 38 sec)
Heartbeat CPU 0 instructions: 1390000201 cycles: 3670139109 heartbeat IPC: 0.3802 cumulative IPC: 0.3787 (Simulation time: 05 hr 43 min 18 sec)
Heartbeat CPU 0 instructions: 1400000204 cycles: 3696475167 heartbeat IPC: 0.3797 cumulative IPC: 0.3787 (Simulation time: 05 hr 45 min 59 sec)
Heartbeat CPU 0 instructions: 1410000206 cycles: 3722842102 heartbeat IPC: 0.3793 cumulative IPC: 0.3787 (Simulation time: 05 hr 48 min 10 sec)
Heartbeat CPU 0 instructions: 1420000206 cycles: 3749359383 heartbeat IPC: 0.3771 cumulative IPC: 0.3787 (Simulation time: 05 hr 50 min 23 sec)
Heartbeat CPU 0 instructions: 1430000209 cycles: 3775995069 heartbeat IPC: 0.3754 cumulative IPC: 0.3787 (Simulation time: 05 hr 53 min 03 sec)
Heartbeat CPU 0 instructions: 1440000211 cycles: 3804361541 heartbeat IPC: 0.3525 cumulative IPC: 0.3785 (Simulation time: 05 hr 55 min 43 sec)
Heartbeat CPU 0 instructions: 1450000214 cycles: 3830463685 heartbeat IPC: 0.3831 cumulative IPC: 0.3785 (Simulation time: 05 hr 57 min 37 sec)
Heartbeat CPU 0 instructions: 1460000214 cycles: 3856830670 heartbeat IPC: 0.3793 cumulative IPC: 0.3785 (Simulation time: 06 hr 00 min 10 sec)
Heartbeat CPU 0 instructions: 1470000214 cycles: 3883189189 heartbeat IPC: 0.3794 cumulative IPC: 0.3786 (Simulation time: 06 hr 02 min 30 sec)
Heartbeat CPU 0 instructions: 1480000216 cycles: 3909546567 heartbeat IPC: 0.3794 cumulative IPC: 0.3786 (Simulation time: 06 hr 05 min 05 sec)
Heartbeat CPU 0 instructions: 1490000220 cycles: 3935885737 heartbeat IPC: 0.3797 cumulative IPC: 0.3786 (Simulation time: 06 hr 07 min 06 sec)
Heartbeat CPU 0 instructions: 1500000220 cycles: 3962221271 heartbeat IPC: 0.3797 cumulative IPC: 0.3786 (Simulation time: 06 hr 09 min 21 sec)
Heartbeat CPU 0 instructions: 1510000220 cycles: 3988532571 heartbeat IPC: 0.3801 cumulative IPC: 0.3786 (Simulation time: 06 hr 11 min 51 sec)
Heartbeat CPU 0 instructions: 1520000222 cycles: 4014929753 heartbeat IPC: 0.3788 cumulative IPC: 0.3786 (Simulation time: 06 hr 14 min 21 sec)
Heartbeat CPU 0 instructions: 1530000222 cycles: 4041319550 heartbeat IPC: 0.3789 cumulative IPC: 0.3786 (Simulation time: 06 hr 16 min 59 sec)
Heartbeat CPU 0 instructions: 1540000223 cycles: 4067597363 heartbeat IPC: 0.3805 cumulative IPC: 0.3786 (Simulation time: 06 hr 19 min 32 sec)
Heartbeat CPU 0 instructions: 1550000223 cycles: 4093734087 heartbeat IPC: 0.3826 cumulative IPC: 0.3786 (Simulation time: 06 hr 21 min 37 sec)
Heartbeat CPU 0 instructions: 1560000225 cycles: 4119981566 heartbeat IPC: 0.381 cumulative IPC: 0.3786 (Simulation time: 06 hr 23 min 52 sec)
Heartbeat CPU 0 instructions: 1570000225 cycles: 4146171104 heartbeat IPC: 0.3818 cumulative IPC: 0.3787 (Simulation time: 06 hr 26 min 24 sec)
Heartbeat CPU 0 instructions: 1580000227 cycles: 4172410667 heartbeat IPC: 0.3811 cumulative IPC: 0.3787 (Simulation time: 06 hr 28 min 42 sec)
Heartbeat CPU 0 instructions: 1590000231 cycles: 4198640388 heartbeat IPC: 0.3812 cumulative IPC: 0.3787 (Simulation time: 06 hr 30 min 52 sec)
Heartbeat CPU 0 instructions: 1600000231 cycles: 4224871805 heartbeat IPC: 0.3812 cumulative IPC: 0.3787 (Simulation time: 06 hr 33 min 31 sec)
Heartbeat CPU 0 instructions: 1610000231 cycles: 4251105680 heartbeat IPC: 0.3812 cumulative IPC: 0.3787 (Simulation time: 06 hr 36 min 08 sec)
Heartbeat CPU 0 instructions: 1620000232 cycles: 4277347486 heartbeat IPC: 0.3811 cumulative IPC: 0.3787 (Simulation time: 06 hr 38 min 06 sec)
Heartbeat CPU 0 instructions: 1630000233 cycles: 4303601413 heartbeat IPC: 0.3809 cumulative IPC: 0.3788 (Simulation time: 06 hr 40 min 09 sec)
Heartbeat CPU 0 instructions: 1640000234 cycles: 4329845041 heartbeat IPC: 0.381 cumulative IPC: 0.3788 (Simulation time: 06 hr 42 min 07 sec)
Heartbeat CPU 0 instructions: 1650000235 cycles: 4356091184 heartbeat IPC: 0.381 cumulative IPC: 0.3788 (Simulation time: 06 hr 44 min 44 sec)
Heartbeat CPU 0 instructions: 1660000235 cycles: 4382325818 heartbeat IPC: 0.3812 cumulative IPC: 0.3788 (Simulation time: 06 hr 47 min 26 sec)
Heartbeat CPU 0 instructions: 1670000235 cycles: 4408577017 heartbeat IPC: 0.3809 cumulative IPC: 0.3788 (Simulation time: 06 hr 50 min 07 sec)
Heartbeat CPU 0 instructions: 1680000237 cycles: 4434822406 heartbeat IPC: 0.381 cumulative IPC: 0.3788 (Simulation time: 06 hr 52 min 47 sec)
Heartbeat CPU 0 instructions: 1690000237 cycles: 4461078678 heartbeat IPC: 0.3809 cumulative IPC: 0.3788 (Simulation time: 06 hr 55 min 13 sec)
Heartbeat CPU 0 instructions: 1700000241 cycles: 4487316399 heartbeat IPC: 0.3811 cumulative IPC: 0.3788 (Simulation time: 06 hr 57 min 03 sec)
Heartbeat CPU 0 instructions: 1710000242 cycles: 4513540759 heartbeat IPC: 0.3813 cumulative IPC: 0.3789 (Simulation time: 06 hr 59 min 12 sec)
Heartbeat CPU 0 instructions: 1720000243 cycles: 4539754656 heartbeat IPC: 0.3815 cumulative IPC: 0.3789 (Simulation time: 07 hr 01 min 51 sec)
Heartbeat CPU 0 instructions: 1730000243 cycles: 4566004089 heartbeat IPC: 0.381 cumulative IPC: 0.3789 (Simulation time: 07 hr 03 min 48 sec)
Heartbeat CPU 0 instructions: 1740000246 cycles: 4592244721 heartbeat IPC: 0.3811 cumulative IPC: 0.3789 (Simulation time: 07 hr 06 min 16 sec)
Heartbeat CPU 0 instructions: 1750000247 cycles: 4618472750 heartbeat IPC: 0.3813 cumulative IPC: 0.3789 (Simulation time: 07 hr 08 min 56 sec)
Heartbeat CPU 0 instructions: 1760000248 cycles: 4644713083 heartbeat IPC: 0.3811 cumulative IPC: 0.3789 (Simulation time: 07 hr 11 min 35 sec)
Heartbeat CPU 0 instructions: 1770000252 cycles: 4670942784 heartbeat IPC: 0.3812 cumulative IPC: 0.3789 (Simulation time: 07 hr 13 min 48 sec)
Heartbeat CPU 0 instructions: 1780000252 cycles: 4697182576 heartbeat IPC: 0.3811 cumulative IPC: 0.379 (Simulation time: 07 hr 16 min 13 sec)
Heartbeat CPU 0 instructions: 1790000252 cycles: 4723422818 heartbeat IPC: 0.3811 cumulative IPC: 0.379 (Simulation time: 07 hr 18 min 29 sec)
Heartbeat CPU 0 instructions: 1800000252 cycles: 4749692519 heartbeat IPC: 0.3807 cumulative IPC: 0.379 (Simulation time: 07 hr 20 min 20 sec)
Heartbeat CPU 0 instructions: 1810000253 cycles: 4775931878 heartbeat IPC: 0.3811 cumulative IPC: 0.379 (Simulation time: 07 hr 22 min 50 sec)
Heartbeat CPU 0 instructions: 1820000255 cycles: 4802155327 heartbeat IPC: 0.3813 cumulative IPC: 0.379 (Simulation time: 07 hr 25 min 20 sec)
Heartbeat CPU 0 instructions: 1830000257 cycles: 4828405297 heartbeat IPC: 0.381 cumulative IPC: 0.379 (Simulation time: 07 hr 27 min 58 sec)
Heartbeat CPU 0 instructions: 1840000259 cycles: 4854627750 heartbeat IPC: 0.3814 cumulative IPC: 0.379 (Simulation time: 07 hr 30 min 25 sec)
Heartbeat CPU 0 instructions: 1850000259 cycles: 4880859375 heartbeat IPC: 0.3812 cumulative IPC: 0.379 (Simulation time: 07 hr 32 min 17 sec)
Heartbeat CPU 0 instructions: 1860000262 cycles: 4907099694 heartbeat IPC: 0.3811 cumulative IPC: 0.379 (Simulation time: 07 hr 34 min 56 sec)
Heartbeat CPU 0 instructions: 1870000263 cycles: 4933340744 heartbeat IPC: 0.3811 cumulative IPC: 0.3791 (Simulation time: 07 hr 37 min 31 sec)
Heartbeat CPU 0 instructions: 1880000264 cycles: 4959596212 heartbeat IPC: 0.3809 cumulative IPC: 0.3791 (Simulation time: 07 hr 40 min 12 sec)
Heartbeat CPU 0 instructions: 1890000267 cycles: 4985835858 heartbeat IPC: 0.3811 cumulative IPC: 0.3791 (Simulation time: 07 hr 42 min 43 sec)
Heartbeat CPU 0 instructions: 1900000271 cycles: 5012089566 heartbeat IPC: 0.3809 cumulative IPC: 0.3791 (Simulation time: 07 hr 45 min 07 sec)
Heartbeat CPU 0 instructions: 1910000274 cycles: 5038340147 heartbeat IPC: 0.3809 cumulative IPC: 0.3791 (Simulation time: 07 hr 47 min 48 sec)
Heartbeat CPU 0 instructions: 1920000278 cycles: 5064539116 heartbeat IPC: 0.3817 cumulative IPC: 0.3791 (Simulation time: 07 hr 50 min 15 sec)
Heartbeat CPU 0 instructions: 1930000280 cycles: 5090784193 heartbeat IPC: 0.381 cumulative IPC: 0.3791 (Simulation time: 07 hr 52 min 17 sec)
Heartbeat CPU 0 instructions: 1940000280 cycles: 5117026430 heartbeat IPC: 0.3811 cumulative IPC: 0.3791 (Simulation time: 07 hr 54 min 48 sec)
Heartbeat CPU 0 instructions: 1950000281 cycles: 5143235271 heartbeat IPC: 0.3816 cumulative IPC: 0.3791 (Simulation time: 07 hr 57 min 24 sec)
[ERROR_CYCLE] Error added at CPU cycle 5152609576, interval 2, pending count: 1
[DRAM_CYCLE_ERROR] Cycle-based error applied! address=0x1a69a6c00 additional_latency=1990500 cycles
Heartbeat CPU 0 instructions: 1960000284 cycles: 5169456285 heartbeat IPC: 0.3814 cumulative IPC: 0.3792 (Simulation time: 08 hr 00 min 04 sec)
Heartbeat CPU 0 instructions: 1970000284 cycles: 5195674518 heartbeat IPC: 0.3814 cumulative IPC: 0.3792 (Simulation time: 08 hr 02 min 44 sec)
Heartbeat CPU 0 instructions: 1980000285 cycles: 5221920103 heartbeat IPC: 0.381 cumulative IPC: 0.3792 (Simulation time: 08 hr 04 min 45 sec)
Heartbeat CPU 0 instructions: 1990000285 cycles: 5248175069 heartbeat IPC: 0.3809 cumulative IPC: 0.3792 (Simulation time: 08 hr 07 min 04 sec)

=== ERROR PAGE STATISTICS ===
Mode: CYCLE
Error Cycle Interval: 2576304788 CPU cycles
Total Error Accesses: 2
==============================
Simulation finished CPU 0 instructions: 1999999981 cycles: 5274399072 cumulative IPC: 0.3792 (Simulation time: 08 hr 09 min 43 sec)
Simulation complete CPU 0 instructions: 1999999981 cycles: 5274399072 cumulative IPC: 0.3792 (Simulation time: 08 hr 09 min 43 sec)

ChampSim completed all CPUs

=== Simulation ===
CPU 0 runs test_traces/602.gcc_s-1850B.champsimtrace.xz

Region of Interest Statistics

CPU 0 cumulative IPC: 0.3792 instructions: 1999999981 cycles: 5274399072
CPU 0 Branch Prediction Accuracy: 92.26% MPKI: 19.84 Average ROB Occupancy at Mispredict: 28.45
Branch type MPKI
BRANCH_DIRECT_JUMP: 0.0104
BRANCH_INDIRECT: 0
BRANCH_CONDITIONAL: 19.83
BRANCH_DIRECT_CALL: 8.5e-06
BRANCH_INDIRECT_CALL: 0
BRANCH_RETURN: 7e-06

cpu0->cpu0_STLB TOTAL        ACCESS:      15986 HIT:      12647 MISS:       3339 MSHR_MERGE:          0
cpu0->cpu0_STLB LOAD         ACCESS:      15986 HIT:      12647 MISS:       3339 MSHR_MERGE:          0
cpu0->cpu0_STLB RFO          ACCESS:          0 HIT:          0 MISS:          0 MSHR_MERGE:          0
cpu0->cpu0_STLB PREFETCH     ACCESS:          0 HIT:          0 MISS:          0 MSHR_MERGE:          0
cpu0->cpu0_STLB WRITE        ACCESS:          0 HIT:          0 MISS:          0 MSHR_MERGE:          0
cpu0->cpu0_STLB TRANSLATION  ACCESS:          0 HIT:          0 MISS:          0 MSHR_MERGE:          0
cpu0->cpu0_STLB PREFETCH REQUESTED:          0 ISSUED:          0 USEFUL:          0 USELESS:          0
cpu0->cpu0_STLB AVERAGE MISS LATENCY: 6463 cycles
cpu0->cpu0_L2C TOTAL        ACCESS:   48249148 HIT:   12597998 MISS:   35651150 MSHR_MERGE:          0
cpu0->cpu0_L2C LOAD         ACCESS:   48104275 HIT:   12470008 MISS:   35634267 MSHR_MERGE:          0
cpu0->cpu0_L2C RFO          ACCESS:      16945 HIT:        111 MISS:      16834 MSHR_MERGE:          0
cpu0->cpu0_L2C PREFETCH     ACCESS:          0 HIT:          0 MISS:          0 MSHR_MERGE:          0
cpu0->cpu0_L2C WRITE        ACCESS:     127928 HIT:     127879 MISS:         49 MSHR_MERGE:          0
cpu0->cpu0_L2C TRANSLATION  ACCESS:          0 HIT:          0 MISS:          0 MSHR_MERGE:          0
cpu0->cpu0_L2C PREFETCH REQUESTED:          0 ISSUED:          0 USEFUL:          0 USELESS:          0
cpu0->cpu0_L2C AVERAGE MISS LATENCY: 95.67 cycles
cpu0->cpu0_L1I TOTAL        ACCESS:      78368 HIT:      78308 MISS:         60 MSHR_MERGE:          3
cpu0->cpu0_L1I LOAD         ACCESS:      78368 HIT:      78308 MISS:         60 MSHR_MERGE:          3
cpu0->cpu0_L1I RFO          ACCESS:          0 HIT:          0 MISS:          0 MSHR_MERGE:          0
cpu0->cpu0_L1I PREFETCH     ACCESS:          0 HIT:          0 MISS:          0 MSHR_MERGE:          0
cpu0->cpu0_L1I WRITE        ACCESS:          0 HIT:          0 MISS:          0 MSHR_MERGE:          0
cpu0->cpu0_L1I TRANSLATION  ACCESS:          0 HIT:          0 MISS:          0 MSHR_MERGE:          0
cpu0->cpu0_L1I PREFETCH REQUESTED:          0 ISSUED:          0 USEFUL:          0 USELESS:          0
cpu0->cpu0_L1I AVERAGE MISS LATENCY: 108.2 cycles
cpu0->cpu0_L1D TOTAL        ACCESS:  605689846 HIT:  522317749 MISS:   83372097 MSHR_MERGE:   35250934
cpu0->cpu0_L1D LOAD         ACCESS:  433067295 HIT:  349712579 MISS:   83354716 MSHR_MERGE:   35250498
cpu0->cpu0_L1D RFO          ACCESS:          0 HIT:          0 MISS:          0 MSHR_MERGE:          0
cpu0->cpu0_L1D PREFETCH     ACCESS:          0 HIT:          0 MISS:          0 MSHR_MERGE:          0
cpu0->cpu0_L1D WRITE        ACCESS:  172622551 HIT:  172605170 MISS:      17381 MSHR_MERGE:        436
cpu0->cpu0_L1D TRANSLATION  ACCESS:          0 HIT:          0 MISS:          0 MSHR_MERGE:          0
cpu0->cpu0_L1D PREFETCH REQUESTED:          0 ISSUED:          0 USEFUL:          0 USELESS:          0
cpu0->cpu0_L1D AVERAGE MISS LATENCY: 79.62 cycles
cpu0->cpu0_ITLB TOTAL        ACCESS:      73684 HIT:      73681 MISS:          3 MSHR_MERGE:          1
cpu0->cpu0_ITLB LOAD         ACCESS:      73684 HIT:      73681 MISS:          3 MSHR_MERGE:          1
cpu0->cpu0_ITLB RFO          ACCESS:          0 HIT:          0 MISS:          0 MSHR_MERGE:          0
cpu0->cpu0_ITLB PREFETCH     ACCESS:          0 HIT:          0 MISS:          0 MSHR_MERGE:          0
cpu0->cpu0_ITLB WRITE        ACCESS:          0 HIT:          0 MISS:          0 MSHR_MERGE:          0
cpu0->cpu0_ITLB TRANSLATION  ACCESS:          0 HIT:          0 MISS:          0 MSHR_MERGE:          0
cpu0->cpu0_ITLB PREFETCH REQUESTED:          0 ISSUED:          0 USEFUL:          0 USELESS:          0
cpu0->cpu0_ITLB AVERAGE MISS LATENCY: 1.292e+04 cycles
cpu0->cpu0_DTLB TOTAL        ACCESS:  551964382 HIT:  551939685 MISS:      24697 MSHR_MERGE:       8713
cpu0->cpu0_DTLB LOAD         ACCESS:  551964382 HIT:  551939685 MISS:      24697 MSHR_MERGE:       8713
cpu0->cpu0_DTLB RFO          ACCESS:          0 HIT:          0 MISS:          0 MSHR_MERGE:          0
cpu0->cpu0_DTLB PREFETCH     ACCESS:          0 HIT:          0 MISS:          0 MSHR_MERGE:          0
cpu0->cpu0_DTLB WRITE        ACCESS:          0 HIT:          0 MISS:          0 MSHR_MERGE:          0
cpu0->cpu0_DTLB TRANSLATION  ACCESS:          0 HIT:          0 MISS:          0 MSHR_MERGE:          0
cpu0->cpu0_DTLB PREFETCH REQUESTED:          0 ISSUED:          0 USEFUL:          0 USELESS:          0
cpu0->cpu0_DTLB AVERAGE MISS LATENCY: 1354 cycles
cpu0->LLC TOTAL        ACCESS:   35701266 HIT:     113972 MISS:   35587294 MSHR_MERGE:          0
cpu0->LLC LOAD         ACCESS:   35634267 HIT:      63993 MISS:   35570274 MSHR_MERGE:          0
cpu0->LLC RFO          ACCESS:      16834 HIT:         95 MISS:      16739 MSHR_MERGE:          0
cpu0->LLC PREFETCH     ACCESS:          0 HIT:          0 MISS:          0 MSHR_MERGE:          0
cpu0->LLC WRITE        ACCESS:      50165 HIT:      49884 MISS:        281 MSHR_MERGE:          0
cpu0->LLC TRANSLATION  ACCESS:          0 HIT:          0 MISS:          0 MSHR_MERGE:          0
cpu0->LLC PREFETCH REQUESTED:          0 ISSUED:          0 USEFUL:          0 USELESS:          0
cpu0->LLC AVERAGE MISS LATENCY: 79.82 cycles

DRAM Statistics

Channel 0 RQ ROW_BUFFER_HIT:    3266686
  ROW_BUFFER_MISS:   14529133
  AVG DBUS CONGESTED CYCLE: 13.58
Channel 0 WQ ROW_BUFFER_HIT:       3217
  ROW_BUFFER_MISS:      21804
  FULL:          0
Channel 0 REFRESHES ISSUED:     439505

Channel 1 RQ ROW_BUFFER_HIT:    3266687
  ROW_BUFFER_MISS:   14531196
  AVG DBUS CONGESTED CYCLE: 13.56
Channel 1 WQ ROW_BUFFER_HIT:       3264
  ROW_BUFFER_MISS:      21798
  FULL:          0
Channel 1 REFRESHES ISSUED:     439505
