[VMEM] WARNING: physical memory size is smaller than virtual memory size.

*** ChampSim Multicore Out-of-Order Simulator ***
Warmup Instructions: 0
Simulation Instructions: 9223372036854775807
Number of CPUs: 1
Page size: 4096

Off-chip DRAM Size: 128 GiB Channels: 2 Width: 32-bit Data Rate: 4807 MT/s
[ERROR_PAGE_MANAGER] Error latency: 173500 
[ERROR_PAGE_MANAGER] Random seed: 54321 (fixed for preload reproducibility)
[ERROR_PAGE_MANAGER] Cycle-based error modeling enabled
[ERROR_PAGE_MANAGER] Errors per interval: 1
[ERROR_PAGE_MANAGER] Error cycle interval: 25763047 cycles

=== ERROR PAGE STATISTICS ===
Mode: CYCLE
Error Cycle Interval: 25763047 CPU cycles
Total Error Accesses: 0
==============================
Warmup finished CPU 0 instructions: 0 cycles: 1 cumulative IPC: 0 (Simulation time: 00 hr 00 min 02 sec)
Warmup complete CPU 0 instructions: 0 cycles: 1 cumulative IPC: 0 (Simulation time: 00 hr 00 min 02 sec)
[ERROR_CYCLE] Error added at CPU cycle 25763048, interval 1, pending count: 1
[DRAM_CYCLE_ERROR] Cycle-based error applied! address=0x17085b2b90 additional_latency=173500 cycles
Heartbeat CPU 0 instructions: 10000002 cycles: 30007061 heartbeat IPC: 0.3333 cumulative IPC: 0.3333 (Simulation time: 00 hr 02 min 54 sec)
[ERROR_CYCLE] Error added at CPU cycle 51526094, interval 2, pending count: 1
[DRAM_CYCLE_ERROR] Cycle-based error applied! address=0x1439a97fa0 additional_latency=173500 cycles
Heartbeat CPU 0 instructions: 20000002 cycles: 59902998 heartbeat IPC: 0.3345 cumulative IPC: 0.3339 (Simulation time: 00 hr 05 min 29 sec)
[ERROR_CYCLE] Error added at CPU cycle 77289142, interval 3, pending count: 1
[DRAM_CYCLE_ERROR] Cycle-based error applied! address=0x18539ad020 additional_latency=173500 cycles
Heartbeat CPU 0 instructions: 30000004 cycles: 89826473 heartbeat IPC: 0.3342 cumulative IPC: 0.334 (Simulation time: 00 hr 08 min 07 sec)
[ERROR_CYCLE] Error added at CPU cycle 103052188, interval 4, pending count: 1
[DRAM_CYCLE_ERROR] Cycle-based error applied! address=0x1778d7da18 additional_latency=173500 cycles
Heartbeat CPU 0 instructions: 40000005 cycles: 119749973 heartbeat IPC: 0.3342 cumulative IPC: 0.334 (Simulation time: 00 hr 11 min 08 sec)
[ERROR_CYCLE] Error added at CPU cycle 128815235, interval 5, pending count: 1
[DRAM_CYCLE_ERROR] Cycle-based error applied! address=0x15e459c348 additional_latency=173500 cycles
Heartbeat CPU 0 instructions: 50000009 cycles: 149600803 heartbeat IPC: 0.335 cumulative IPC: 0.3342 (Simulation time: 00 hr 14 min 09 sec)
[ERROR_CYCLE] Error added at CPU cycle 154578283, interval 6, pending count: 1
[DRAM_CYCLE_ERROR] Cycle-based error applied! address=0x1ee8679210 additional_latency=173500 cycles
Heartbeat CPU 0 instructions: 60000012 cycles: 179482234 heartbeat IPC: 0.3347 cumulative IPC: 0.3343 (Simulation time: 00 hr 17 min 10 sec)
[ERROR_CYCLE] Error added at CPU cycle 180341329, interval 7, pending count: 1
[DRAM_CYCLE_ERROR] Cycle-based error applied! address=0x16c7e18bc0 additional_latency=173500 cycles
[ERROR_CYCLE] Error added at CPU cycle 206104376, interval 8, pending count: 1
[DRAM_CYCLE_ERROR] Cycle-based error applied! address=0xc6138d340 additional_latency=173500 cycles
Heartbeat CPU 0 instructions: 70000012 cycles: 209356040 heartbeat IPC: 0.3347 cumulative IPC: 0.3344 (Simulation time: 00 hr 20 min 10 sec)
[ERROR_CYCLE] Error added at CPU cycle 231867424, interval 9, pending count: 1
[DRAM_CYCLE_ERROR] Cycle-based error applied! address=0x7b4d25fe0 additional_latency=173500 cycles
Heartbeat CPU 0 instructions: 80000016 cycles: 239232649 heartbeat IPC: 0.3347 cumulative IPC: 0.3344 (Simulation time: 00 hr 22 min 39 sec)
[ERROR_CYCLE] Error added at CPU cycle 257630470, interval 10, pending count: 1
[DRAM_CYCLE_ERROR] Cycle-based error applied! address=0x106c5468e0 additional_latency=173500 cycles
Heartbeat CPU 0 instructions: 90000018 cycles: 269093024 heartbeat IPC: 0.3349 cumulative IPC: 0.3345 (Simulation time: 00 hr 25 min 38 sec)
[ERROR_CYCLE] Error added at CPU cycle 283393517, interval 11, pending count: 1
[DRAM_CYCLE_ERROR] Cycle-based error applied! address=0xd7c861d10 additional_latency=173500 cycles
Heartbeat CPU 0 instructions: 100000020 cycles: 298970035 heartbeat IPC: 0.3347 cumulative IPC: 0.3345 (Simulation time: 00 hr 28 min 19 sec)
[ERROR_CYCLE] Error added at CPU cycle 309156565, interval 12, pending count: 1
[DRAM_CYCLE_ERROR] Cycle-based error applied! address=0xd39397c98 additional_latency=173500 cycles
Heartbeat CPU 0 instructions: 110000020 cycles: 328900764 heartbeat IPC: 0.3341 cumulative IPC: 0.3344 (Simulation time: 00 hr 30 min 44 sec)
[ERROR_CYCLE] Error added at CPU cycle 334919611, interval 13, pending count: 1
[DRAM_CYCLE_ERROR] Cycle-based error applied! address=0xe2f5432e0 additional_latency=173500 cycles
Heartbeat CPU 0 instructions: 120000024 cycles: 358860409 heartbeat IPC: 0.3338 cumulative IPC: 0.3344 (Simulation time: 00 hr 33 min 10 sec)
[ERROR_CYCLE] Error added at CPU cycle 360682659, interval 14, pending count: 1
[DRAM_CYCLE_ERROR] Cycle-based error applied! address=0x15c90f0680 additional_latency=173500 cycles
[ERROR_CYCLE] Error added at CPU cycle 386445705, interval 15, pending count: 1
[DRAM_CYCLE_ERROR] Cycle-based error applied! address=0x161518ca60 additional_latency=173500 cycles
Heartbeat CPU 0 instructions: 130000024 cycles: 388794765 heartbeat IPC: 0.3341 cumulative IPC: 0.3344 (Simulation time: 00 hr 35 min 55 sec)
[ERROR_CYCLE] Error added at CPU cycle 412208752, interval 16, pending count: 1
[DRAM_CYCLE_ERROR] Cycle-based error applied! address=0x1d4074f450 additional_latency=173500 cycles
Heartbeat CPU 0 instructions: 140000027 cycles: 418636120 heartbeat IPC: 0.3351 cumulative IPC: 0.3344 (Simulation time: 00 hr 38 min 55 sec)
[ERROR_CYCLE] Error added at CPU cycle 437971800, interval 17, pending count: 1
[DRAM_CYCLE_ERROR] Cycle-based error applied! address=0x16255f9a00 additional_latency=173500 cycles
Heartbeat CPU 0 instructions: 150000029 cycles: 448488345 heartbeat IPC: 0.335 cumulative IPC: 0.3345 (Simulation time: 00 hr 41 min 29 sec)
[ERROR_CYCLE] Error added at CPU cycle 463734846, interval 18, pending count: 1
[DRAM_CYCLE_ERROR] Cycle-based error applied! address=0x16d96ebfe8 additional_latency=173500 cycles
Heartbeat CPU 0 instructions: 160000031 cycles: 478398703 heartbeat IPC: 0.3343 cumulative IPC: 0.3344 (Simulation time: 00 hr 44 min 31 sec)
[ERROR_CYCLE] Error added at CPU cycle 489497893, interval 19, pending count: 1
[DRAM_CYCLE_ERROR] Cycle-based error applied! address=0x1e0ae3c808 additional_latency=173500 cycles
Heartbeat CPU 0 instructions: 170000034 cycles: 508336363 heartbeat IPC: 0.334 cumulative IPC: 0.3344 (Simulation time: 00 hr 47 min 13 sec)
[ERROR_CYCLE] Error added at CPU cycle 515260941, interval 20, pending count: 1
[DRAM_CYCLE_ERROR] Cycle-based error applied! address=0x303087908 additional_latency=173500 cycles
Heartbeat CPU 0 instructions: 180000036 cycles: 538214509 heartbeat IPC: 0.3347 cumulative IPC: 0.3344 (Simulation time: 00 hr 50 min 01 sec)
[ERROR_CYCLE] Error added at CPU cycle 541023987, interval 21, pending count: 1
[DRAM_CYCLE_ERROR] Cycle-based error applied! address=0x41fffb1c0 additional_latency=173500 cycles
[ERROR_CYCLE] Error added at CPU cycle 566787034, interval 22, pending count: 1
[DRAM_CYCLE_ERROR] Cycle-based error applied! address=0x1396746488 additional_latency=173500 cycles
Heartbeat CPU 0 instructions: 190000039 cycles: 568192107 heartbeat IPC: 0.3336 cumulative IPC: 0.3344 (Simulation time: 00 hr 52 min 53 sec)
[ERROR_CYCLE] Error added at CPU cycle 592550082, interval 23, pending count: 1
[DRAM_CYCLE_ERROR] Cycle-based error applied! address=0xaa7ddcf10 additional_latency=173500 cycles
Heartbeat CPU 0 instructions: 200000040 cycles: 598021208 heartbeat IPC: 0.3352 cumulative IPC: 0.3344 (Simulation time: 00 hr 55 min 31 sec)
[ERROR_CYCLE] Error added at CPU cycle 618313128, interval 24, pending count: 1
[DRAM_CYCLE_ERROR] Cycle-based error applied! address=0x1b2c6e3ed8 additional_latency=173500 cycles
Heartbeat CPU 0 instructions: 210000042 cycles: 627936725 heartbeat IPC: 0.3343 cumulative IPC: 0.3344 (Simulation time: 00 hr 57 min 56 sec)
[ERROR_CYCLE] Error added at CPU cycle 644076176, interval 25, pending count: 1
[DRAM_CYCLE_ERROR] Cycle-based error applied! address=0x1f1d84dbd8 additional_latency=173500 cycles
Heartbeat CPU 0 instructions: 220000045 cycles: 657909693 heartbeat IPC: 0.3336 cumulative IPC: 0.3344 (Simulation time: 01 hr 00 min 36 sec)
[ERROR_CYCLE] Error added at CPU cycle 669839223, interval 26, pending count: 1
[DRAM_CYCLE_ERROR] Cycle-based error applied! address=0x1b68586780 additional_latency=173500 cycles
Heartbeat CPU 0 instructions: 230000046 cycles: 687809356 heartbeat IPC: 0.3345 cumulative IPC: 0.3344 (Simulation time: 01 hr 03 min 32 sec)
[ERROR_CYCLE] Error added at CPU cycle 695602269, interval 27, pending count: 1
[DRAM_CYCLE_ERROR] Cycle-based error applied! address=0x17dd62610 additional_latency=173500 cycles
Heartbeat CPU 0 instructions: 240000047 cycles: 717713140 heartbeat IPC: 0.3344 cumulative IPC: 0.3344 (Simulation time: 01 hr 06 min 28 sec)
[ERROR_CYCLE] Error added at CPU cycle 721365317, interval 28, pending count: 1
[DRAM_CYCLE_ERROR] Cycle-based error applied! address=0x101ea04b00 additional_latency=173500 cycles
[ERROR_CYCLE] Error added at CPU cycle 747128363, interval 29, pending count: 1
[DRAM_CYCLE_ERROR] Cycle-based error applied! address=0xca7e567a0 additional_latency=173500 cycles
Heartbeat CPU 0 instructions: 250000047 cycles: 747674798 heartbeat IPC: 0.3338 cumulative IPC: 0.3344 (Simulation time: 01 hr 09 min 12 sec)
[ERROR_CYCLE] Error added at CPU cycle 772891410, interval 30, pending count: 1
[DRAM_CYCLE_ERROR] Cycle-based error applied! address=0x19ac185818 additional_latency=173500 cycles
Heartbeat CPU 0 instructions: 260000051 cycles: 777641806 heartbeat IPC: 0.3337 cumulative IPC: 0.3343 (Simulation time: 01 hr 12 min 12 sec)
[ERROR_CYCLE] Error added at CPU cycle 798654458, interval 31, pending count: 1
[DRAM_CYCLE_ERROR] Cycle-based error applied! address=0x12d9d2ae20 additional_latency=173500 cycles
Heartbeat CPU 0 instructions: 270000051 cycles: 807605231 heartbeat IPC: 0.3337 cumulative IPC: 0.3343 (Simulation time: 01 hr 15 min 11 sec)
[ERROR_CYCLE] Error added at CPU cycle 824417504, interval 32, pending count: 1
[DRAM_CYCLE_ERROR] Cycle-based error applied! address=0x47537a020 additional_latency=173500 cycles
Heartbeat CPU 0 instructions: 280000052 cycles: 837507976 heartbeat IPC: 0.3344 cumulative IPC: 0.3343 (Simulation time: 01 hr 17 min 57 sec)
[ERROR_CYCLE] Error added at CPU cycle 850180551, interval 33, pending count: 1
[DRAM_CYCLE_ERROR] Cycle-based error applied! address=0x147a98bf08 additional_latency=173500 cycles
Heartbeat CPU 0 instructions: 290000052 cycles: 867374971 heartbeat IPC: 0.3348 cumulative IPC: 0.3343 (Simulation time: 01 hr 20 min 35 sec)
[ERROR_CYCLE] Error added at CPU cycle 875943599, interval 34, pending count: 1
[DRAM_CYCLE_ERROR] Cycle-based error applied! address=0x15ba44e198 additional_latency=173500 cycles
Heartbeat CPU 0 instructions: 300000056 cycles: 897228133 heartbeat IPC: 0.335 cumulative IPC: 0.3344 (Simulation time: 01 hr 23 min 34 sec)
[ERROR_CYCLE] Error added at CPU cycle 901706645, interval 35, pending count: 1
[DRAM_CYCLE_ERROR] Cycle-based error applied! address=0x10a472b280 additional_latency=173500 cycles
Heartbeat CPU 0 instructions: 310000056 cycles: 927144957 heartbeat IPC: 0.3343 cumulative IPC: 0.3344 (Simulation time: 01 hr 26 min 35 sec)
[ERROR_CYCLE] Error added at CPU cycle 927469692, interval 36, pending count: 1
[DRAM_CYCLE_ERROR] Cycle-based error applied! address=0x1ca47f4380 additional_latency=173500 cycles
[ERROR_CYCLE] Error added at CPU cycle 953232740, interval 37, pending count: 1
[DRAM_CYCLE_ERROR] Cycle-based error applied! address=0x18ed585e0 additional_latency=173500 cycles
Heartbeat CPU 0 instructions: 320000059 cycles: 957100400 heartbeat IPC: 0.3338 cumulative IPC: 0.3343 (Simulation time: 01 hr 29 min 36 sec)
[ERROR_CYCLE] Error added at CPU cycle 978995786, interval 38, pending count: 1
[DRAM_CYCLE_ERROR] Cycle-based error applied! address=0x13bfa00c08 additional_latency=173500 cycles
Heartbeat CPU 0 instructions: 330000059 cycles: 987003303 heartbeat IPC: 0.3344 cumulative IPC: 0.3343 (Simulation time: 01 hr 32 min 30 sec)
[ERROR_CYCLE] Error added at CPU cycle 1004758834, interval 39, pending count: 1
[DRAM_CYCLE_ERROR] Cycle-based error applied! address=0x8edc8a588 additional_latency=173500 cycles
Heartbeat CPU 0 instructions: 340000061 cycles: 1016886702 heartbeat IPC: 0.3346 cumulative IPC: 0.3344 (Simulation time: 01 hr 34 min 41 sec)
[ERROR_CYCLE] Error added at CPU cycle 1030521880, interval 40, pending count: 1
[DRAM_CYCLE_ERROR] Cycle-based error applied! address=0x19bf573260 additional_latency=173500 cycles
Heartbeat CPU 0 instructions: 350000063 cycles: 1046732028 heartbeat IPC: 0.3351 cumulative IPC: 0.3344 (Simulation time: 01 hr 36 min 40 sec)
[ERROR_CYCLE] Error added at CPU cycle 1056284927, interval 41, pending count: 1
[DRAM_CYCLE_ERROR] Cycle-based error applied! address=0x4f6b354c8 additional_latency=173500 cycles
Heartbeat CPU 0 instructions: 360000064 cycles: 1076598010 heartbeat IPC: 0.3348 cumulative IPC: 0.3344 (Simulation time: 01 hr 39 min 19 sec)
[ERROR_CYCLE] Error added at CPU cycle 1082047975, interval 42, pending count: 1
[DRAM_CYCLE_ERROR] Cycle-based error applied! address=0x8b90d9548 additional_latency=173500 cycles
Heartbeat CPU 0 instructions: 370000067 cycles: 1106458933 heartbeat IPC: 0.3349 cumulative IPC: 0.3344 (Simulation time: 01 hr 42 min 11 sec)
[ERROR_CYCLE] Error added at CPU cycle 1107811021, interval 43, pending count: 1
[DRAM_CYCLE_ERROR] Cycle-based error applied! address=0xbd9c07488 additional_latency=173500 cycles
[ERROR_CYCLE] Error added at CPU cycle 1133574068, interval 44, pending count: 1
[DRAM_CYCLE_ERROR] Cycle-based error applied! address=0xf8d7d51a0 additional_latency=173500 cycles
Heartbeat CPU 0 instructions: 380000068 cycles: 1136421411 heartbeat IPC: 0.3338 cumulative IPC: 0.3344 (Simulation time: 01 hr 45 min 12 sec)
[ERROR_CYCLE] Error added at CPU cycle 1159337116, interval 45, pending count: 1
[DRAM_CYCLE_ERROR] Cycle-based error applied! address=0x1844dffd60 additional_latency=173500 cycles
Heartbeat CPU 0 instructions: 390000071 cycles: 1166400597 heartbeat IPC: 0.3336 cumulative IPC: 0.3344 (Simulation time: 01 hr 47 min 45 sec)
[ERROR_CYCLE] Error added at CPU cycle 1185100162, interval 46, pending count: 1
[DRAM_CYCLE_ERROR] Cycle-based error applied! address=0x709f995c0 additional_latency=173500 cycles
Heartbeat CPU 0 instructions: 400000074 cycles: 1196352784 heartbeat IPC: 0.3339 cumulative IPC: 0.3343 (Simulation time: 01 hr 50 min 41 sec)
[ERROR_CYCLE] Error added at CPU cycle 1210863209, interval 47, pending count: 1
[DRAM_CYCLE_ERROR] Cycle-based error applied! address=0x17cbfff8c0 additional_latency=173500 cycles
Heartbeat CPU 0 instructions: 410000076 cycles: 1226274519 heartbeat IPC: 0.3342 cumulative IPC: 0.3343 (Simulation time: 01 hr 53 min 37 sec)
[ERROR_CYCLE] Error added at CPU cycle 1236626257, interval 48, pending count: 1
[DRAM_CYCLE_ERROR] Cycle-based error applied! address=0x20bd56148 additional_latency=173500 cycles
Heartbeat CPU 0 instructions: 420000076 cycles: 1256235181 heartbeat IPC: 0.3338 cumulative IPC: 0.3343 (Simulation time: 01 hr 56 min 33 sec)
[ERROR_CYCLE] Error added at CPU cycle 1262389303, interval 49, pending count: 1
[DRAM_CYCLE_ERROR] Cycle-based error applied! address=0x109185f648 additional_latency=173500 cycles
Heartbeat CPU 0 instructions: 430000076 cycles: 1286174139 heartbeat IPC: 0.334 cumulative IPC: 0.3343 (Simulation time: 01 hr 59 min 28 sec)
[ERROR_CYCLE] Error added at CPU cycle 1288152351, interval 50, pending count: 1
[DRAM_CYCLE_ERROR] Cycle-based error applied! address=0x396adfbd0 additional_latency=173500 cycles
[ERROR_CYCLE] Error added at CPU cycle 1313915398, interval 51, pending count: 1
[DRAM_CYCLE_ERROR] Cycle-based error applied! address=0xa1eb22708 additional_latency=173500 cycles
Heartbeat CPU 0 instructions: 440000080 cycles: 1316089661 heartbeat IPC: 0.3343 cumulative IPC: 0.3343 (Simulation time: 02 hr 01 min 52 sec)
[ERROR_CYCLE] Error added at CPU cycle 1339678444, interval 52, pending count: 1
[DRAM_CYCLE_ERROR] Cycle-based error applied! address=0x158b5d6248 additional_latency=173500 cycles
Heartbeat CPU 0 instructions: 450000081 cycles: 1346001320 heartbeat IPC: 0.3343 cumulative IPC: 0.3343 (Simulation time: 02 hr 04 min 00 sec)
[ERROR_CYCLE] Error added at CPU cycle 1365441492, interval 53, pending count: 1
[DRAM_CYCLE_ERROR] Cycle-based error applied! address=0x1853f3d00 additional_latency=173500 cycles
Heartbeat CPU 0 instructions: 460000083 cycles: 1375840746 heartbeat IPC: 0.3351 cumulative IPC: 0.3343 (Simulation time: 02 hr 06 min 31 sec)
[ERROR_CYCLE] Error added at CPU cycle 1391204538, interval 54, pending count: 1
[DRAM_CYCLE_ERROR] Cycle-based error applied! address=0x1a552e3000 additional_latency=173500 cycles
Heartbeat CPU 0 instructions: 470000085 cycles: 1405621851 heartbeat IPC: 0.3358 cumulative IPC: 0.3344 (Simulation time: 02 hr 09 min 28 sec)
[ERROR_CYCLE] Error added at CPU cycle 1416967585, interval 55, pending count: 1
[DRAM_CYCLE_ERROR] Cycle-based error applied! address=0xb1d500f10 additional_latency=173500 cycles
Heartbeat CPU 0 instructions: 480000086 cycles: 1435442388 heartbeat IPC: 0.3353 cumulative IPC: 0.3344 (Simulation time: 02 hr 11 min 43 sec)
[ERROR_CYCLE] Error added at CPU cycle 1442730633, interval 56, pending count: 1
[DRAM_CYCLE_ERROR] Cycle-based error applied! address=0x18001dc0e0 additional_latency=173500 cycles
Heartbeat CPU 0 instructions: 490000086 cycles: 1465233411 heartbeat IPC: 0.3357 cumulative IPC: 0.3344 (Simulation time: 02 hr 13 min 41 sec)
[ERROR_CYCLE] Error added at CPU cycle 1468493679, interval 57, pending count: 1
[DRAM_CYCLE_ERROR] Cycle-based error applied! address=0x1e1b6d590 additional_latency=173500 cycles
[ERROR_CYCLE] Error added at CPU cycle 1494256726, interval 58, pending count: 1
[DRAM_CYCLE_ERROR] Cycle-based error applied! address=0xa677edbc0 additional_latency=173500 cycles
Heartbeat CPU 0 instructions: 500000086 cycles: 1495130481 heartbeat IPC: 0.3345 cumulative IPC: 0.3344 (Simulation time: 02 hr 15 min 38 sec)
[ERROR_CYCLE] Error added at CPU cycle 1520019774, interval 59, pending count: 1
[DRAM_CYCLE_ERROR] Cycle-based error applied! address=0x16014990 additional_latency=173500 cycles
Heartbeat CPU 0 instructions: 510000087 cycles: 1525006132 heartbeat IPC: 0.3347 cumulative IPC: 0.3344 (Simulation time: 02 hr 17 min 39 sec)
[ERROR_CYCLE] Error added at CPU cycle 1545782820, interval 60, pending count: 1
[DRAM_CYCLE_ERROR] Cycle-based error applied! address=0x66264b358 additional_latency=173500 cycles
Heartbeat CPU 0 instructions: 520000087 cycles: 1554754163 heartbeat IPC: 0.3362 cumulative IPC: 0.3345 (Simulation time: 02 hr 19 min 32 sec)
[ERROR_CYCLE] Error added at CPU cycle 1571545867, interval 61, pending count: 1
[DRAM_CYCLE_ERROR] Cycle-based error applied! address=0xe60c58448 additional_latency=173500 cycles
Heartbeat CPU 0 instructions: 530000091 cycles: 1584561662 heartbeat IPC: 0.3355 cumulative IPC: 0.3345 (Simulation time: 02 hr 21 min 26 sec)
[ERROR_CYCLE] Error added at CPU cycle 1597308915, interval 62, pending count: 1
[DRAM_CYCLE_ERROR] Cycle-based error applied! address=0x173090f010 additional_latency=173500 cycles
Heartbeat CPU 0 instructions: 540000093 cycles: 1614557895 heartbeat IPC: 0.3334 cumulative IPC: 0.3345 (Simulation time: 02 hr 23 min 22 sec)
[ERROR_CYCLE] Error added at CPU cycle 1623071961, interval 63, pending count: 1
[DRAM_CYCLE_ERROR] Cycle-based error applied! address=0x33f044dc8 additional_latency=173500 cycles
Heartbeat CPU 0 instructions: 550000093 cycles: 1644481843 heartbeat IPC: 0.3342 cumulative IPC: 0.3345 (Simulation time: 02 hr 25 min 29 sec)
[ERROR_CYCLE] Error added at CPU cycle 1648835009, interval 64, pending count: 1
[DRAM_CYCLE_ERROR] Cycle-based error applied! address=0x56fb6f388 additional_latency=173500 cycles
Heartbeat CPU 0 instructions: 560000095 cycles: 1674400615 heartbeat IPC: 0.3342 cumulative IPC: 0.3344 (Simulation time: 02 hr 27 min 36 sec)
[ERROR_CYCLE] Error added at CPU cycle 1674598055, interval 65, pending count: 1
[DRAM_CYCLE_ERROR] Cycle-based error applied! address=0x15e459fb00 additional_latency=173500 cycles
[ERROR_CYCLE] Error added at CPU cycle 1700361102, interval 66, pending count: 1
[DRAM_CYCLE_ERROR] Cycle-based error applied! address=0x1eb48f388 additional_latency=173500 cycles
Heartbeat CPU 0 instructions: 570000095 cycles: 1704248256 heartbeat IPC: 0.335 cumulative IPC: 0.3345 (Simulation time: 02 hr 29 min 37 sec)
[ERROR_CYCLE] Error added at CPU cycle 1726124150, interval 67, pending count: 1
[DRAM_CYCLE_ERROR] Cycle-based error applied! address=0x15eb2165d8 additional_latency=173500 cycles
Heartbeat CPU 0 instructions: 580000099 cycles: 1734134160 heartbeat IPC: 0.3346 cumulative IPC: 0.3345 (Simulation time: 02 hr 31 min 46 sec)
[ERROR_CYCLE] Error added at CPU cycle 1751887196, interval 68, pending count: 1
[DRAM_CYCLE_ERROR] Cycle-based error applied! address=0x9c13244a0 additional_latency=173500 cycles
Heartbeat CPU 0 instructions: 590000102 cycles: 1764017763 heartbeat IPC: 0.3346 cumulative IPC: 0.3345 (Simulation time: 02 hr 34 min 16 sec)
[ERROR_CYCLE] Error added at CPU cycle 1777650243, interval 69, pending count: 1
[DRAM_CYCLE_ERROR] Cycle-based error applied! address=0xb4cd27d20 additional_latency=173500 cycles
Heartbeat CPU 0 instructions: 600000104 cycles: 1793892582 heartbeat IPC: 0.3347 cumulative IPC: 0.3345 (Simulation time: 02 hr 36 min 10 sec)
[ERROR_CYCLE] Error added at CPU cycle 1803413291, interval 70, pending count: 1
[DRAM_CYCLE_ERROR] Cycle-based error applied! address=0x1e17f7a0e0 additional_latency=173500 cycles
Heartbeat CPU 0 instructions: 610000105 cycles: 1823827484 heartbeat IPC: 0.3341 cumulative IPC: 0.3345 (Simulation time: 02 hr 38 min 13 sec)
[ERROR_CYCLE] Error added at CPU cycle 1829176337, interval 71, pending count: 1
[DRAM_CYCLE_ERROR] Cycle-based error applied! address=0xe88cf9cb8 additional_latency=173500 cycles
[ERROR_CYCLE] Error added at CPU cycle 1854939384, interval 72, pending count: 1
[DRAM_CYCLE_ERROR] Cycle-based error applied! address=0x6b072f858 additional_latency=173500 cycles
Heartbeat CPU 0 instructions: 620000107 cycles: 1858125338 heartbeat IPC: 0.2916 cumulative IPC: 0.3337 (Simulation time: 02 hr 40 min 22 sec)
[ERROR_CYCLE] Error added at CPU cycle 1880702432, interval 73, pending count: 1
[DRAM_CYCLE_ERROR] Cycle-based error applied! address=0x1e77adaec8 additional_latency=173500 cycles
Heartbeat CPU 0 instructions: 630000107 cycles: 1890929842 heartbeat IPC: 0.3048 cumulative IPC: 0.3332 (Simulation time: 02 hr 42 min 25 sec)
[ERROR_CYCLE] Error added at CPU cycle 1906465478, interval 74, pending count: 1
[DRAM_CYCLE_ERROR] Cycle-based error applied! address=0xe9b9cda98 additional_latency=173500 cycles
Heartbeat CPU 0 instructions: 640000107 cycles: 1921812347 heartbeat IPC: 0.3238 cumulative IPC: 0.333 (Simulation time: 02 hr 44 min 31 sec)
[ERROR_CYCLE] Error added at CPU cycle 1932228526, interval 75, pending count: 1
[DRAM_CYCLE_ERROR] Cycle-based error applied! address=0x14a713c920 additional_latency=173500 cycles
Heartbeat CPU 0 instructions: 650000107 cycles: 1953367002 heartbeat IPC: 0.3169 cumulative IPC: 0.3328 (Simulation time: 02 hr 46 min 46 sec)
[ERROR_CYCLE] Error added at CPU cycle 1957991572, interval 76, pending count: 1
[DRAM_CYCLE_ERROR] Cycle-based error applied! address=0xd14372760 additional_latency=173500 cycles
Heartbeat CPU 0 instructions: 660000108 cycles: 1983679710 heartbeat IPC: 0.3299 cumulative IPC: 0.3327 (Simulation time: 02 hr 49 min 26 sec)
[ERROR_CYCLE] Error added at CPU cycle 1983754619, interval 77, pending count: 1
[DRAM_CYCLE_ERROR] Cycle-based error applied! address=0x11b2765708 additional_latency=173500 cycles
[ERROR_CYCLE] Error added at CPU cycle 2009517667, interval 78, pending count: 1
[DRAM_CYCLE_ERROR] Cycle-based error applied! address=0x165539a398 additional_latency=173500 cycles
Heartbeat CPU 0 instructions: 670000109 cycles: 2013614347 heartbeat IPC: 0.3341 cumulative IPC: 0.3327 (Simulation time: 02 hr 51 min 39 sec)
[ERROR_CYCLE] Error added at CPU cycle 2035280713, interval 79, pending count: 1
[DRAM_CYCLE_ERROR] Cycle-based error applied! address=0x1ab6e35dc8 additional_latency=173500 cycles
Heartbeat CPU 0 instructions: 680000110 cycles: 2043470863 heartbeat IPC: 0.3349 cumulative IPC: 0.3328 (Simulation time: 02 hr 53 min 29 sec)
[ERROR_CYCLE] Error added at CPU cycle 2061043760, interval 80, pending count: 1
[DRAM_CYCLE_ERROR] Cycle-based error applied! address=0x1789d2caa0 additional_latency=173500 cycles
Heartbeat CPU 0 instructions: 690000111 cycles: 2073237831 heartbeat IPC: 0.3359 cumulative IPC: 0.3328 (Simulation time: 02 hr 55 min 23 sec)
[ERROR_CYCLE] Error added at CPU cycle 2086806808, interval 81, pending count: 1
[DRAM_CYCLE_ERROR] Cycle-based error applied! address=0x12e1b7bcc8 additional_latency=173500 cycles
Heartbeat CPU 0 instructions: 700000115 cycles: 2102989755 heartbeat IPC: 0.3361 cumulative IPC: 0.3329 (Simulation time: 02 hr 57 min 46 sec)
[ERROR_CYCLE] Error added at CPU cycle 2112569854, interval 82, pending count: 1
[DRAM_CYCLE_ERROR] Cycle-based error applied! address=0x3c046d880 additional_latency=173500 cycles
Heartbeat CPU 0 instructions: 710000116 cycles: 2132771340 heartbeat IPC: 0.3358 cumulative IPC: 0.3329 (Simulation time: 02 hr 59 min 50 sec)
[ERROR_CYCLE] Error added at CPU cycle 2138332901, interval 83, pending count: 1
[DRAM_CYCLE_ERROR] Cycle-based error applied! address=0x1330e90ad8 additional_latency=173500 cycles
Heartbeat CPU 0 instructions: 720000117 cycles: 2162524723 heartbeat IPC: 0.3361 cumulative IPC: 0.3329 (Simulation time: 03 hr 01 min 54 sec)
[ERROR_CYCLE] Error added at CPU cycle 2164095949, interval 84, pending count: 1
[DRAM_CYCLE_ERROR] Cycle-based error applied! address=0x154ba68d88 additional_latency=173500 cycles
[ERROR_CYCLE] Error added at CPU cycle 2189858995, interval 85, pending count: 1
[DRAM_CYCLE_ERROR] Cycle-based error applied! address=0x197b6cb6d0 additional_latency=173500 cycles
Heartbeat CPU 0 instructions: 730000120 cycles: 2192422435 heartbeat IPC: 0.3345 cumulative IPC: 0.333 (Simulation time: 03 hr 04 min 32 sec)
[ERROR_CYCLE] Error added at CPU cycle 2215622043, interval 86, pending count: 1
[DRAM_CYCLE_ERROR] Cycle-based error applied! address=0x8e3370de0 additional_latency=173500 cycles
Heartbeat CPU 0 instructions: 740000121 cycles: 2222341475 heartbeat IPC: 0.3342 cumulative IPC: 0.333 (Simulation time: 03 hr 06 min 31 sec)
[ERROR_CYCLE] Error added at CPU cycle 2241385090, interval 87, pending count: 1
[DRAM_CYCLE_ERROR] Cycle-based error applied! address=0x17ed771e10 additional_latency=173500 cycles
Heartbeat CPU 0 instructions: 750000122 cycles: 2252240970 heartbeat IPC: 0.3345 cumulative IPC: 0.333 (Simulation time: 03 hr 08 min 37 sec)
[ERROR_CYCLE] Error added at CPU cycle 2267148136, interval 88, pending count: 1
[DRAM_CYCLE_ERROR] Cycle-based error applied! address=0xe852caa80 additional_latency=173500 cycles
Heartbeat CPU 0 instructions: 760000122 cycles: 2282188755 heartbeat IPC: 0.3339 cumulative IPC: 0.333 (Simulation time: 03 hr 10 min 26 sec)
[ERROR_CYCLE] Error added at CPU cycle 2292911184, interval 89, pending count: 1
[DRAM_CYCLE_ERROR] Cycle-based error applied! address=0x1321e53148 additional_latency=173500 cycles
Heartbeat CPU 0 instructions: 770000122 cycles: 2312158234 heartbeat IPC: 0.3337 cumulative IPC: 0.333 (Simulation time: 03 hr 12 min 15 sec)
[ERROR_CYCLE] Error added at CPU cycle 2318674230, interval 90, pending count: 1
[DRAM_CYCLE_ERROR] Cycle-based error applied! address=0x1df61aa60 additional_latency=173500 cycles
Heartbeat CPU 0 instructions: 780000124 cycles: 2342015854 heartbeat IPC: 0.3349 cumulative IPC: 0.333 (Simulation time: 03 hr 14 min 20 sec)
[ERROR_CYCLE] Error added at CPU cycle 2344437277, interval 91, pending count: 1
[DRAM_CYCLE_ERROR] Cycle-based error applied! address=0x1cf17b8ba0 additional_latency=173500 cycles
[ERROR_CYCLE] Error added at CPU cycle 2370200325, interval 92, pending count: 1
[DRAM_CYCLE_ERROR] Cycle-based error applied! address=0x183d6116c0 additional_latency=173500 cycles
Heartbeat CPU 0 instructions: 790000127 cycles: 2371790919 heartbeat IPC: 0.3359 cumulative IPC: 0.3331 (Simulation time: 03 hr 16 min 09 sec)
[ERROR_CYCLE] Error added at CPU cycle 2395963371, interval 93, pending count: 1
[DRAM_CYCLE_ERROR] Cycle-based error applied! address=0x1cfc597c88 additional_latency=173500 cycles
Heartbeat CPU 0 instructions: 800000128 cycles: 2401700694 heartbeat IPC: 0.3343 cumulative IPC: 0.3331 (Simulation time: 03 hr 18 min 04 sec)
[ERROR_CYCLE] Error added at CPU cycle 2421726418, interval 94, pending count: 1
[DRAM_CYCLE_ERROR] Cycle-based error applied! address=0x1cf8ca4d48 additional_latency=173500 cycles
Heartbeat CPU 0 instructions: 810000128 cycles: 2431613499 heartbeat IPC: 0.3343 cumulative IPC: 0.3331 (Simulation time: 03 hr 20 min 03 sec)
[ERROR_CYCLE] Error added at CPU cycle 2447489466, interval 95, pending count: 1
[DRAM_CYCLE_ERROR] Cycle-based error applied! address=0x1bb9ec71c8 additional_latency=173500 cycles
Heartbeat CPU 0 instructions: 820000128 cycles: 2461583415 heartbeat IPC: 0.3337 cumulative IPC: 0.3331 (Simulation time: 03 hr 22 min 02 sec)
[ERROR_CYCLE] Error added at CPU cycle 2473252512, interval 96, pending count: 1
[DRAM_CYCLE_ERROR] Cycle-based error applied! address=0x16e1f8e940 additional_latency=173500 cycles
Heartbeat CPU 0 instructions: 830000128 cycles: 2491500782 heartbeat IPC: 0.3343 cumulative IPC: 0.3331 (Simulation time: 03 hr 24 min 13 sec)
[ERROR_CYCLE] Error added at CPU cycle 2499015559, interval 97, pending count: 1
[DRAM_CYCLE_ERROR] Cycle-based error applied! address=0x1a0b6415d0 additional_latency=173500 cycles
Heartbeat CPU 0 instructions: 840000128 cycles: 2521372324 heartbeat IPC: 0.3348 cumulative IPC: 0.3332 (Simulation time: 03 hr 26 min 06 sec)
[ERROR_CYCLE] Error added at CPU cycle 2524778607, interval 98, pending count: 1
[DRAM_CYCLE_ERROR] Cycle-based error applied! address=0xd5ad7bee0 additional_latency=173500 cycles
[ERROR_CYCLE] Error added at CPU cycle 2550541653, interval 99, pending count: 1
[DRAM_CYCLE_ERROR] Cycle-based error applied! address=0x4f5a87850 additional_latency=173500 cycles
Heartbeat CPU 0 instructions: 850000131 cycles: 2551251755 heartbeat IPC: 0.3347 cumulative IPC: 0.3332 (Simulation time: 03 hr 27 min 53 sec)
[ERROR_CYCLE] Error added at CPU cycle 2576304701, interval 100, pending count: 1
[DRAM_CYCLE_ERROR] Cycle-based error applied! address=0x1a62ed3888 additional_latency=173500 cycles
Heartbeat CPU 0 instructions: 860000134 cycles: 2580986830 heartbeat IPC: 0.3363 cumulative IPC: 0.3332 (Simulation time: 03 hr 29 min 41 sec)
[ERROR_CYCLE] Error added at CPU cycle 2602067747, interval 101, pending count: 1
[DRAM_CYCLE_ERROR] Cycle-based error applied! address=0xa612a6610 additional_latency=173500 cycles
Heartbeat CPU 0 instructions: 870000134 cycles: 2610728649 heartbeat IPC: 0.3362 cumulative IPC: 0.3332 (Simulation time: 03 hr 31 min 30 sec)
[ERROR_CYCLE] Error added at CPU cycle 2627830794, interval 102, pending count: 1
[DRAM_CYCLE_ERROR] Cycle-based error applied! address=0x3859bf7d0 additional_latency=173500 cycles
Heartbeat CPU 0 instructions: 880000136 cycles: 2640445014 heartbeat IPC: 0.3365 cumulative IPC: 0.3333 (Simulation time: 03 hr 33 min 19 sec)
[ERROR_CYCLE] Error added at CPU cycle 2653593842, interval 103, pending count: 1
[DRAM_CYCLE_ERROR] Cycle-based error applied! address=0x163ff5d508 additional_latency=173500 cycles
Heartbeat CPU 0 instructions: 890000137 cycles: 2670205132 heartbeat IPC: 0.336 cumulative IPC: 0.3333 (Simulation time: 03 hr 35 min 18 sec)
[ERROR_CYCLE] Error added at CPU cycle 2679356888, interval 104, pending count: 1
[DRAM_CYCLE_ERROR] Cycle-based error applied! address=0x110635610 additional_latency=173500 cycles
Heartbeat CPU 0 instructions: 900000137 cycles: 2700002095 heartbeat IPC: 0.3356 cumulative IPC: 0.3333 (Simulation time: 03 hr 37 min 04 sec)
[ERROR_CYCLE] Error added at CPU cycle 2705119935, interval 105, pending count: 1
[DRAM_CYCLE_ERROR] Cycle-based error applied! address=0x1322406688 additional_latency=173500 cycles
Heartbeat CPU 0 instructions: 910000140 cycles: 2729829121 heartbeat IPC: 0.3353 cumulative IPC: 0.3334 (Simulation time: 03 hr 38 min 50 sec)
[ERROR_CYCLE] Error added at CPU cycle 2730882983, interval 106, pending count: 1
[DRAM_CYCLE_ERROR] Cycle-based error applied! address=0x39bb4b008 additional_latency=173500 cycles
[ERROR_CYCLE] Error added at CPU cycle 2756646029, interval 107, pending count: 1
[DRAM_CYCLE_ERROR] Cycle-based error applied! address=0x9c6024c88 additional_latency=173500 cycles
Heartbeat CPU 0 instructions: 920000140 cycles: 2759626104 heartbeat IPC: 0.3356 cumulative IPC: 0.3334 (Simulation time: 03 hr 40 min 37 sec)
[ERROR_CYCLE] Error added at CPU cycle 2782409076, interval 108, pending count: 1
[DRAM_CYCLE_ERROR] Cycle-based error applied! address=0x1f26d1d808 additional_latency=173500 cycles
Heartbeat CPU 0 instructions: 930000140 cycles: 2789434508 heartbeat IPC: 0.3355 cumulative IPC: 0.3334 (Simulation time: 03 hr 42 min 24 sec)
[ERROR_CYCLE] Error added at CPU cycle 2808172124, interval 109, pending count: 1
[DRAM_CYCLE_ERROR] Cycle-based error applied! address=0x1b7f837048 additional_latency=173500 cycles
Heartbeat CPU 0 instructions: 940000144 cycles: 2819257175 heartbeat IPC: 0.3353 cumulative IPC: 0.3334 (Simulation time: 03 hr 44 min 11 sec)
[ERROR_CYCLE] Error added at CPU cycle 2833935170, interval 110, pending count: 1
[DRAM_CYCLE_ERROR] Cycle-based error applied! address=0x19804c3498 additional_latency=173500 cycles
Heartbeat CPU 0 instructions: 950000147 cycles: 2849092281 heartbeat IPC: 0.3352 cumulative IPC: 0.3334 (Simulation time: 03 hr 45 min 58 sec)
[ERROR_CYCLE] Error added at CPU cycle 2859698218, interval 111, pending count: 1
[DRAM_CYCLE_ERROR] Cycle-based error applied! address=0x1279da7250 additional_latency=173500 cycles
Heartbeat CPU 0 instructions: 960000147 cycles: 2878871585 heartbeat IPC: 0.3358 cumulative IPC: 0.3335 (Simulation time: 03 hr 47 min 46 sec)
[ERROR_CYCLE] Error added at CPU cycle 2885461265, interval 112, pending count: 1
[DRAM_CYCLE_ERROR] Cycle-based error applied! address=0x180fb78380 additional_latency=173500 cycles
Heartbeat CPU 0 instructions: 970000149 cycles: 2908701643 heartbeat IPC: 0.3352 cumulative IPC: 0.3335 (Simulation time: 03 hr 49 min 35 sec)
[ERROR_CYCLE] Error added at CPU cycle 2911224311, interval 113, pending count: 1
[DRAM_CYCLE_ERROR] Cycle-based error applied! address=0xcde984308 additional_latency=173500 cycles
[ERROR_CYCLE] Error added at CPU cycle 2936987359, interval 114, pending count: 1
[DRAM_CYCLE_ERROR] Cycle-based error applied! address=0x1f32c7a988 additional_latency=173500 cycles
Heartbeat CPU 0 instructions: 980000150 cycles: 2938531372 heartbeat IPC: 0.3352 cumulative IPC: 0.3335 (Simulation time: 03 hr 51 min 20 sec)
[ERROR_CYCLE] Error added at CPU cycle 2962750405, interval 115, pending count: 1
[DRAM_CYCLE_ERROR] Cycle-based error applied! address=0x14d322bc08 additional_latency=173500 cycles
Heartbeat CPU 0 instructions: 990000150 cycles: 2968325550 heartbeat IPC: 0.3356 cumulative IPC: 0.3335 (Simulation time: 03 hr 53 min 05 sec)
[ERROR_CYCLE] Error added at CPU cycle 2988513452, interval 116, pending count: 1
[DRAM_CYCLE_ERROR] Cycle-based error applied! address=0xde74b1148 additional_latency=173500 cycles
Heartbeat CPU 0 instructions: 1000000152 cycles: 2998167465 heartbeat IPC: 0.3351 cumulative IPC: 0.3335 (Simulation time: 03 hr 54 min 50 sec)
[ERROR_CYCLE] Error added at CPU cycle 3014276500, interval 117, pending count: 1
[DRAM_CYCLE_ERROR] Cycle-based error applied! address=0x6f0617900 additional_latency=173500 cycles
Heartbeat CPU 0 instructions: 1010000153 cycles: 3027926553 heartbeat IPC: 0.336 cumulative IPC: 0.3336 (Simulation time: 03 hr 56 min 35 sec)
[ERROR_CYCLE] Error added at CPU cycle 3040039546, interval 118, pending count: 1
[DRAM_CYCLE_ERROR] Cycle-based error applied! address=0x678331020 additional_latency=173500 cycles
Heartbeat CPU 0 instructions: 1020000155 cycles: 3057701920 heartbeat IPC: 0.3358 cumulative IPC: 0.3336 (Simulation time: 03 hr 58 min 18 sec)
[ERROR_CYCLE] Error added at CPU cycle 3065802593, interval 119, pending count: 1
[DRAM_CYCLE_ERROR] Cycle-based error applied! address=0x61f9eea88 additional_latency=173500 cycles
Heartbeat CPU 0 instructions: 1030000155 cycles: 3087591234 heartbeat IPC: 0.3346 cumulative IPC: 0.3336 (Simulation time: 04 hr 00 min 03 sec)
[ERROR_CYCLE] Error added at CPU cycle 3091565641, interval 120, pending count: 1
[DRAM_CYCLE_ERROR] Cycle-based error applied! address=0x11904fd960 additional_latency=173500 cycles
[ERROR_CYCLE] Error added at CPU cycle 3117328687, interval 121, pending count: 1
[DRAM_CYCLE_ERROR] Cycle-based error applied! address=0x14b25cbb48 additional_latency=173500 cycles
Heartbeat CPU 0 instructions: 1040000157 cycles: 3117424946 heartbeat IPC: 0.3352 cumulative IPC: 0.3336 (Simulation time: 04 hr 01 min 46 sec)
[ERROR_CYCLE] Error added at CPU cycle 3143091734, interval 122, pending count: 1
[DRAM_CYCLE_ERROR] Cycle-based error applied! address=0x8a493d040 additional_latency=173500 cycles
Heartbeat CPU 0 instructions: 1050000160 cycles: 3147203354 heartbeat IPC: 0.3358 cumulative IPC: 0.3336 (Simulation time: 04 hr 03 min 32 sec)
[ERROR_CYCLE] Error added at CPU cycle 3168854782, interval 123, pending count: 1
[DRAM_CYCLE_ERROR] Cycle-based error applied! address=0x1d825cc200 additional_latency=173500 cycles
Heartbeat CPU 0 instructions: 1060000161 cycles: 3176992785 heartbeat IPC: 0.3357 cumulative IPC: 0.3336 (Simulation time: 04 hr 05 min 16 sec)
[ERROR_CYCLE] Error added at CPU cycle 3194617828, interval 124, pending count: 1
[DRAM_CYCLE_ERROR] Cycle-based error applied! address=0xa2ac7c4a0 additional_latency=173500 cycles
Heartbeat CPU 0 instructions: 1070000162 cycles: 3206769379 heartbeat IPC: 0.3358 cumulative IPC: 0.3337 (Simulation time: 04 hr 07 min 00 sec)
[ERROR_CYCLE] Error added at CPU cycle 3220380876, interval 125, pending count: 1
[DRAM_CYCLE_ERROR] Cycle-based error applied! address=0x9bdf03f90 additional_latency=173500 cycles
Heartbeat CPU 0 instructions: 1080000163 cycles: 3236571292 heartbeat IPC: 0.3355 cumulative IPC: 0.3337 (Simulation time: 04 hr 08 min 45 sec)
[ERROR_CYCLE] Error added at CPU cycle 3246143922, interval 126, pending count: 1
[DRAM_CYCLE_ERROR] Cycle-based error applied! address=0x1d0127c288 additional_latency=173500 cycles
Heartbeat CPU 0 instructions: 1090000163 cycles: 3266394611 heartbeat IPC: 0.3353 cumulative IPC: 0.3337 (Simulation time: 04 hr 10 min 30 sec)
[ERROR_CYCLE] Error added at CPU cycle 3271906969, interval 127, pending count: 1
[DRAM_CYCLE_ERROR] Cycle-based error applied! address=0x10de0c8bc0 additional_latency=173500 cycles
Heartbeat CPU 0 instructions: 1100000164 cycles: 3296229767 heartbeat IPC: 0.3352 cumulative IPC: 0.3337 (Simulation time: 04 hr 12 min 14 sec)
[ERROR_CYCLE] Error added at CPU cycle 3297670017, interval 128, pending count: 1
[DRAM_CYCLE_ERROR] Cycle-based error applied! address=0x334390ed0 additional_latency=173500 cycles
[ERROR_CYCLE] Error added at CPU cycle 3323433063, interval 129, pending count: 1
[DRAM_CYCLE_ERROR] Cycle-based error applied! address=0xc12ebfe98 additional_latency=173500 cycles
Heartbeat CPU 0 instructions: 1110000164 cycles: 3325997468 heartbeat IPC: 0.3359 cumulative IPC: 0.3337 (Simulation time: 04 hr 13 min 58 sec)
[ERROR_CYCLE] Error added at CPU cycle 3349196110, interval 130, pending count: 1
[DRAM_CYCLE_ERROR] Cycle-based error applied! address=0x7b99a5cc8 additional_latency=173500 cycles
Heartbeat CPU 0 instructions: 1120000166 cycles: 3355724838 heartbeat IPC: 0.3364 cumulative IPC: 0.3338 (Simulation time: 04 hr 15 min 41 sec)
[ERROR_CYCLE] Error added at CPU cycle 3374959158, interval 131, pending count: 1
[DRAM_CYCLE_ERROR] Cycle-based error applied! address=0x1ac7856e80 additional_latency=173500 cycles
Heartbeat CPU 0 instructions: 1130000166 cycles: 3385495122 heartbeat IPC: 0.3359 cumulative IPC: 0.3338 (Simulation time: 04 hr 17 min 24 sec)
[ERROR_CYCLE] Error added at CPU cycle 3400722204, interval 132, pending count: 1
[DRAM_CYCLE_ERROR] Cycle-based error applied! address=0x1128e84f20 additional_latency=173500 cycles
Heartbeat CPU 0 instructions: 1140000169 cycles: 3415253661 heartbeat IPC: 0.336 cumulative IPC: 0.3338 (Simulation time: 04 hr 19 min 06 sec)
[ERROR_CYCLE] Error added at CPU cycle 3426485251, interval 133, pending count: 1
[DRAM_CYCLE_ERROR] Cycle-based error applied! address=0x1465fe7920 additional_latency=173500 cycles
Heartbeat CPU 0 instructions: 1150000169 cycles: 3445166668 heartbeat IPC: 0.3343 cumulative IPC: 0.3338 (Simulation time: 04 hr 20 min 50 sec)
[ERROR_CYCLE] Error added at CPU cycle 3452248299, interval 134, pending count: 1
[DRAM_CYCLE_ERROR] Cycle-based error applied! address=0x1df9ca6758 additional_latency=173500 cycles
Heartbeat CPU 0 instructions: 1160000171 cycles: 3474956670 heartbeat IPC: 0.3357 cumulative IPC: 0.3338 (Simulation time: 04 hr 22 min 33 sec)
[ERROR_CYCLE] Error added at CPU cycle 3478011345, interval 135, pending count: 1
[DRAM_CYCLE_ERROR] Cycle-based error applied! address=0x189cba118 additional_latency=173500 cycles
[ERROR_CYCLE] Error added at CPU cycle 3503774393, interval 136, pending count: 1
[DRAM_CYCLE_ERROR] Cycle-based error applied! address=0x77cb24020 additional_latency=173500 cycles
Heartbeat CPU 0 instructions: 1170000172 cycles: 3504809122 heartbeat IPC: 0.335 cumulative IPC: 0.3338 (Simulation time: 04 hr 24 min 17 sec)
[ERROR_CYCLE] Error added at CPU cycle 3529537440, interval 137, pending count: 1
[DRAM_CYCLE_ERROR] Cycle-based error applied! address=0xd3f871f60 additional_latency=173500 cycles
Heartbeat CPU 0 instructions: 1180000173 cycles: 3534689660 heartbeat IPC: 0.3347 cumulative IPC: 0.3338 (Simulation time: 04 hr 26 min 01 sec)
[ERROR_CYCLE] Error added at CPU cycle 3555300486, interval 138, pending count: 1
[DRAM_CYCLE_ERROR] Cycle-based error applied! address=0x1282ace750 additional_latency=173500 cycles
Heartbeat CPU 0 instructions: 1190000173 cycles: 3564555684 heartbeat IPC: 0.3348 cumulative IPC: 0.3338 (Simulation time: 04 hr 27 min 43 sec)
[ERROR_CYCLE] Error added at CPU cycle 3581063534, interval 139, pending count: 1
[DRAM_CYCLE_ERROR] Cycle-based error applied! address=0x1bc899b900 additional_latency=173500 cycles
Heartbeat CPU 0 instructions: 1200000173 cycles: 3594369624 heartbeat IPC: 0.3354 cumulative IPC: 0.3339 (Simulation time: 04 hr 29 min 26 sec)
[ERROR_CYCLE] Error added at CPU cycle 3606826580, interval 140, pending count: 1
[DRAM_CYCLE_ERROR] Cycle-based error applied! address=0x1be247c8 additional_latency=173500 cycles
Heartbeat CPU 0 instructions: 1210000174 cycles: 3624181569 heartbeat IPC: 0.3354 cumulative IPC: 0.3339 (Simulation time: 04 hr 31 min 10 sec)
[ERROR_CYCLE] Error added at CPU cycle 3632589627, interval 141, pending count: 1
[DRAM_CYCLE_ERROR] Cycle-based error applied! address=0x1dee857c58 additional_latency=173500 cycles
Heartbeat CPU 0 instructions: 1220000178 cycles: 3654084554 heartbeat IPC: 0.3344 cumulative IPC: 0.3339 (Simulation time: 04 hr 32 min 54 sec)
[ERROR_CYCLE] Error added at CPU cycle 3658352675, interval 142, pending count: 1
[DRAM_CYCLE_ERROR] Cycle-based error applied! address=0x1779f8c008 additional_latency=173500 cycles
Heartbeat CPU 0 instructions: 1230000181 cycles: 3684009881 heartbeat IPC: 0.3342 cumulative IPC: 0.3339 (Simulation time: 04 hr 34 min 38 sec)
[ERROR_CYCLE] Error added at CPU cycle 3684115721, interval 143, pending count: 1
[DRAM_CYCLE_ERROR] Cycle-based error applied! address=0x204f4c848 additional_latency=173500 cycles
[ERROR_CYCLE] Error added at CPU cycle 3709878768, interval 144, pending count: 1
[DRAM_CYCLE_ERROR] Cycle-based error applied! address=0x348834dd8 additional_latency=173500 cycles
Heartbeat CPU 0 instructions: 1240000182 cycles: 3713884354 heartbeat IPC: 0.3347 cumulative IPC: 0.3339 (Simulation time: 04 hr 36 min 22 sec)
[ERROR_CYCLE] Error added at CPU cycle 3735641816, interval 145, pending count: 1
[DRAM_CYCLE_ERROR] Cycle-based error applied! address=0xa5e37fd58 additional_latency=173500 cycles
Heartbeat CPU 0 instructions: 1250000185 cycles: 3743756989 heartbeat IPC: 0.3348 cumulative IPC: 0.3339 (Simulation time: 04 hr 38 min 05 sec)
[ERROR_CYCLE] Error added at CPU cycle 3761404862, interval 146, pending count: 1
[DRAM_CYCLE_ERROR] Cycle-based error applied! address=0x8052cee80 additional_latency=173500 cycles
Heartbeat CPU 0 instructions: 1260000185 cycles: 3773688782 heartbeat IPC: 0.3341 cumulative IPC: 0.3339 (Simulation time: 04 hr 39 min 48 sec)
[ERROR_CYCLE] Error added at CPU cycle 3787167910, interval 147, pending count: 1
[DRAM_CYCLE_ERROR] Cycle-based error applied! address=0xefd6f5e10 additional_latency=173500 cycles
Heartbeat CPU 0 instructions: 1270000185 cycles: 3803574287 heartbeat IPC: 0.3346 cumulative IPC: 0.3339 (Simulation time: 04 hr 42 min 46 sec)
[ERROR_CYCLE] Error added at CPU cycle 3812930957, interval 148, pending count: 1
[DRAM_CYCLE_ERROR] Cycle-based error applied! address=0x7adc286b0 additional_latency=173500 cycles
Heartbeat CPU 0 instructions: 1280000186 cycles: 3833540217 heartbeat IPC: 0.3337 cumulative IPC: 0.3339 (Simulation time: 04 hr 46 min 11 sec)
[ERROR_CYCLE] Error added at CPU cycle 3838694003, interval 149, pending count: 1
[DRAM_CYCLE_ERROR] Cycle-based error applied! address=0xd39665750 additional_latency=173500 cycles
Heartbeat CPU 0 instructions: 1290000186 cycles: 3863447222 heartbeat IPC: 0.3344 cumulative IPC: 0.3339 (Simulation time: 04 hr 49 min 35 sec)
[ERROR_CYCLE] Error added at CPU cycle 3864457051, interval 150, pending count: 1
[DRAM_CYCLE_ERROR] Cycle-based error applied! address=0x1b01276950 additional_latency=173500 cycles
[ERROR_CYCLE] Error added at CPU cycle 3890220097, interval 151, pending count: 1
[DRAM_CYCLE_ERROR] Cycle-based error applied! address=0xd6499f80 additional_latency=173500 cycles
Heartbeat CPU 0 instructions: 1300000190 cycles: 3893279052 heartbeat IPC: 0.3352 cumulative IPC: 0.3339 (Simulation time: 04 hr 52 min 47 sec)
[ERROR_CYCLE] Error added at CPU cycle 3915983144, interval 152, pending count: 1
[DRAM_CYCLE_ERROR] Cycle-based error applied! address=0x18f71ad0d8 additional_latency=173500 cycles
Heartbeat CPU 0 instructions: 1310000190 cycles: 3923179232 heartbeat IPC: 0.3344 cumulative IPC: 0.3339 (Simulation time: 04 hr 56 min 04 sec)
[ERROR_CYCLE] Error added at CPU cycle 3941746192, interval 153, pending count: 1
[DRAM_CYCLE_ERROR] Cycle-based error applied! address=0x25bb6ce08 additional_latency=173500 cycles
Heartbeat CPU 0 instructions: 1320000190 cycles: 3953114751 heartbeat IPC: 0.3341 cumulative IPC: 0.3339 (Simulation time: 04 hr 59 min 22 sec)
[ERROR_CYCLE] Error added at CPU cycle 3967509238, interval 154, pending count: 1
[DRAM_CYCLE_ERROR] Cycle-based error applied! address=0x5e4422dd8 additional_latency=173500 cycles
Heartbeat CPU 0 instructions: 1330000190 cycles: 3983046791 heartbeat IPC: 0.3341 cumulative IPC: 0.3339 (Simulation time: 05 hr 02 min 50 sec)
[ERROR_CYCLE] Error added at CPU cycle 3993272285, interval 155, pending count: 1
[DRAM_CYCLE_ERROR] Cycle-based error applied! address=0x8131d9480 additional_latency=173500 cycles
Heartbeat CPU 0 instructions: 1340000190 cycles: 4012943314 heartbeat IPC: 0.3345 cumulative IPC: 0.3339 (Simulation time: 05 hr 06 min 11 sec)
[ERROR_CYCLE] Error added at CPU cycle 4019035333, interval 156, pending count: 1
[DRAM_CYCLE_ERROR] Cycle-based error applied! address=0xf96ad1f48 additional_latency=173500 cycles
Heartbeat CPU 0 instructions: 1350000192 cycles: 4042827661 heartbeat IPC: 0.3346 cumulative IPC: 0.3339 (Simulation time: 05 hr 09 min 29 sec)
[ERROR_CYCLE] Error added at CPU cycle 4044798379, interval 157, pending count: 1
[DRAM_CYCLE_ERROR] Cycle-based error applied! address=0xea200d1d0 additional_latency=173500 cycles
[ERROR_CYCLE] Error added at CPU cycle 4070561426, interval 158, pending count: 1
[DRAM_CYCLE_ERROR] Cycle-based error applied! address=0xf96d08818 additional_latency=173500 cycles
Heartbeat CPU 0 instructions: 1360000193 cycles: 4072760203 heartbeat IPC: 0.3341 cumulative IPC: 0.3339 (Simulation time: 05 hr 12 min 38 sec)
[ERROR_CYCLE] Error added at CPU cycle 4096324474, interval 159, pending count: 1
[DRAM_CYCLE_ERROR] Cycle-based error applied! address=0x1b154d4410 additional_latency=173500 cycles
Heartbeat CPU 0 instructions: 1370000194 cycles: 4102740747 heartbeat IPC: 0.3335 cumulative IPC: 0.3339 (Simulation time: 05 hr 15 min 49 sec)
[ERROR_CYCLE] Error added at CPU cycle 4122087520, interval 160, pending count: 1
[DRAM_CYCLE_ERROR] Cycle-based error applied! address=0x133c92630 additional_latency=173500 cycles
Heartbeat CPU 0 instructions: 1380000197 cycles: 4132734999 heartbeat IPC: 0.3334 cumulative IPC: 0.3339 (Simulation time: 05 hr 18 min 59 sec)
[ERROR_CYCLE] Error added at CPU cycle 4147850568, interval 161, pending count: 1
[DRAM_CYCLE_ERROR] Cycle-based error applied! address=0x13bafa8890 additional_latency=173500 cycles
Heartbeat CPU 0 instructions: 1390000201 cycles: 4162612556 heartbeat IPC: 0.3347 cumulative IPC: 0.3339 (Simulation time: 05 hr 22 min 12 sec)
[ERROR_CYCLE] Error added at CPU cycle 4173613614, interval 162, pending count: 1
[DRAM_CYCLE_ERROR] Cycle-based error applied! address=0x5fb1d3580 additional_latency=173500 cycles
Heartbeat CPU 0 instructions: 1400000204 cycles: 4192438742 heartbeat IPC: 0.3353 cumulative IPC: 0.3339 (Simulation time: 05 hr 25 min 22 sec)
[ERROR_CYCLE] Error added at CPU cycle 4199376661, interval 163, pending count: 1
[DRAM_CYCLE_ERROR] Cycle-based error applied! address=0x29c384068 additional_latency=173500 cycles
Heartbeat CPU 0 instructions: 1410000206 cycles: 4222362984 heartbeat IPC: 0.3342 cumulative IPC: 0.3339 (Simulation time: 05 hr 28 min 35 sec)
[ERROR_CYCLE] Error added at CPU cycle 4225139709, interval 164, pending count: 1
[DRAM_CYCLE_ERROR] Cycle-based error applied! address=0x3fc98aea8 additional_latency=173500 cycles
[ERROR_CYCLE] Error added at CPU cycle 4250902755, interval 165, pending count: 1
[DRAM_CYCLE_ERROR] Cycle-based error applied! address=0x4a609ca88 additional_latency=173500 cycles
Heartbeat CPU 0 instructions: 1420000206 cycles: 4252589990 heartbeat IPC: 0.3308 cumulative IPC: 0.3339 (Simulation time: 05 hr 31 min 42 sec)
[ERROR_CYCLE] Error added at CPU cycle 4276665802, interval 166, pending count: 1
[DRAM_CYCLE_ERROR] Cycle-based error applied! address=0x1606349fa0 additional_latency=173500 cycles
Heartbeat CPU 0 instructions: 1430000209 cycles: 4282677438 heartbeat IPC: 0.3324 cumulative IPC: 0.3339 (Simulation time: 05 hr 34 min 49 sec)
[ERROR_CYCLE] Error added at CPU cycle 4302428850, interval 167, pending count: 1
[DRAM_CYCLE_ERROR] Cycle-based error applied! address=0x72f538550 additional_latency=173500 cycles
Heartbeat CPU 0 instructions: 1440000211 cycles: 4314966911 heartbeat IPC: 0.3097 cumulative IPC: 0.3337 (Simulation time: 05 hr 38 min 14 sec)
[ERROR_CYCLE] Error added at CPU cycle 4328191896, interval 168, pending count: 1
[DRAM_CYCLE_ERROR] Cycle-based error applied! address=0xfa81b0340 additional_latency=173500 cycles
Heartbeat CPU 0 instructions: 1450000214 cycles: 4344835526 heartbeat IPC: 0.3348 cumulative IPC: 0.3337 (Simulation time: 05 hr 41 min 18 sec)
[ERROR_CYCLE] Error added at CPU cycle 4353954943, interval 169, pending count: 1
[DRAM_CYCLE_ERROR] Cycle-based error applied! address=0x74eb8eb58 additional_latency=173500 cycles
Heartbeat CPU 0 instructions: 1460000214 cycles: 4374853871 heartbeat IPC: 0.3331 cumulative IPC: 0.3337 (Simulation time: 05 hr 44 min 21 sec)
[ERROR_CYCLE] Error added at CPU cycle 4379717991, interval 170, pending count: 1
[DRAM_CYCLE_ERROR] Cycle-based error applied! address=0x192a5f9048 additional_latency=173500 cycles
Heartbeat CPU 0 instructions: 1470000214 cycles: 4404785286 heartbeat IPC: 0.3341 cumulative IPC: 0.3337 (Simulation time: 05 hr 47 min 24 sec)
[ERROR_CYCLE] Error added at CPU cycle 4405481037, interval 171, pending count: 1
[DRAM_CYCLE_ERROR] Cycle-based error applied! address=0x11645357c8 additional_latency=173500 cycles
[ERROR_CYCLE] Error added at CPU cycle 4431244085, interval 172, pending count: 1
[DRAM_CYCLE_ERROR] Cycle-based error applied! address=0xeaca3b260 additional_latency=173500 cycles
Heartbeat CPU 0 instructions: 1480000216 cycles: 4434659658 heartbeat IPC: 0.3347 cumulative IPC: 0.3337 (Simulation time: 05 hr 50 min 26 sec)
[ERROR_CYCLE] Error added at CPU cycle 4457007132, interval 173, pending count: 1
[DRAM_CYCLE_ERROR] Cycle-based error applied! address=0x16d3cf5540 additional_latency=173500 cycles
Heartbeat CPU 0 instructions: 1490000220 cycles: 4464454895 heartbeat IPC: 0.3356 cumulative IPC: 0.3337 (Simulation time: 05 hr 53 min 27 sec)
[ERROR_CYCLE] Error added at CPU cycle 4482770178, interval 174, pending count: 1
[DRAM_CYCLE_ERROR] Cycle-based error applied! address=0x7a34eb1d0 additional_latency=173500 cycles
Heartbeat CPU 0 instructions: 1500000220 cycles: 4494195639 heartbeat IPC: 0.3362 cumulative IPC: 0.3338 (Simulation time: 05 hr 56 min 30 sec)
[ERROR_CYCLE] Error added at CPU cycle 4508533226, interval 175, pending count: 1
[DRAM_CYCLE_ERROR] Cycle-based error applied! address=0xed56c1798 additional_latency=173500 cycles
Heartbeat CPU 0 instructions: 1510000220 cycles: 4523996404 heartbeat IPC: 0.3356 cumulative IPC: 0.3338 (Simulation time: 05 hr 59 min 34 sec)
[ERROR_CYCLE] Error added at CPU cycle 4534296272, interval 176, pending count: 1
[DRAM_CYCLE_ERROR] Cycle-based error applied! address=0x1d254b2340 additional_latency=173500 cycles
Heartbeat CPU 0 instructions: 1520000222 cycles: 4554020592 heartbeat IPC: 0.3331 cumulative IPC: 0.3338 (Simulation time: 06 hr 02 min 37 sec)
[ERROR_CYCLE] Error added at CPU cycle 4560059319, interval 177, pending count: 1
[DRAM_CYCLE_ERROR] Cycle-based error applied! address=0x8597cb010 additional_latency=173500 cycles
Heartbeat CPU 0 instructions: 1530000222 cycles: 4584052106 heartbeat IPC: 0.333 cumulative IPC: 0.3338 (Simulation time: 06 hr 05 min 40 sec)
[ERROR_CYCLE] Error added at CPU cycle 4585822367, interval 178, pending count: 1
[DRAM_CYCLE_ERROR] Cycle-based error applied! address=0xd7a553b40 additional_latency=173500 cycles
[ERROR_CYCLE] Error added at CPU cycle 4611585413, interval 179, pending count: 1
[DRAM_CYCLE_ERROR] Cycle-based error applied! address=0x12e9e2eac8 additional_latency=173500 cycles
Heartbeat CPU 0 instructions: 1540000223 cycles: 4613663519 heartbeat IPC: 0.3377 cumulative IPC: 0.3338 (Simulation time: 06 hr 08 min 40 sec)
[ERROR_CYCLE] Error added at CPU cycle 4637348460, interval 180, pending count: 1
[DRAM_CYCLE_ERROR] Cycle-based error applied! address=0xd49416cd0 additional_latency=173500 cycles
Heartbeat CPU 0 instructions: 1550000223 cycles: 4642420600 heartbeat IPC: 0.3477 cumulative IPC: 0.3339 (Simulation time: 06 hr 11 min 35 sec)
[ERROR_CYCLE] Error added at CPU cycle 4663111508, interval 181, pending count: 1
[DRAM_CYCLE_ERROR] Cycle-based error applied! address=0x48b429b00 additional_latency=173500 cycles
Heartbeat CPU 0 instructions: 1560000225 cycles: 4671105235 heartbeat IPC: 0.3486 cumulative IPC: 0.334 (Simulation time: 06 hr 14 min 33 sec)
[ERROR_CYCLE] Error added at CPU cycle 4688874554, interval 182, pending count: 1
[DRAM_CYCLE_ERROR] Cycle-based error applied! address=0xf24b03008 additional_latency=173500 cycles
Heartbeat CPU 0 instructions: 1570000225 cycles: 4699853801 heartbeat IPC: 0.3478 cumulative IPC: 0.3341 (Simulation time: 06 hr 17 min 29 sec)
[ERROR_CYCLE] Error added at CPU cycle 4714637601, interval 183, pending count: 1
[DRAM_CYCLE_ERROR] Cycle-based error applied! address=0x414e46708 additional_latency=173500 cycles
Heartbeat CPU 0 instructions: 1580000227 cycles: 4728537310 heartbeat IPC: 0.3486 cumulative IPC: 0.3341 (Simulation time: 06 hr 20 min 25 sec)
[ERROR_CYCLE] Error added at CPU cycle 4740400649, interval 184, pending count: 1
[DRAM_CYCLE_ERROR] Cycle-based error applied! address=0x135ba1ead0 additional_latency=173500 cycles
Heartbeat CPU 0 instructions: 1590000231 cycles: 4757244750 heartbeat IPC: 0.3483 cumulative IPC: 0.3342 (Simulation time: 06 hr 23 min 24 sec)
[ERROR_CYCLE] Error added at CPU cycle 4766163695, interval 185, pending count: 1
[DRAM_CYCLE_ERROR] Cycle-based error applied! address=0x1aee1f0250 additional_latency=173500 cycles
Heartbeat CPU 0 instructions: 1600000231 cycles: 4785962777 heartbeat IPC: 0.3482 cumulative IPC: 0.3343 (Simulation time: 06 hr 26 min 22 sec)
[ERROR_CYCLE] Error added at CPU cycle 4791926743, interval 186, pending count: 1
[DRAM_CYCLE_ERROR] Cycle-based error applied! address=0x107d3f2190 additional_latency=173500 cycles
Heartbeat CPU 0 instructions: 1610000231 cycles: 4814619567 heartbeat IPC: 0.349 cumulative IPC: 0.3344 (Simulation time: 06 hr 29 min 19 sec)
[ERROR_CYCLE] Error added at CPU cycle 4817689789, interval 187, pending count: 1
[DRAM_CYCLE_ERROR] Cycle-based error applied! address=0xd16a67ad0 additional_latency=173500 cycles
Heartbeat CPU 0 instructions: 1620000232 cycles: 4843333216 heartbeat IPC: 0.3483 cumulative IPC: 0.3345 (Simulation time: 06 hr 32 min 17 sec)
[ERROR_CYCLE] Error added at CPU cycle 4843452836, interval 188, pending count: 1
[DRAM_CYCLE_ERROR] Cycle-based error applied! address=0x5e2ad2250 additional_latency=173500 cycles
[ERROR_CYCLE] Error added at CPU cycle 4869215884, interval 189, pending count: 1
[DRAM_CYCLE_ERROR] Cycle-based error applied! address=0x1380520c80 additional_latency=173500 cycles
Heartbeat CPU 0 instructions: 1630000233 cycles: 4871984448 heartbeat IPC: 0.349 cumulative IPC: 0.3346 (Simulation time: 06 hr 35 min 15 sec)
[ERROR_CYCLE] Error added at CPU cycle 4894978930, interval 190, pending count: 1
[DRAM_CYCLE_ERROR] Cycle-based error applied! address=0x1c9cda8960 additional_latency=173500 cycles
Heartbeat CPU 0 instructions: 1640000234 cycles: 4900726794 heartbeat IPC: 0.3479 cumulative IPC: 0.3346 (Simulation time: 06 hr 38 min 13 sec)
[ERROR_CYCLE] Error added at CPU cycle 4920741977, interval 191, pending count: 1
[DRAM_CYCLE_ERROR] Cycle-based error applied! address=0x1202fd24d8 additional_latency=173500 cycles
Heartbeat CPU 0 instructions: 1650000235 cycles: 4929430106 heartbeat IPC: 0.3484 cumulative IPC: 0.3347 (Simulation time: 06 hr 41 min 10 sec)
[ERROR_CYCLE] Error added at CPU cycle 4946505025, interval 192, pending count: 1
[DRAM_CYCLE_ERROR] Cycle-based error applied! address=0xf42721d00 additional_latency=173500 cycles
Heartbeat CPU 0 instructions: 1660000235 cycles: 4958180712 heartbeat IPC: 0.3478 cumulative IPC: 0.3348 (Simulation time: 06 hr 44 min 07 sec)
[ERROR_CYCLE] Error added at CPU cycle 4972268071, interval 193, pending count: 1
[DRAM_CYCLE_ERROR] Cycle-based error applied! address=0x18c248d4c0 additional_latency=173500 cycles
Heartbeat CPU 0 instructions: 1670000235 cycles: 4986895037 heartbeat IPC: 0.3483 cumulative IPC: 0.3349 (Simulation time: 06 hr 47 min 05 sec)
[ERROR_CYCLE] Error added at CPU cycle 4998031118, interval 194, pending count: 1
[DRAM_CYCLE_ERROR] Cycle-based error applied! address=0x1f4120c5d0 additional_latency=173500 cycles
Heartbeat CPU 0 instructions: 1680000237 cycles: 5015590413 heartbeat IPC: 0.3485 cumulative IPC: 0.335 (Simulation time: 06 hr 50 min 00 sec)
[ERROR_CYCLE] Error added at CPU cycle 5023794166, interval 195, pending count: 1
[DRAM_CYCLE_ERROR] Cycle-based error applied! address=0x227b42920 additional_latency=173500 cycles
Heartbeat CPU 0 instructions: 1690000237 cycles: 5044288331 heartbeat IPC: 0.3485 cumulative IPC: 0.335 (Simulation time: 06 hr 52 min 54 sec)
[ERROR_CYCLE] Error added at CPU cycle 5049557212, interval 196, pending count: 1
[DRAM_CYCLE_ERROR] Cycle-based error applied! address=0x3f4277390 additional_latency=173500 cycles
Heartbeat CPU 0 instructions: 1700000241 cycles: 5072976523 heartbeat IPC: 0.3486 cumulative IPC: 0.3351 (Simulation time: 06 hr 55 min 50 sec)
[ERROR_CYCLE] Error added at CPU cycle 5075320260, interval 197, pending count: 1
[DRAM_CYCLE_ERROR] Cycle-based error applied! address=0xc62eb6a50 additional_latency=173500 cycles
[ERROR_CYCLE] Error added at CPU cycle 5101083307, interval 198, pending count: 1
[DRAM_CYCLE_ERROR] Cycle-based error applied! address=0x13de72d438 additional_latency=173500 cycles
Heartbeat CPU 0 instructions: 1710000242 cycles: 5101727023 heartbeat IPC: 0.3478 cumulative IPC: 0.3352 (Simulation time: 06 hr 58 min 45 sec)
[ERROR_CYCLE] Error added at CPU cycle 5126846353, interval 199, pending count: 1
[DRAM_CYCLE_ERROR] Cycle-based error applied! address=0x1debee000 additional_latency=173500 cycles
Heartbeat CPU 0 instructions: 1720000243 cycles: 5130421532 heartbeat IPC: 0.3485 cumulative IPC: 0.3353 (Simulation time: 07 hr 01 min 37 sec)
[ERROR_CYCLE] Error added at CPU cycle 5152609401, interval 200, pending count: 1
[DRAM_CYCLE_ERROR] Cycle-based error applied! address=0x9a8442360 additional_latency=173500 cycles
Heartbeat CPU 0 instructions: 1730000243 cycles: 5159149248 heartbeat IPC: 0.3481 cumulative IPC: 0.3353 (Simulation time: 07 hr 04 min 26 sec)
[ERROR_CYCLE] Error added at CPU cycle 5178372447, interval 201, pending count: 1
[DRAM_CYCLE_ERROR] Cycle-based error applied! address=0x14ed8a4898 additional_latency=173500 cycles
Heartbeat CPU 0 instructions: 1740000246 cycles: 5187833778 heartbeat IPC: 0.3486 cumulative IPC: 0.3354 (Simulation time: 07 hr 07 min 23 sec)
[ERROR_CYCLE] Error added at CPU cycle 5204135494, interval 202, pending count: 1
[DRAM_CYCLE_ERROR] Cycle-based error applied! address=0x3fd72490 additional_latency=173500 cycles
Heartbeat CPU 0 instructions: 1750000247 cycles: 5216535904 heartbeat IPC: 0.3484 cumulative IPC: 0.3355 (Simulation time: 07 hr 10 min 07 sec)
[ERROR_CYCLE] Error added at CPU cycle 5229898542, interval 203, pending count: 1
[DRAM_CYCLE_ERROR] Cycle-based error applied! address=0x1a46b14f00 additional_latency=173500 cycles
Heartbeat CPU 0 instructions: 1760000248 cycles: 5245301282 heartbeat IPC: 0.3476 cumulative IPC: 0.3355 (Simulation time: 07 hr 13 min 01 sec)
[ERROR_CYCLE] Error added at CPU cycle 5255661588, interval 204, pending count: 1
[DRAM_CYCLE_ERROR] Cycle-based error applied! address=0x1a3a660c88 additional_latency=173500 cycles
Heartbeat CPU 0 instructions: 1770000252 cycles: 5274011995 heartbeat IPC: 0.3483 cumulative IPC: 0.3356 (Simulation time: 07 hr 15 min 38 sec)
[ERROR_CYCLE] Error added at CPU cycle 5281424635, interval 205, pending count: 1
[DRAM_CYCLE_ERROR] Cycle-based error applied! address=0x128af28408 additional_latency=173500 cycles
Heartbeat CPU 0 instructions: 1780000252 cycles: 5302749767 heartbeat IPC: 0.348 cumulative IPC: 0.3357 (Simulation time: 07 hr 18 min 31 sec)
[ERROR_CYCLE] Error added at CPU cycle 5307187683, interval 206, pending count: 1
[DRAM_CYCLE_ERROR] Cycle-based error applied! address=0x19d8eeb890 additional_latency=173500 cycles
Heartbeat CPU 0 instructions: 1790000252 cycles: 5331542755 heartbeat IPC: 0.3473 cumulative IPC: 0.3357 (Simulation time: 07 hr 21 min 22 sec)
[ERROR_CYCLE] Error added at CPU cycle 5332950729, interval 207, pending count: 1
[DRAM_CYCLE_ERROR] Cycle-based error applied! address=0x8ddcdf480 additional_latency=173500 cycles
[ERROR_CYCLE] Error added at CPU cycle 5358713776, interval 208, pending count: 1
[DRAM_CYCLE_ERROR] Cycle-based error applied! address=0x1eccbce458 additional_latency=173500 cycles
Heartbeat CPU 0 instructions: 1800000252 cycles: 5360321424 heartbeat IPC: 0.3475 cumulative IPC: 0.3358 (Simulation time: 07 hr 24 min 09 sec)
[ERROR_CYCLE] Error added at CPU cycle 5384476824, interval 209, pending count: 1
[DRAM_CYCLE_ERROR] Cycle-based error applied! address=0x128b972508 additional_latency=173500 cycles
Heartbeat CPU 0 instructions: 1810000253 cycles: 5389050730 heartbeat IPC: 0.3481 cumulative IPC: 0.3359 (Simulation time: 07 hr 27 min 00 sec)
[ERROR_CYCLE] Error added at CPU cycle 5410239870, interval 210, pending count: 1
[DRAM_CYCLE_ERROR] Cycle-based error applied! address=0x1524c43980 additional_latency=173500 cycles
Heartbeat CPU 0 instructions: 1820000255 cycles: 5417761726 heartbeat IPC: 0.3483 cumulative IPC: 0.3359 (Simulation time: 07 hr 29 min 51 sec)
[ERROR_CYCLE] Error added at CPU cycle 5436002918, interval 211, pending count: 1
[DRAM_CYCLE_ERROR] Cycle-based error applied! address=0x2c89ad550 additional_latency=173500 cycles
Heartbeat CPU 0 instructions: 1830000257 cycles: 5446439052 heartbeat IPC: 0.3487 cumulative IPC: 0.336 (Simulation time: 07 hr 32 min 40 sec)
[ERROR_CYCLE] Error added at CPU cycle 5461765964, interval 212, pending count: 1
[DRAM_CYCLE_ERROR] Cycle-based error applied! address=0x17aa33f118 additional_latency=173500 cycles
Heartbeat CPU 0 instructions: 1840000259 cycles: 5475150581 heartbeat IPC: 0.3483 cumulative IPC: 0.3361 (Simulation time: 07 hr 35 min 07 sec)
[ERROR_CYCLE] Error added at CPU cycle 5487529011, interval 213, pending count: 1
[DRAM_CYCLE_ERROR] Cycle-based error applied! address=0x178fc48350 additional_latency=173500 cycles
Heartbeat CPU 0 instructions: 1850000259 cycles: 5503874641 heartbeat IPC: 0.3481 cumulative IPC: 0.3361 (Simulation time: 07 hr 37 min 29 sec)
[ERROR_CYCLE] Error added at CPU cycle 5513292059, interval 214, pending count: 1
[DRAM_CYCLE_ERROR] Cycle-based error applied! address=0xfa4f14a48 additional_latency=173500 cycles
Heartbeat CPU 0 instructions: 1860000262 cycles: 5532614164 heartbeat IPC: 0.348 cumulative IPC: 0.3362 (Simulation time: 07 hr 39 min 51 sec)
[ERROR_CYCLE] Error added at CPU cycle 5539055105, interval 215, pending count: 1
[DRAM_CYCLE_ERROR] Cycle-based error applied! address=0x108cc4e48 additional_latency=173500 cycles
Heartbeat CPU 0 instructions: 1870000263 cycles: 5561302922 heartbeat IPC: 0.3486 cumulative IPC: 0.3363 (Simulation time: 07 hr 42 min 47 sec)
[ERROR_CYCLE] Error added at CPU cycle 5564818152, interval 216, pending count: 1
[DRAM_CYCLE_ERROR] Cycle-based error applied! address=0x1510c7d8d8 additional_latency=173500 cycles
Heartbeat CPU 0 instructions: 1880000264 cycles: 5590007391 heartbeat IPC: 0.3484 cumulative IPC: 0.3363 (Simulation time: 07 hr 45 min 31 sec)
[ERROR_CYCLE] Error added at CPU cycle 5590581200, interval 217, pending count: 1
[DRAM_CYCLE_ERROR] Cycle-based error applied! address=0x19fb0697d8 additional_latency=173500 cycles
[ERROR_CYCLE] Error added at CPU cycle 5616344246, interval 218, pending count: 1
[DRAM_CYCLE_ERROR] Cycle-based error applied! address=0x1bfd7b0c80 additional_latency=173500 cycles
Heartbeat CPU 0 instructions: 1890000267 cycles: 5618695395 heartbeat IPC: 0.3486 cumulative IPC: 0.3364 (Simulation time: 07 hr 48 min 05 sec)
[ERROR_CYCLE] Error added at CPU cycle 5642107293, interval 219, pending count: 1
[DRAM_CYCLE_ERROR] Cycle-based error applied! address=0x9586fbad8 additional_latency=173500 cycles
Heartbeat CPU 0 instructions: 1900000271 cycles: 5647384547 heartbeat IPC: 0.3486 cumulative IPC: 0.3364 (Simulation time: 07 hr 50 min 58 sec)
[ERROR_CYCLE] Error added at CPU cycle 5667870341, interval 220, pending count: 1
[DRAM_CYCLE_ERROR] Cycle-based error applied! address=0x104f312d40 additional_latency=173500 cycles
Heartbeat CPU 0 instructions: 1910000274 cycles: 5676112225 heartbeat IPC: 0.3481 cumulative IPC: 0.3365 (Simulation time: 07 hr 53 min 52 sec)
[ERROR_CYCLE] Error added at CPU cycle 5693633387, interval 221, pending count: 1
[DRAM_CYCLE_ERROR] Cycle-based error applied! address=0x1b12b472c0 additional_latency=173500 cycles
Heartbeat CPU 0 instructions: 1920000278 cycles: 5704847454 heartbeat IPC: 0.348 cumulative IPC: 0.3366 (Simulation time: 07 hr 56 min 45 sec)
[ERROR_CYCLE] Error added at CPU cycle 5719396435, interval 222, pending count: 1
[DRAM_CYCLE_ERROR] Cycle-based error applied! address=0x1dccf34288 additional_latency=173500 cycles
Heartbeat CPU 0 instructions: 1930000280 cycles: 5733588484 heartbeat IPC: 0.3479 cumulative IPC: 0.3366 (Simulation time: 07 hr 59 min 17 sec)
[ERROR_CYCLE] Error added at CPU cycle 5745159481, interval 223, pending count: 1
[DRAM_CYCLE_ERROR] Cycle-based error applied! address=0x5cca89800 additional_latency=173500 cycles
Heartbeat CPU 0 instructions: 1940000280 cycles: 5762354306 heartbeat IPC: 0.3476 cumulative IPC: 0.3367 (Simulation time: 08 hr 02 min 12 sec)
[ERROR_CYCLE] Error added at CPU cycle 5770922528, interval 224, pending count: 1
[DRAM_CYCLE_ERROR] Cycle-based error applied! address=0x1f9768d748 additional_latency=173500 cycles
Heartbeat CPU 0 instructions: 1950000281 cycles: 5791067990 heartbeat IPC: 0.3483 cumulative IPC: 0.3367 (Simulation time: 08 hr 05 min 08 sec)
[ERROR_CYCLE] Error added at CPU cycle 5796685576, interval 225, pending count: 1
[DRAM_CYCLE_ERROR] Cycle-based error applied! address=0xb620c6048 additional_latency=173500 cycles
Heartbeat CPU 0 instructions: 1960000284 cycles: 5819788260 heartbeat IPC: 0.3482 cumulative IPC: 0.3368 (Simulation time: 08 hr 08 min 04 sec)
[ERROR_CYCLE] Error added at CPU cycle 5822448622, interval 226, pending count: 1
[DRAM_CYCLE_ERROR] Cycle-based error applied! address=0xaa9a59518 additional_latency=173500 cycles
[ERROR_CYCLE] Error added at CPU cycle 5848211669, interval 227, pending count: 1
[DRAM_CYCLE_ERROR] Cycle-based error applied! address=0x1170a396d8 additional_latency=173500 cycles
Heartbeat CPU 0 instructions: 1970000284 cycles: 5848504586 heartbeat IPC: 0.3482 cumulative IPC: 0.3368 (Simulation time: 08 hr 10 min 58 sec)
[ERROR_CYCLE] Error added at CPU cycle 5873974717, interval 228, pending count: 1
[DRAM_CYCLE_ERROR] Cycle-based error applied! address=0x69a18ea40 additional_latency=173500 cycles
Heartbeat CPU 0 instructions: 1980000285 cycles: 5877218739 heartbeat IPC: 0.3483 cumulative IPC: 0.3369 (Simulation time: 08 hr 13 min 49 sec)
[ERROR_CYCLE] Error added at CPU cycle 5899737763, interval 229, pending count: 1
[DRAM_CYCLE_ERROR] Cycle-based error applied! address=0x90f1b06d8 additional_latency=173500 cycles
Heartbeat CPU 0 instructions: 1990000285 cycles: 5905918798 heartbeat IPC: 0.3484 cumulative IPC: 0.337 (Simulation time: 08 hr 16 min 21 sec)
[ERROR_CYCLE] Error added at CPU cycle 5925500810, interval 230, pending count: 1
[DRAM_CYCLE_ERROR] Cycle-based error applied! address=0xfa497a780 additional_latency=173500 cycles

=== ERROR PAGE STATISTICS ===
Mode: CYCLE
Error Cycle Interval: 25763047 CPU cycles
Total Error Accesses: 230
==============================
Simulation finished CPU 0 instructions: 1999999981 cycles: 5934541766 cumulative IPC: 0.337 (Simulation time: 08 hr 19 min 16 sec)
Simulation complete CPU 0 instructions: 1999999981 cycles: 5934541766 cumulative IPC: 0.337 (Simulation time: 08 hr 19 min 16 sec)

ChampSim completed all CPUs

=== Simulation ===
CPU 0 runs test_traces/602.gcc_s-1850B.champsimtrace.xz

Region of Interest Statistics

CPU 0 cumulative IPC: 0.337 instructions: 1999999981 cycles: 5934541766
CPU 0 Branch Prediction Accuracy: 92.26% MPKI: 19.84 Average ROB Occupancy at Mispredict: 28.45
Branch type MPKI
BRANCH_DIRECT_JUMP: 0.0104
BRANCH_INDIRECT: 0
BRANCH_CONDITIONAL: 19.83
BRANCH_DIRECT_CALL: 8.5e-06
BRANCH_INDIRECT_CALL: 0
BRANCH_RETURN: 7e-06

cpu0->cpu0_STLB TOTAL        ACCESS:     748409 HIT:     106518 MISS:     641891 MSHR_MERGE:          0
cpu0->cpu0_STLB LOAD         ACCESS:     748409 HIT:     106518 MISS:     641891 MSHR_MERGE:          0
cpu0->cpu0_STLB RFO          ACCESS:          0 HIT:          0 MISS:          0 MSHR_MERGE:          0
cpu0->cpu0_STLB PREFETCH     ACCESS:          0 HIT:          0 MISS:          0 MSHR_MERGE:          0
cpu0->cpu0_STLB WRITE        ACCESS:          0 HIT:          0 MISS:          0 MSHR_MERGE:          0
cpu0->cpu0_STLB TRANSLATION  ACCESS:          0 HIT:          0 MISS:          0 MSHR_MERGE:          0
cpu0->cpu0_STLB PREFETCH REQUESTED:          0 ISSUED:          0 USEFUL:          0 USELESS:          0
cpu0->cpu0_STLB AVERAGE MISS LATENCY: 472.8 cycles
cpu0->cpu0_L2C TOTAL        ACCESS:   48249096 HIT:   12592236 MISS:   35656860 MSHR_MERGE:          0
cpu0->cpu0_L2C LOAD         ACCESS:   48104366 HIT:   12464386 MISS:   35639980 MSHR_MERGE:          0
cpu0->cpu0_L2C RFO          ACCESS:      16941 HIT:        110 MISS:      16831 MSHR_MERGE:          0
cpu0->cpu0_L2C PREFETCH     ACCESS:          0 HIT:          0 MISS:          0 MSHR_MERGE:          0
cpu0->cpu0_L2C WRITE        ACCESS:     127789 HIT:     127740 MISS:         49 MSHR_MERGE:          0
cpu0->cpu0_L2C TRANSLATION  ACCESS:          0 HIT:          0 MISS:          0 MSHR_MERGE:          0
cpu0->cpu0_L2C PREFETCH REQUESTED:          0 ISSUED:          0 USEFUL:          0 USELESS:          0
cpu0->cpu0_L2C AVERAGE MISS LATENCY: 106.2 cycles
cpu0->cpu0_L1I TOTAL        ACCESS:      78841 HIT:      78781 MISS:         60 MSHR_MERGE:          3
cpu0->cpu0_L1I LOAD         ACCESS:      78841 HIT:      78781 MISS:         60 MSHR_MERGE:          3
cpu0->cpu0_L1I RFO          ACCESS:          0 HIT:          0 MISS:          0 MSHR_MERGE:          0
cpu0->cpu0_L1I PREFETCH     ACCESS:          0 HIT:          0 MISS:          0 MSHR_MERGE:          0
cpu0->cpu0_L1I WRITE        ACCESS:          0 HIT:          0 MISS:          0 MSHR_MERGE:          0
cpu0->cpu0_L1I TRANSLATION  ACCESS:          0 HIT:          0 MISS:          0 MSHR_MERGE:          0
cpu0->cpu0_L1I PREFETCH REQUESTED:          0 ISSUED:          0 USEFUL:          0 USELESS:          0
cpu0->cpu0_L1I AVERAGE MISS LATENCY: 113.3 cycles
cpu0->cpu0_L1D TOTAL        ACCESS:  605677974 HIT:  522293858 MISS:   83384116 MSHR_MERGE:   35262866
cpu0->cpu0_L1D LOAD         ACCESS:  433055407 HIT:  349688734 MISS:   83366673 MSHR_MERGE:   35262364
cpu0->cpu0_L1D RFO          ACCESS:          0 HIT:          0 MISS:          0 MSHR_MERGE:          0
cpu0->cpu0_L1D PREFETCH     ACCESS:          0 HIT:          0 MISS:          0 MSHR_MERGE:          0
cpu0->cpu0_L1D WRITE        ACCESS:  172622567 HIT:  172605124 MISS:      17443 MSHR_MERGE:        502
cpu0->cpu0_L1D TRANSLATION  ACCESS:          0 HIT:          0 MISS:          0 MSHR_MERGE:          0
cpu0->cpu0_L1D PREFETCH REQUESTED:          0 ISSUED:          0 USEFUL:          0 USELESS:          0
cpu0->cpu0_L1D AVERAGE MISS LATENCY: 87.4 cycles
cpu0->cpu0_ITLB TOTAL        ACCESS:      74137 HIT:      74128 MISS:          9 MSHR_MERGE:          3
cpu0->cpu0_ITLB LOAD         ACCESS:      74137 HIT:      74128 MISS:          9 MSHR_MERGE:          3
cpu0->cpu0_ITLB RFO          ACCESS:          0 HIT:          0 MISS:          0 MSHR_MERGE:          0
cpu0->cpu0_ITLB PREFETCH     ACCESS:          0 HIT:          0 MISS:          0 MSHR_MERGE:          0
cpu0->cpu0_ITLB WRITE        ACCESS:          0 HIT:          0 MISS:          0 MSHR_MERGE:          0
cpu0->cpu0_ITLB TRANSLATION  ACCESS:          0 HIT:          0 MISS:          0 MSHR_MERGE:          0
cpu0->cpu0_ITLB PREFETCH REQUESTED:          0 ISSUED:          0 USEFUL:          0 USELESS:          0
cpu0->cpu0_ITLB AVERAGE MISS LATENCY: 787.8 cycles
cpu0->cpu0_DTLB TOTAL        ACCESS:  552104976 HIT:  550734637 MISS:    1370339 MSHR_MERGE:     621936
cpu0->cpu0_DTLB LOAD         ACCESS:  552104976 HIT:  550734637 MISS:    1370339 MSHR_MERGE:     621936
cpu0->cpu0_DTLB RFO          ACCESS:          0 HIT:          0 MISS:          0 MSHR_MERGE:          0
cpu0->cpu0_DTLB PREFETCH     ACCESS:          0 HIT:          0 MISS:          0 MSHR_MERGE:          0
cpu0->cpu0_DTLB WRITE        ACCESS:          0 HIT:          0 MISS:          0 MSHR_MERGE:          0
cpu0->cpu0_DTLB TRANSLATION  ACCESS:          0 HIT:          0 MISS:          0 MSHR_MERGE:          0
cpu0->cpu0_DTLB PREFETCH REQUESTED:          0 ISSUED:          0 USEFUL:          0 USELESS:          0
cpu0->cpu0_DTLB AVERAGE MISS LATENCY: 411.4 cycles
cpu0->LLC TOTAL        ACCESS:   35706992 HIT:     117423 MISS:   35589569 MSHR_MERGE:          0
cpu0->LLC LOAD         ACCESS:   35639980 HIT:      67526 MISS:   35572454 MSHR_MERGE:          0
cpu0->LLC RFO          ACCESS:      16831 HIT:         59 MISS:      16772 MSHR_MERGE:          0
cpu0->LLC PREFETCH     ACCESS:          0 HIT:          0 MISS:          0 MSHR_MERGE:          0
cpu0->LLC WRITE        ACCESS:      50181 HIT:      49838 MISS:        343 MSHR_MERGE:          0
cpu0->LLC TRANSLATION  ACCESS:          0 HIT:          0 MISS:          0 MSHR_MERGE:          0
cpu0->LLC PREFETCH REQUESTED:          0 ISSUED:          0 USEFUL:          0 USELESS:          0
cpu0->LLC AVERAGE MISS LATENCY: 90.33 cycles

DRAM Statistics

Channel 0 RQ ROW_BUFFER_HIT:       7363
  ROW_BUFFER_MISS:   18436041
  AVG DBUS CONGESTED CYCLE: 11.71
Channel 0 WQ ROW_BUFFER_HIT:       2883
  ROW_BUFFER_MISS:      22290
  FULL:          0
Channel 0 REFRESHES ISSUED:     494513

Channel 1 RQ ROW_BUFFER_HIT:       7908
  ROW_BUFFER_MISS:   18437009
  AVG DBUS CONGESTED CYCLE: 11.79
Channel 1 WQ ROW_BUFFER_HIT:       2882
  ROW_BUFFER_MISS:      22064
  FULL:          0
Channel 1 REFRESHES ISSUED:     494513
