
*** ChampSim Multicore Out-of-Order Simulator ***
Warmup Instructions: 0
Simulation Instructions: 9223372036854775807
Number of CPUs: 1
Page size: 1048576

Off-chip DRAM Size: 128 GiB Channels: 2 Width: 32-bit Data Rate: 4807 MT/s
[ERROR_PAGE_MANAGER] Error latency: 2459910500 
[ERROR_PAGE_MANAGER] Random seed: 54321 (fixed for preload reproducibility)
[ERROR_PAGE_MANAGER] Cycle-based error modeling enabled
[ERROR_PAGE_MANAGER] Errors per interval: 1
[ERROR_PAGE_MANAGER] Error cycle interval: 25763047 cycles

=== ERROR PAGE STATISTICS ===
Mode: CYCLE
Error Cycle Interval: 25763047 CPU cycles
Total Error Accesses: 0
==============================
Warmup finished CPU 0 instructions: 0 cycles: 1 cumulative IPC: 0 (Simulation time: 00 hr 00 min 00 sec)
Warmup complete CPU 0 instructions: 0 cycles: 1 cumulative IPC: 0 (Simulation time: 00 hr 00 min 00 sec)
Simulation CPU 0 panic: IPC 0 < 0.01
Simulation CPU 0 panic: IPC 9e-07 < 0.01
[ERROR_CYCLE] Error added at CPU cycle 25763048, interval 1, pending count: 1
[DRAM_CYCLE_ERROR] Cycle-based error applied! address=0x1959c06f20 additional_latency=2459910500 cycles
Simulation CPU 0 panic: IPC 3e-07 < 0.01
Simulation CPU 0 panic: IPC 0 < 0.01
Simulation CPU 0 panic: IPC 1e-07 < 0.01
[ERROR_CYCLE] Error added at CPU cycle 51526094, interval 2, pending count: 1
[DRAM_CYCLE_ERROR] Cycle-based error applied! address=0xf6125b720 additional_latency=2459910500 cycles
Simulation CPU 0 panic: IPC 0 < 0.01
Simulation CPU 0 panic: IPC 1.8e-06 < 0.01
[ERROR_CYCLE] Error added at CPU cycle 77289142, interval 3, pending count: 1
[DRAM_CYCLE_ERROR] Cycle-based error applied! address=0x1959c0a050 additional_latency=2459910500 cycles
Simulation CPU 0 panic: IPC 0 < 0.01
Simulation CPU 0 panic: IPC 0 < 0.01
Simulation CPU 0 panic: IPC 2.29e-05 < 0.01
[ERROR_CYCLE] Error added at CPU cycle 103052188, interval 4, pending count: 1
[DRAM_CYCLE_ERROR] Cycle-based error applied! address=0x8962944c8 additional_latency=2459910500 cycles
Simulation CPU 0 panic: IPC 0 < 0.01
Simulation CPU 0 panic: IPC 1.7e-06 < 0.01
[ERROR_CYCLE] Error added at CPU cycle 128815235, interval 5, pending count: 1
Simulation CPU 0 panic: IPC 1.81e-05 < 0.01
[DRAM_CYCLE_ERROR] Cycle-based error applied! address=0x16751bfe80 additional_latency=2459910500 cycles
Simulation CPU 0 panic: IPC 0 < 0.01
Simulation CPU 0 panic: IPC 4.33e-05 < 0.01
[ERROR_CYCLE] Error added at CPU cycle 154578283, interval 6, pending count: 1
[DRAM_CYCLE_ERROR] Cycle-based error applied! address=0x1959c0f410 additional_latency=2459910500 cycles
Simulation CPU 0 panic: IPC 1.23e-05 < 0.01
Simulation CPU 0 panic: IPC 1e-07 < 0.01
Simulation CPU 0 panic: IPC 1.64e-05 < 0.01
[ERROR_CYCLE] Error added at CPU cycle 180341329, interval 7, pending count: 1
[DRAM_CYCLE_ERROR] Cycle-based error applied! address=0x1959c115b0 additional_latency=2459910500 cycles
Simulation CPU 0 panic: IPC 0 < 0.01
Simulation CPU 0 panic: IPC 2e-07 < 0.01
[ERROR_CYCLE] Error added at CPU cycle 206104376, interval 8, pending count: 1
[DRAM_CYCLE_ERROR] Cycle-based error applied! address=0xd12207bc0 additional_latency=2459910500 cycles
Simulation CPU 0 panic: IPC 0 < 0.01
Simulation CPU 0 panic: IPC 8.1e-06 < 0.01
Simulation CPU 0 panic: IPC 1e-07 < 0.01
[ERROR_CYCLE] Error added at CPU cycle 231867424, interval 9, pending count: 1
[DRAM_CYCLE_ERROR] Cycle-based error applied! address=0xf7a7b2c78 additional_latency=2459910500 cycles
Simulation CPU 0 panic: IPC 0 < 0.01
Simulation CPU 0 panic: IPC 2.9e-06 < 0.01
[ERROR_CYCLE] Error added at CPU cycle 257630470, interval 10, pending count: 1
[DRAM_CYCLE_ERROR] Cycle-based error applied! address=0x1959c16208 additional_latency=2459910500 cycles
Simulation CPU 0 panic: IPC 3.8e-06 < 0.01
Simulation CPU 0 panic: IPC 0 < 0.01
Simulation CPU 0 panic: IPC 1e-07 < 0.01
[ERROR_CYCLE] Error added at CPU cycle 283393517, interval 11, pending count: 1
[DRAM_CYCLE_ERROR] Cycle-based error applied! address=0x1959c182b8 additional_latency=2459910500 cycles
Simulation CPU 0 panic: IPC 2.9e-06 < 0.01
Simulation CPU 0 panic: IPC 0 < 0.01
[ERROR_CYCLE] Error added at CPU cycle 309156565, interval 12, pending count: 1
Simulation CPU 0 panic: IPC 1e-07 < 0.01
[DRAM_CYCLE_ERROR] Cycle-based error applied! address=0x17b496d8b8 additional_latency=2459910500 cycles
Simulation CPU 0 panic: IPC 0 < 0.01
Simulation CPU 0 panic: IPC 2.9e-06 < 0.01
[ERROR_CYCLE] Error added at CPU cycle 334919611, interval 13, pending count: 1
[DRAM_CYCLE_ERROR] Cycle-based error applied! address=0x1959c1b238 additional_latency=2459910500 cycles
Simulation CPU 0 panic: IPC 3e-06 < 0.01
Simulation CPU 0 panic: IPC 1e-07 < 0.01
Simulation CPU 0 panic: IPC 9.7e-06 < 0.01
[ERROR_CYCLE] Error added at CPU cycle 360682659, interval 14, pending count: 1
[DRAM_CYCLE_ERROR] Cycle-based error applied! address=0x1959c1f240 additional_latency=2459910500 cycles
Simulation CPU 0 panic: IPC 0 < 0.01
Simulation CPU 0 panic: IPC 1e-07 < 0.01
[ERROR_CYCLE] Error added at CPU cycle 386445705, interval 15, pending count: 1
[DRAM_CYCLE_ERROR] Cycle-based error applied! address=0x309f384b8 additional_latency=2459910500 cycles
Simulation CPU 0 panic: IPC 0 < 0.01
Simulation CPU 0 panic: IPC 2.9e-06 < 0.01
Simulation CPU 0 panic: IPC 3e-06 < 0.01
[ERROR_CYCLE] Error added at CPU cycle 412208752, interval 16, pending count: 1
[DRAM_CYCLE_ERROR] Cycle-based error applied! address=0x1e34e6dbc8 additional_latency=2459910500 cycles
Simulation CPU 0 panic: IPC 0 < 0.01
Simulation CPU 0 panic: IPC 2.34e-05 < 0.01
[ERROR_CYCLE] Error added at CPU cycle 437971800, interval 17, pending count: 1
[DRAM_CYCLE_ERROR] Cycle-based error applied! address=0x1959c264e8 additional_latency=2459910500 cycles
Simulation CPU 0 panic: IPC 1.52e-05 < 0.01
Simulation CPU 0 panic: IPC 0 < 0.01
Simulation CPU 0 panic: IPC 2.35e-05 < 0.01
[ERROR_CYCLE] Error added at CPU cycle 463734846, interval 18, pending count: 1
[DRAM_CYCLE_ERROR] Cycle-based error applied! address=0x1959c29440 additional_latency=2459910500 cycles
Simulation CPU 0 panic: IPC 8.2e-06 < 0.01
Simulation CPU 0 panic: IPC 0 < 0.01
[ERROR_CYCLE] Error added at CPU cycle 489497893, interval 19, pending count: 1
Simulation CPU 0 panic: IPC 1.95e-05 < 0.01
[DRAM_CYCLE_ERROR] Cycle-based error applied! address=0xdb2a98dc8 additional_latency=2459910500 cycles
Simulation CPU 0 panic: IPC 0 < 0.01
Simulation CPU 0 panic: IPC 0.0001239 < 0.01
[ERROR_CYCLE] Error added at CPU cycle 515260941, interval 20, pending count: 1
[DRAM_CYCLE_ERROR] Cycle-based error applied! address=0x1c7bf15680 additional_latency=2459910500 cycles
Simulation CPU 0 panic: IPC 0.0002049 < 0.01
Simulation CPU 0 panic: IPC 8.1e-05 < 0.01
Simulation CPU 0 panic: IPC 7.53e-05 < 0.01
[ERROR_CYCLE] Error added at CPU cycle 541023987, interval 21, pending count: 1
[DRAM_CYCLE_ERROR] Cycle-based error applied! address=0x1959c31228 additional_latency=2459910500 cycles
Simulation CPU 0 panic: IPC 0 < 0.01
Simulation CPU 0 panic: IPC 6.57e-05 < 0.01
[ERROR_CYCLE] Error added at CPU cycle 566787034, interval 22, pending count: 1
[DRAM_CYCLE_ERROR] Cycle-based error applied! address=0x1aa46b2770 additional_latency=2459910500 cycles
Simulation CPU 0 panic: IPC 0.000108 < 0.01
Simulation CPU 0 panic: IPC 3.17e-05 < 0.01
Simulation CPU 0 panic: IPC 0.0002173 < 0.01
[ERROR_CYCLE] Error added at CPU cycle 592550082, interval 23, pending count: 1
[DRAM_CYCLE_ERROR] Cycle-based error applied! address=0x1ae02a56f8 additional_latency=2459910500 cycles
Simulation CPU 0 panic: IPC 0 < 0.01
Simulation CPU 0 panic: IPC 0.0012567 < 0.01
[ERROR_CYCLE] Error added at CPU cycle 618313128, interval 24, pending count: 1
[DRAM_CYCLE_ERROR] Cycle-based error applied! address=0x1959c381a0 additional_latency=2459910500 cycles
Simulation CPU 0 panic: IPC 0.0001685 < 0.01
Simulation CPU 0 panic: IPC 0 < 0.01
Simulation CPU 0 panic: IPC 3.27e-05 < 0.01
[ERROR_CYCLE] Error added at CPU cycle 644076176, interval 25, pending count: 1
[DRAM_CYCLE_ERROR] Cycle-based error applied! address=0x1959c3a320 additional_latency=2459910500 cycles
Simulation CPU 0 panic: IPC 6.7e-06 < 0.01
Simulation CPU 0 panic: IPC 0 < 0.01
[ERROR_CYCLE] Error added at CPU cycle 669839223, interval 26, pending count: 1
Simulation CPU 0 panic: IPC 3.1e-06 < 0.01
[DRAM_CYCLE_ERROR] Cycle-based error applied! address=0xc17406db8 additional_latency=2459910500 cycles
Simulation CPU 0 panic: IPC 0 < 0.01
Simulation CPU 0 panic: IPC 2.41e-05 < 0.01
[ERROR_CYCLE] Error added at CPU cycle 695602269, interval 27, pending count: 1
[DRAM_CYCLE_ERROR] Cycle-based error applied! address=0x622ab4c48 additional_latency=2459910500 cycles
Simulation CPU 0 panic: IPC 7.14e-05 < 0.01
Simulation CPU 0 panic: IPC 9.1e-06 < 0.01
Simulation CPU 0 panic: IPC 1.64e-05 < 0.01
[ERROR_CYCLE] Error added at CPU cycle 721365317, interval 28, pending count: 1
[DRAM_CYCLE_ERROR] Cycle-based error applied! address=0x1959c407a0 additional_latency=2459910500 cycles
Simulation CPU 0 panic: IPC 0 < 0.01
Simulation CPU 0 panic: IPC 2.7e-06 < 0.01
[ERROR_CYCLE] Error added at CPU cycle 747128363, interval 29, pending count: 1
Simulation CPU 0 panic: IPC 0.0001107 < 0.01
[DRAM_CYCLE_ERROR] Cycle-based error applied! address=0x1959c42558 additional_latency=2459910500 cycles
Simulation CPU 0 panic: IPC 0 < 0.01
Simulation CPU 0 panic: IPC 7.06e-05 < 0.01
[ERROR_CYCLE] Error added at CPU cycle 772891410, interval 30, pending count: 1
[DRAM_CYCLE_ERROR] Cycle-based error applied! address=0x19258d8048 additional_latency=2459910500 cycles
Simulation CPU 0 panic: IPC 0 < 0.01
Simulation CPU 0 panic: IPC 5.98e-05 < 0.01
[ERROR_CYCLE] Error added at CPU cycle 798654458, interval 31, pending count: 1
[DRAM_CYCLE_ERROR] Cycle-based error applied! address=0x1959c45330 additional_latency=2459910500 cycles
Simulation CPU 0 panic: IPC 3e-06 < 0.01
Simulation CPU 0 panic: IPC 0 < 0.01
Simulation CPU 0 panic: IPC 3e-06 < 0.01
[ERROR_CYCLE] Error added at CPU cycle 824417504, interval 32, pending count: 1
[DRAM_CYCLE_ERROR] Cycle-based error applied! address=0x1959c47250 additional_latency=2459910500 cycles
Simulation CPU 0 panic: IPC 1e-07 < 0.01
Simulation CPU 0 panic: IPC 0 < 0.01
Simulation CPU 0 panic: IPC 3e-06 < 0.01
[ERROR_CYCLE] Error added at CPU cycle 850180551, interval 33, pending count: 1
[DRAM_CYCLE_ERROR] Cycle-based error applied! address=0xba353fb18 additional_latency=2459910500 cycles
Simulation CPU 0 panic: IPC 0 < 0.01
Simulation CPU 0 panic: IPC 6e-06 < 0.01
[ERROR_CYCLE] Error added at CPU cycle 875943599, interval 34, pending count: 1
[DRAM_CYCLE_ERROR] Cycle-based error applied! address=0xce5d16068 additional_latency=2459910500 cycles
Simulation CPU 0 panic: IPC 0 < 0.01
Simulation CPU 0 panic: IPC 2.9e-06 < 0.01
Simulation CPU 0 panic: IPC 1e-07 < 0.01
[ERROR_CYCLE] Error added at CPU cycle 901706645, interval 35, pending count: 1
[DRAM_CYCLE_ERROR] Cycle-based error applied! address=0x1959c4d370 additional_latency=2459910500 cycles
Simulation CPU 0 panic: IPC 0 < 0.01
Simulation CPU 0 panic: IPC 2.9e-06 < 0.01
[ERROR_CYCLE] Error added at CPU cycle 927469692, interval 36, pending count: 1
Simulation CPU 0 panic: IPC 1e-07 < 0.01
[DRAM_CYCLE_ERROR] Cycle-based error applied! address=0x1959c4f428 additional_latency=2459910500 cycles
Simulation CPU 0 panic: IPC 0 < 0.01
Simulation CPU 0 panic: IPC 2.02e-05 < 0.01
[ERROR_CYCLE] Error added at CPU cycle 953232740, interval 37, pending count: 1
[DRAM_CYCLE_ERROR] Cycle-based error applied! address=0x103508628 additional_latency=2459910500 cycles
Simulation CPU 0 panic: IPC 0 < 0.01
Simulation CPU 0 panic: IPC 7.17e-05 < 0.01
[ERROR_CYCLE] Error added at CPU cycle 978995786, interval 38, pending count: 1
Simulation CPU 0 panic: IPC 7.05e-05 < 0.01
[DRAM_CYCLE_ERROR] Cycle-based error applied! address=0x76b2c5051 additional_latency=2459910500 cycles
Simulation CPU 0 panic: IPC 0 < 0.01
Simulation CPU 0 panic: IPC 2.14e-05 < 0.01
[ERROR_CYCLE] Error added at CPU cycle 1004758834, interval 39, pending count: 1
[DRAM_CYCLE_ERROR] Cycle-based error applied! address=0x1959c563a0 additional_latency=2459910500 cycles
Simulation CPU 0 panic: IPC 1e-07 < 0.01
Simulation CPU 0 panic: IPC 0 < 0.01
Simulation CPU 0 panic: IPC 5.9e-06 < 0.01
[ERROR_CYCLE] Error added at CPU cycle 1030521880, interval 40, pending count: 1
[DRAM_CYCLE_ERROR] Cycle-based error applied! address=0x12e2356bb8 additional_latency=2459910500 cycles
Simulation CPU 0 panic: IPC 0 < 0.01
Simulation CPU 0 panic: IPC 1.51e-05 < 0.01
[ERROR_CYCLE] Error added at CPU cycle 1056284927, interval 41, pending count: 1
[DRAM_CYCLE_ERROR] Cycle-based error applied! address=0xdb80d8d8 additional_latency=2459910500 cycles
Simulation CPU 0 panic: IPC 0 < 0.01
Simulation CPU 0 panic: IPC 2.12e-05 < 0.01
Simulation CPU 0 panic: IPC 0.0001447 < 0.01
[ERROR_CYCLE] Error added at CPU cycle 1082047975, interval 42, pending count: 1
[DRAM_CYCLE_ERROR] Cycle-based error applied! address=0x1959c5b0f8 additional_latency=2459910500 cycles
Simulation CPU 0 panic: IPC 0 < 0.01
Simulation CPU 0 panic: IPC 7.09e-05 < 0.01
[ERROR_CYCLE] Error added at CPU cycle 1107811021, interval 43, pending count: 1
Simulation CPU 0 panic: IPC 7e-06 < 0.01
[DRAM_CYCLE_ERROR] Cycle-based error applied! address=0x1959c5e480 additional_latency=2459910500 cycles
Simulation CPU 0 panic: IPC 0 < 0.01
Simulation CPU 0 panic: IPC 2.22e-05 < 0.01
[ERROR_CYCLE] Error added at CPU cycle 1133574068, interval 44, pending count: 1
[DRAM_CYCLE_ERROR] Cycle-based error applied! address=0x166b3dec88 additional_latency=2459910500 cycles
Simulation CPU 0 panic: IPC 0 < 0.01
Simulation CPU 0 panic: IPC 1.35e-05 < 0.01
[ERROR_CYCLE] Error added at CPU cycle 1159337116, interval 45, pending count: 1
Simulation CPU 0 panic: IPC 5.8e-06 < 0.01
[DRAM_CYCLE_ERROR] Cycle-based error applied! address=0x1ab84b70c0 additional_latency=2459910500 cycles
Simulation CPU 0 panic: IPC 0 < 0.01
Simulation CPU 0 panic: IPC 4e-07 < 0.01
[ERROR_CYCLE] Error added at CPU cycle 1185100162, interval 46, pending count: 1
[DRAM_CYCLE_ERROR] Cycle-based error applied! address=0x1959c64510 additional_latency=2459910500 cycles
Simulation CPU 0 panic: IPC 1.09e-05 < 0.01
Simulation CPU 0 panic: IPC 0 < 0.01
Simulation CPU 0 panic: IPC 5.8e-06 < 0.01
[ERROR_CYCLE] Error added at CPU cycle 1210863209, interval 47, pending count: 1
[DRAM_CYCLE_ERROR] Cycle-based error applied! address=0x1959c66588 additional_latency=2459910500 cycles
Simulation CPU 0 panic: IPC 4e-07 < 0.01
Simulation CPU 0 panic: IPC 8e-07 < 0.01
[ERROR_CYCLE] Error added at CPU cycle 1236626257, interval 48, pending count: 1
[DRAM_CYCLE_ERROR] Cycle-based error applied! address=0x1656ad89b0 additional_latency=2459910500 cycles
Simulation CPU 0 panic: IPC 0 < 0.01
Simulation CPU 0 panic: IPC 5.1e-06 < 0.01
Simulation CPU 0 panic: IPC 2.8e-05 < 0.01
[ERROR_CYCLE] Error added at CPU cycle 1262389303, interval 49, pending count: 1
[DRAM_CYCLE_ERROR] Cycle-based error applied! address=0xfbca02940 additional_latency=2459910500 cycles
Simulation CPU 0 panic: IPC 0 < 0.01
Simulation CPU 0 panic: IPC 2.47e-05 < 0.01
[ERROR_CYCLE] Error added at CPU cycle 1288152351, interval 50, pending count: 1
Simulation CPU 0 panic: IPC 5.4e-06 < 0.01
[DRAM_CYCLE_ERROR] Cycle-based error applied! address=0x1959c6b4a8 additional_latency=2459910500 cycles
Simulation CPU 0 panic: IPC 0 < 0.01
Simulation CPU 0 panic: IPC 1.71e-05 < 0.01
[ERROR_CYCLE] Error added at CPU cycle 1313915398, interval 51, pending count: 1
[DRAM_CYCLE_ERROR] Cycle-based error applied! address=0x1b1a7eed10 additional_latency=2459910500 cycles
Simulation CPU 0 panic: IPC 0 < 0.01
Simulation CPU 0 panic: IPC 5.1e-06 < 0.01
[ERROR_CYCLE] Error added at CPU cycle 1339678444, interval 52, pending count: 1
Simulation CPU 0 panic: IPC 7.4e-06 < 0.01
[DRAM_CYCLE_ERROR] Cycle-based error applied! address=0x17d467e6c0 additional_latency=2459910500 cycles
Simulation CPU 0 panic: IPC 0 < 0.01
Simulation CPU 0 panic: IPC 7.8e-06 < 0.01
[ERROR_CYCLE] Error added at CPU cycle 1365441492, interval 53, pending count: 1
[DRAM_CYCLE_ERROR] Cycle-based error applied! address=0x1959c70490 additional_latency=2459910500 cycles
Simulation CPU 0 panic: IPC 8.6e-06 < 0.01
Simulation CPU 0 panic: IPC 0 < 0.01
Simulation CPU 0 panic: IPC 5.5e-06 < 0.01
[ERROR_CYCLE] Error added at CPU cycle 1391204538, interval 54, pending count: 1
[DRAM_CYCLE_ERROR] Cycle-based error applied! address=0x1959c724b8 additional_latency=2459910500 cycles
Simulation CPU 0 panic: IPC 8.5e-06 < 0.01
Simulation CPU 0 panic: IPC 1.48e-05 < 0.01
[ERROR_CYCLE] Error added at CPU cycle 1416967585, interval 55, pending count: 1
[DRAM_CYCLE_ERROR] Cycle-based error applied! address=0x1f20fa7b80 additional_latency=2459910500 cycles
Simulation CPU 0 panic: IPC 0 < 0.01
Simulation CPU 0 panic: IPC 1.25e-05 < 0.01
Simulation CPU 0 panic: IPC 2.58e-05 < 0.01
[ERROR_CYCLE] Error added at CPU cycle 1442730633, interval 56, pending count: 1
[DRAM_CYCLE_ERROR] Cycle-based error applied! address=0x214ab3200 additional_latency=2459910500 cycles
Simulation CPU 0 panic: IPC 0 < 0.01
Simulation CPU 0 panic: IPC 2e-05 < 0.01
[ERROR_CYCLE] Error added at CPU cycle 1468493679, interval 57, pending count: 1
Simulation CPU 0 panic: IPC 1.17e-05 < 0.01
[DRAM_CYCLE_ERROR] Cycle-based error applied! address=0x1959c77218 additional_latency=2459910500 cycles
Simulation CPU 0 panic: IPC 0 < 0.01
Simulation CPU 0 panic: IPC 3.16e-05 < 0.01
[ERROR_CYCLE] Error added at CPU cycle 1494256726, interval 58, pending count: 1
[DRAM_CYCLE_ERROR] Cycle-based error applied! address=0x1959c794f0 additional_latency=2459910500 cycles
Simulation CPU 0 panic: IPC 5.5e-06 < 0.01
Simulation CPU 0 panic: IPC 0 < 0.01
Simulation CPU 0 panic: IPC 0.0006164 < 0.01
[ERROR_CYCLE] Error added at CPU cycle 1520019774, interval 59, pending count: 1
[DRAM_CYCLE_ERROR] Cycle-based error applied! address=0x1d5f140780 additional_latency=2459910500 cycles
Simulation CPU 0 panic: IPC 1e-07 < 0.01
Simulation CPU 0 panic: IPC 0.0001387 < 0.01
[ERROR_CYCLE] Error added at CPU cycle 1545782820, interval 60, pending count: 1
[DRAM_CYCLE_ERROR] Cycle-based error applied! address=0x1959c7c768 additional_latency=2459910500 cycles
Simulation CPU 0 panic: IPC 0.0001375 < 0.01
Simulation CPU 0 panic: IPC 0 < 0.01
Simulation CPU 0 panic: IPC 0.0004402 < 0.01
[ERROR_CYCLE] Error added at CPU cycle 1571545867, interval 61, pending count: 1
[DRAM_CYCLE_ERROR] Cycle-based error applied! address=0x1959c7f4c0 additional_latency=2459910500 cycles
Simulation CPU 0 panic: IPC 0.0001006 < 0.01
Simulation CPU 0 panic: IPC 0.0001627 < 0.01
[ERROR_CYCLE] Error added at CPU cycle 1597308915, interval 62, pending count: 1
[DRAM_CYCLE_ERROR] Cycle-based error applied! address=0x7c2140a80 additional_latency=2459910500 cycles
Simulation CPU 0 panic: IPC 9.81e-05 < 0.01
Simulation CPU 0 panic: IPC 0.0010646 < 0.01
Simulation CPU 0 panic: IPC 5.4e-06 < 0.01
[ERROR_CYCLE] Error added at CPU cycle 1623071961, interval 63, pending count: 1
[DRAM_CYCLE_ERROR] Cycle-based error applied! address=0x1b7f0a5180 additional_latency=2459910500 cycles
Simulation CPU 0 panic: IPC 0 < 0.01
Simulation CPU 0 panic: IPC 0.0001581 < 0.01
[ERROR_CYCLE] Error added at CPU cycle 1648835009, interval 64, pending count: 1
Simulation CPU 0 panic: IPC 5.4e-06 < 0.01
[DRAM_CYCLE_ERROR] Cycle-based error applied! address=0x1959c86790 additional_latency=2459910500 cycles
Simulation CPU 0 panic: IPC 0 < 0.01
Simulation CPU 0 panic: IPC 0.0001589 < 0.01
[ERROR_CYCLE] Error added at CPU cycle 1674598055, interval 65, pending count: 1
[DRAM_CYCLE_ERROR] Cycle-based error applied! address=0x1959c88650 additional_latency=2459910500 cycles
Simulation CPU 0 panic: IPC 5.4e-06 < 0.01
Simulation CPU 0 panic: IPC 0 < 0.01
Simulation CPU 0 panic: IPC 0.0003267 < 0.01
[ERROR_CYCLE] Error added at CPU cycle 1700361102, interval 66, pending count: 1
[DRAM_CYCLE_ERROR] Cycle-based error applied! address=0x1b97d05c0 additional_latency=2459910500 cycles
Simulation CPU 0 panic: IPC 0 < 0.01
Simulation CPU 0 panic: IPC 0.0001719 < 0.01
[ERROR_CYCLE] Error added at CPU cycle 1726124150, interval 67, pending count: 1
Simulation CPU 0 panic: IPC 0.0001609 < 0.01
[DRAM_CYCLE_ERROR] Cycle-based error applied! address=0x736092e50 additional_latency=2459910500 cycles
Simulation CPU 0 panic: IPC 0 < 0.01
Simulation CPU 0 panic: IPC 0.0003321 < 0.01
[ERROR_CYCLE] Error added at CPU cycle 1751887196, interval 68, pending count: 1
[DRAM_CYCLE_ERROR] Cycle-based error applied! address=0x1959c8d498 additional_latency=2459910500 cycles
Simulation CPU 0 panic: IPC 0 < 0.01
Simulation CPU 0 panic: IPC 5.4e-06 < 0.01
[ERROR_CYCLE] Error added at CPU cycle 1777650243, interval 69, pending count: 1
[DRAM_CYCLE_ERROR] Cycle-based error applied! address=0x1df7b5460 additional_latency=2459910500 cycles
Simulation CPU 0 panic: IPC 0 < 0.01
Simulation CPU 0 panic: IPC 0.0003799 < 0.01
Simulation CPU 0 panic: IPC 9e-06 < 0.01
[ERROR_CYCLE] Error added at CPU cycle 1803413291, interval 70, pending count: 1
[DRAM_CYCLE_ERROR] Cycle-based error applied! address=0xbf2180708 additional_latency=2459910500 cycles
Simulation CPU 0 panic: IPC 0 < 0.01
Simulation CPU 0 panic: IPC 1e-07 < 0.01
[ERROR_CYCLE] Error added at CPU cycle 1829176337, interval 71, pending count: 1
Simulation CPU 0 panic: IPC 0.0001136 < 0.01
[DRAM_CYCLE_ERROR] Cycle-based error applied! address=0x1959c94710 additional_latency=2459910500 cycles
Simulation CPU 0 panic: IPC 0 < 0.01
Simulation CPU 0 panic: IPC 1.6e-05 < 0.01
[ERROR_CYCLE] Error added at CPU cycle 1854939384, interval 72, pending count: 1
[DRAM_CYCLE_ERROR] Cycle-based error applied! address=0x1959c963f8 additional_latency=2459910500 cycles
Simulation CPU 0 panic: IPC 2.22e-05 < 0.01
Simulation CPU 0 panic: IPC 0 < 0.01
Simulation CPU 0 panic: IPC 1.21e-05 < 0.01
[ERROR_CYCLE] Error added at CPU cycle 1880702432, interval 73, pending count: 1
[DRAM_CYCLE_ERROR] Cycle-based error applied! address=0x131751caa8 additional_latency=2459910500 cycles
Simulation CPU 0 panic: IPC 0 < 0.01
Simulation CPU 0 panic: IPC 8.9e-06 < 0.01
[ERROR_CYCLE] Error added at CPU cycle 1906465478, interval 74, pending count: 1
Simulation CPU 0 panic: IPC 1e-07 < 0.01
[DRAM_CYCLE_ERROR] Cycle-based error applied! address=0xa4ed58648 additional_latency=2459910500 cycles
Simulation CPU 0 panic: IPC 0 < 0.01
Simulation CPU 0 panic: IPC 0.0001899 < 0.01
[ERROR_CYCLE] Error added at CPU cycle 1932228526, interval 75, pending count: 1
[DRAM_CYCLE_ERROR] Cycle-based error applied! address=0x1959c9b340 additional_latency=2459910500 cycles
Simulation CPU 0 panic: IPC 0 < 0.01
Simulation CPU 0 panic: IPC 0.0001843 < 0.01
[ERROR_CYCLE] Error added at CPU cycle 1957991572, interval 76, pending count: 1
Simulation CPU 0 panic: IPC 3.75e-05 < 0.01
[DRAM_CYCLE_ERROR] Cycle-based error applied! address=0x1959c9d5a0 additional_latency=2459910500 cycles
Simulation CPU 0 panic: IPC 0 < 0.01
Simulation CPU 0 panic: IPC 0.0003367 < 0.01
[ERROR_CYCLE] Error added at CPU cycle 1983754619, interval 77, pending count: 1
[DRAM_CYCLE_ERROR] Cycle-based error applied! address=0x1c4a58a891 additional_latency=2459910500 cycles
Simulation CPU 0 panic: IPC 0 < 0.01
Simulation CPU 0 panic: IPC 6.43e-05 < 0.01
[ERROR_CYCLE] Error added at CPU cycle 2009517667, interval 78, pending count: 1
[DRAM_CYCLE_ERROR] Cycle-based error applied! address=0x1959ca05e8 additional_latency=2459910500 cycles
Simulation CPU 0 panic: IPC 0.0002663 < 0.01
Simulation CPU 0 panic: IPC 0 < 0.01
Simulation CPU 0 panic: IPC 3.92e-05 < 0.01
[ERROR_CYCLE] Error added at CPU cycle 2035280713, interval 79, pending count: 1
[DRAM_CYCLE_ERROR] Cycle-based error applied! address=0x1959ca23f0 additional_latency=2459910500 cycles
Simulation CPU 0 panic: IPC 4.55e-05 < 0.01
Simulation CPU 0 panic: IPC 0 < 0.01
Simulation CPU 0 panic: IPC 2.08e-05 < 0.01
[ERROR_CYCLE] Error added at CPU cycle 2061043760, interval 80, pending count: 1
[DRAM_CYCLE_ERROR] Cycle-based error applied! address=0x218aa94d0 additional_latency=2459910500 cycles
Simulation CPU 0 panic: IPC 0 < 0.01
Simulation CPU 0 panic: IPC 5.2e-06 < 0.01
[ERROR_CYCLE] Error added at CPU cycle 2086806808, interval 81, pending count: 1
Simulation CPU 0 panic: IPC 6.65e-05 < 0.01
[DRAM_CYCLE_ERROR] Cycle-based error applied! address=0x17d7516f98 additional_latency=2459910500 cycles
Simulation CPU 0 panic: IPC 0 < 0.01
Simulation CPU 0 panic: IPC 0.0003457 < 0.01
[ERROR_CYCLE] Error added at CPU cycle 2112569854, interval 82, pending count: 1
[DRAM_CYCLE_ERROR] Cycle-based error applied! address=0x1959ca7760 additional_latency=2459910500 cycles
Simulation CPU 0 panic: IPC 8.11e-05 < 0.01
Simulation CPU 0 panic: IPC 0.0002966 < 0.01
[ERROR_CYCLE] Error added at CPU cycle 2138332901, interval 83, pending count: 1
Simulation CPU 0 panic: IPC 0.0004196 < 0.01
[DRAM_CYCLE_ERROR] Cycle-based error applied! address=0x1959caa270 additional_latency=2459910500 cycles
Simulation CPU 0 panic: IPC 0 < 0.01
Simulation CPU 0 panic: IPC 0.0001879 < 0.01
[ERROR_CYCLE] Error added at CPU cycle 2164095949, interval 84, pending count: 1
[DRAM_CYCLE_ERROR] Cycle-based error applied! address=0x9374a93c1 additional_latency=2459910500 cycles
Simulation CPU 0 panic: IPC 0 < 0.01
Simulation CPU 0 panic: IPC 0.0001448 < 0.01
[ERROR_CYCLE] Error added at CPU cycle 2189858995, interval 85, pending count: 1
Simulation CPU 0 panic: IPC 9.46e-05 < 0.01
[DRAM_CYCLE_ERROR] Cycle-based error applied! address=0x14b3ea8048 additional_latency=2459910500 cycles
Simulation CPU 0 panic: IPC 0 < 0.01
Simulation CPU 0 panic: IPC 0.0004602 < 0.01
[ERROR_CYCLE] Error added at CPU cycle 2215622043, interval 86, pending count: 1
[DRAM_CYCLE_ERROR] Cycle-based error applied! address=0x1959caf1f8 additional_latency=2459910500 cycles
Simulation CPU 0 panic: IPC 3.92e-05 < 0.01
Simulation CPU 0 panic: IPC 0 < 0.01
Simulation CPU 0 panic: IPC 3.95e-05 < 0.01
[ERROR_CYCLE] Error added at CPU cycle 2241385090, interval 87, pending count: 1
[DRAM_CYCLE_ERROR] Cycle-based error applied! address=0x34170dd8 additional_latency=2459910500 cycles
Simulation CPU 0 panic: IPC 0 < 0.01
Simulation CPU 0 panic: IPC 3.73e-05 < 0.01
[ERROR_CYCLE] Error added at CPU cycle 2267148136, interval 88, pending count: 1
[DRAM_CYCLE_ERROR] Cycle-based error applied! address=0x1d80787071 additional_latency=2459910500 cycles
Simulation CPU 0 panic: IPC 0.0001282 < 0.01
Simulation CPU 0 panic: IPC 5.09e-05 < 0.01
Simulation CPU 0 panic: IPC 0.0002329 < 0.01
[ERROR_CYCLE] Error added at CPU cycle 2292911184, interval 89, pending count: 1
[DRAM_CYCLE_ERROR] Cycle-based error applied! address=0x1959cb5400 additional_latency=2459910500 cycles
Simulation CPU 0 panic: IPC 0 < 0.01
Simulation CPU 0 panic: IPC 9.46e-05 < 0.01
[ERROR_CYCLE] Error added at CPU cycle 2318674230, interval 90, pending count: 1
Simulation CPU 0 panic: IPC 0.0006733 < 0.01
[DRAM_CYCLE_ERROR] Cycle-based error applied! address=0x1959cb7700 additional_latency=2459910500 cycles
Simulation CPU 0 panic: IPC 0 < 0.01
Simulation CPU 0 panic: IPC 0.0018274 < 0.01
[ERROR_CYCLE] Error added at CPU cycle 2344437277, interval 91, pending count: 1
[DRAM_CYCLE_ERROR] Cycle-based error applied! address=0xb35170fc1 additional_latency=2459910500 cycles
Simulation CPU 0 panic: IPC 0 < 0.01
Simulation CPU 0 panic: IPC 0.000105 < 0.01
Simulation CPU 0 panic: IPC 0.0003876 < 0.01
[ERROR_CYCLE] Error added at CPU cycle 2370200325, interval 92, pending count: 1
[DRAM_CYCLE_ERROR] Cycle-based error applied! address=0x500562bd0 additional_latency=2459910500 cycles
Simulation CPU 0 panic: IPC 0 < 0.01
Simulation CPU 0 panic: IPC 0.0009874 < 0.01
[ERROR_CYCLE] Error added at CPU cycle 2395963371, interval 93, pending count: 1
[DRAM_CYCLE_ERROR] Cycle-based error applied! address=0x1959cbd5e0 additional_latency=2459910500 cycles
Simulation CPU 0 panic: IPC 0.0012842 < 0.01
Simulation CPU 0 panic: IPC 0 < 0.01
Simulation CPU 0 panic: IPC 0.0015389 < 0.01
[ERROR_CYCLE] Error added at CPU cycle 2421726418, interval 94, pending count: 1
[DRAM_CYCLE_ERROR] Cycle-based error applied! address=0x1959cbf6a8 additional_latency=2459910500 cycles
Simulation CPU 0 panic: IPC 0.0003849 < 0.01
Simulation CPU 0 panic: IPC 0.0003655 < 0.01
[ERROR_CYCLE] Error added at CPU cycle 2447489466, interval 95, pending count: 1
[DRAM_CYCLE_ERROR] Cycle-based error applied! address=0x1959cc2130 additional_latency=2459910500 cycles
Simulation CPU 0 panic: IPC 0.000366 < 0.01
Simulation CPU 0 panic: IPC 0 < 0.01
Simulation CPU 0 panic: IPC 7.62e-05 < 0.01
[ERROR_CYCLE] Error added at CPU cycle 2473252512, interval 96, pending count: 1
[DRAM_CYCLE_ERROR] Cycle-based error applied! address=0x14d22c6be0 additional_latency=2459910500 cycles
Simulation CPU 0 panic: IPC 0 < 0.01
Simulation CPU 0 panic: IPC 0.0003003 < 0.01
[ERROR_CYCLE] Error added at CPU cycle 2499015559, interval 97, pending count: 1
Simulation CPU 0 panic: IPC 0.0003039 < 0.01
[DRAM_CYCLE_ERROR] Cycle-based error applied! address=0xe450198d0 additional_latency=2459910500 cycles
Simulation CPU 0 panic: IPC 0 < 0.01
Simulation CPU 0 panic: IPC 0.0002456 < 0.01
[ERROR_CYCLE] Error added at CPU cycle 2524778607, interval 98, pending count: 1
[DRAM_CYCLE_ERROR] Cycle-based error applied! address=0x1959cc7748 additional_latency=2459910500 cycles
Simulation CPU 0 panic: IPC 0.000404 < 0.01
Simulation CPU 0 panic: IPC 0 < 0.01
Simulation CPU 0 panic: IPC 0.0058673 < 0.01
[ERROR_CYCLE] Error added at CPU cycle 2550541653, interval 99, pending count: 1
[DRAM_CYCLE_ERROR] Cycle-based error applied! address=0x1959cc9108 additional_latency=2459910500 cycles
Simulation CPU 0 panic: IPC 0 < 0.01
Simulation CPU 0 panic: IPC 0.0002078 < 0.01
[ERROR_CYCLE] Error added at CPU cycle 2576304701, interval 100, pending count: 1
[DRAM_CYCLE_ERROR] Cycle-based error applied! address=0xa1b3cb711 additional_latency=2459910500 cycles
Simulation CPU 0 panic: IPC 0 < 0.01
Simulation CPU 0 panic: IPC 0.0002537 < 0.01
Simulation CPU 0 panic: IPC 0.0008968 < 0.01
[ERROR_CYCLE] Error added at CPU cycle 2602067747, interval 101, pending count: 1
[DRAM_CYCLE_ERROR] Cycle-based error applied! address=0x13cd121300 additional_latency=2459910500 cycles
Simulation CPU 0 panic: IPC 0 < 0.01
Simulation CPU 0 panic: IPC 0.002866 < 0.01
[ERROR_CYCLE] Error added at CPU cycle 2627830794, interval 102, pending count: 1
[DRAM_CYCLE_ERROR] Cycle-based error applied! address=0x1959cce6b0 additional_latency=2459910500 cycles
Simulation CPU 0 panic: IPC 0.0011515 < 0.01
Simulation CPU 0 panic: IPC 0 < 0.01
Simulation CPU 0 panic: IPC 0.0008584 < 0.01
[ERROR_CYCLE] Error added at CPU cycle 2653593842, interval 103, pending count: 1
[DRAM_CYCLE_ERROR] Cycle-based error applied! address=0x1959cd0110 additional_latency=2459910500 cycles
Simulation CPU 0 panic: IPC 0.0006085 < 0.01
Simulation CPU 0 panic: IPC 0 < 0.01
[ERROR_CYCLE] Error added at CPU cycle 2679356888, interval 104, pending count: 1
Simulation CPU 0 panic: IPC 0.0003011 < 0.01
[DRAM_CYCLE_ERROR] Cycle-based error applied! address=0x11a67f70e0 additional_latency=2459910500 cycles
Simulation CPU 0 panic: IPC 0 < 0.01
Simulation CPU 0 panic: IPC 0.0021249 < 0.01
[ERROR_CYCLE] Error added at CPU cycle 2705119935, interval 105, pending count: 1
[DRAM_CYCLE_ERROR] Cycle-based error applied! address=0x1959cd3598 additional_latency=2459910500 cycles
Simulation CPU 0 panic: IPC 0.0029258 < 0.01
Simulation CPU 0 panic: IPC 0 < 0.01
Simulation CPU 0 panic: IPC 0.0023755 < 0.01
[ERROR_CYCLE] Error added at CPU cycle 2730882983, interval 106, pending count: 1
[DRAM_CYCLE_ERROR] Cycle-based error applied! address=0x1959cd5148 additional_latency=2459910500 cycles
Simulation CPU 0 panic: IPC 0 < 0.01
Simulation CPU 0 panic: IPC 0.0030551 < 0.01
[ERROR_CYCLE] Error added at CPU cycle 2756646029, interval 107, pending count: 1
[DRAM_CYCLE_ERROR] Cycle-based error applied! address=0x34d3e06c0 additional_latency=2459910500 cycles
Simulation CPU 0 panic: IPC 0 < 0.01
Simulation CPU 0 panic: IPC 0.0017629 < 0.01
Simulation CPU 0 panic: IPC 0.0003205 < 0.01
[ERROR_CYCLE] Error added at CPU cycle 2782409076, interval 108, pending count: 1
[DRAM_CYCLE_ERROR] Cycle-based error applied! address=0x16756e4cc1 additional_latency=2459910500 cycles
Simulation CPU 0 panic: IPC 0 < 0.01
Simulation CPU 0 panic: IPC 0.0003317 < 0.01
[ERROR_CYCLE] Error added at CPU cycle 2808172124, interval 109, pending count: 1
[DRAM_CYCLE_ERROR] Cycle-based error applied! address=0x1959cda170 additional_latency=2459910500 cycles
Simulation CPU 0 panic: IPC 0.0007435 < 0.01
Simulation CPU 0 panic: IPC 0 < 0.01
Simulation CPU 0 panic: IPC 0.0019878 < 0.01
[ERROR_CYCLE] Error added at CPU cycle 2833935170, interval 110, pending count: 1
[DRAM_CYCLE_ERROR] Cycle-based error applied! address=0x1959cdc750 additional_latency=2459910500 cycles
Simulation CPU 0 panic: IPC 0.0003699 < 0.01
Simulation CPU 0 panic: IPC 0 < 0.01
[ERROR_CYCLE] Error added at CPU cycle 2859698218, interval 111, pending count: 1
Simulation CPU 0 panic: IPC 0.0024232 < 0.01
[DRAM_CYCLE_ERROR] Cycle-based error applied! address=0x8b010a3a1 additional_latency=2459910500 cycles
Simulation CPU 0 panic: IPC 0 < 0.01
Simulation CPU 0 panic: IPC 0.0003722 < 0.01
[ERROR_CYCLE] Error added at CPU cycle 2885461265, interval 112, pending count: 1
[DRAM_CYCLE_ERROR] Cycle-based error applied! address=0x1959cdf1c0 additional_latency=2459910500 cycles
Simulation CPU 0 panic: IPC 0.0009868 < 0.01
Simulation CPU 0 panic: IPC 0 < 0.01
Simulation CPU 0 panic: IPC 0.0044585 < 0.01
[ERROR_CYCLE] Error added at CPU cycle 2911224311, interval 113, pending count: 1
[DRAM_CYCLE_ERROR] Cycle-based error applied! address=0x1959ce1168 additional_latency=2459910500 cycles
Simulation CPU 0 panic: IPC 0 < 0.01
Simulation CPU 0 critical: IPC 0.01585 < 0.02
[ERROR_CYCLE] Error added at CPU cycle 2936987359, interval 114, pending count: 1
[DRAM_CYCLE_ERROR] Cycle-based error applied! address=0x10dda35280 additional_latency=2459910500 cycles
Simulation CPU 0 panic: IPC 0 < 0.01
Simulation CPU 0 panic: IPC 0.0083119 < 0.01
Simulation CPU 0 critical: IPC 0.018314 < 0.02
[ERROR_CYCLE] Error added at CPU cycle 2962750405, interval 115, pending count: 1
[DRAM_CYCLE_ERROR] Cycle-based error applied! address=0x1914421921 additional_latency=2459910500 cycles
Simulation CPU 0 panic: IPC 0 < 0.01
[ERROR_CYCLE] Error added at CPU cycle 2988513452, interval 116, pending count: 1
[DRAM_CYCLE_ERROR] Cycle-based error applied! address=0x1959ce6200 additional_latency=2459910500 cycles
Simulation CPU 0 panic: IPC 0 < 0.01
[ERROR_CYCLE] Error added at CPU cycle 3014276500, interval 117, pending count: 1
[DRAM_CYCLE_ERROR] Cycle-based error applied! address=0x3b66b6cf1 additional_latency=2459910500 cycles
Simulation CPU 0 panic: IPC 0 < 0.01
Heartbeat CPU 0 instructions: 10000003 cycles: 3036394907 heartbeat IPC: 0.003293 cumulative IPC: 0.003293 (Simulation time: 04 hr 12 min 57 sec)
[ERROR_CYCLE] Error added at CPU cycle 3040039546, interval 118, pending count: 1
[DRAM_CYCLE_ERROR] Cycle-based error applied! address=0x1fbc4dba38 additional_latency=2459910500 cycles
Simulation CPU 0 panic: IPC 0.0096494 < 0.01
Heartbeat CPU 0 instructions: 20000007 cycles: 3061430843 heartbeat IPC: 0.3994 cumulative IPC: 0.006533 (Simulation time: 04 hr 15 min 38 sec)
[ERROR_CYCLE] Error added at CPU cycle 3065802593, interval 119, pending count: 1
[DRAM_CYCLE_ERROR] Cycle-based error applied! address=0xe45037410 additional_latency=2459910500 cycles
Heartbeat CPU 0 instructions: 30000008 cycles: 3086444305 heartbeat IPC: 0.3998 cumulative IPC: 0.00972 (Simulation time: 04 hr 17 min 25 sec)
[ERROR_CYCLE] Error added at CPU cycle 3091565641, interval 120, pending count: 1
[DRAM_CYCLE_ERROR] Cycle-based error applied! address=0x14b3e53a78 additional_latency=2459910500 cycles
Heartbeat CPU 0 instructions: 40000008 cycles: 3111550121 heartbeat IPC: 0.3983 cumulative IPC: 0.01286 (Simulation time: 04 hr 19 min 20 sec)
[ERROR_CYCLE] Error added at CPU cycle 3117328687, interval 121, pending count: 1
[DRAM_CYCLE_ERROR] Cycle-based error applied! address=0xa4edf3b58 additional_latency=2459910500 cycles
Heartbeat CPU 0 instructions: 50000008 cycles: 3127000215 heartbeat IPC: 0.6472 cumulative IPC: 0.01599 (Simulation time: 04 hr 20 min 45 sec)
Heartbeat CPU 0 instructions: 60000011 cycles: 3141874974 heartbeat IPC: 0.6723 cumulative IPC: 0.0191 (Simulation time: 04 hr 21 min 57 sec)
[ERROR_CYCLE] Error added at CPU cycle 3143091734, interval 122, pending count: 1
[DRAM_CYCLE_ERROR] Cycle-based error applied! address=0x9374498b0 additional_latency=2459910500 cycles
Heartbeat CPU 0 instructions: 70000011 cycles: 3166915492 heartbeat IPC: 0.3994 cumulative IPC: 0.0221 (Simulation time: 04 hr 24 min 00 sec)
[ERROR_CYCLE] Error added at CPU cycle 3168854782, interval 123, pending count: 1
[DRAM_CYCLE_ERROR] Cycle-based error applied! address=0x1fbc4fd830 additional_latency=2459910500 cycles
Heartbeat CPU 0 instructions: 80000012 cycles: 3191987728 heartbeat IPC: 0.3988 cumulative IPC: 0.02506 (Simulation time: 04 hr 26 min 47 sec)
[ERROR_CYCLE] Error added at CPU cycle 3194617828, interval 124, pending count: 1
[DRAM_CYCLE_ERROR] Cycle-based error applied! address=0x1c4a5b8380 additional_latency=2459910500 cycles
Heartbeat CPU 0 instructions: 90000013 cycles: 3216912480 heartbeat IPC: 0.4012 cumulative IPC: 0.02798 (Simulation time: 04 hr 29 min 24 sec)
[ERROR_CYCLE] Error added at CPU cycle 3220380876, interval 125, pending count: 1
[DRAM_CYCLE_ERROR] Cycle-based error applied! address=0x392209738 additional_latency=2459910500 cycles
Simulation CPU 0 warning: IPC 0.028028 < 0.05
Heartbeat CPU 0 instructions: 100000016 cycles: 3241861547 heartbeat IPC: 0.4008 cumulative IPC: 0.03085 (Simulation time: 04 hr 32 min 18 sec)
[ERROR_CYCLE] Error added at CPU cycle 3246143922, interval 126, pending count: 1
[DRAM_CYCLE_ERROR] Cycle-based error applied! address=0x9da6b68c8 additional_latency=2459910500 cycles
Heartbeat CPU 0 instructions: 110000018 cycles: 3266732994 heartbeat IPC: 0.4021 cumulative IPC: 0.03367 (Simulation time: 04 hr 34 min 55 sec)
[ERROR_CYCLE] Error added at CPU cycle 3271906969, interval 127, pending count: 1
[DRAM_CYCLE_ERROR] Cycle-based error applied! address=0x13cd1a5860 additional_latency=2459910500 cycles
Heartbeat CPU 0 instructions: 120000018 cycles: 3281689768 heartbeat IPC: 0.6686 cumulative IPC: 0.03657 (Simulation time: 04 hr 36 min 42 sec)
Heartbeat CPU 0 instructions: 130000018 cycles: 3296735331 heartbeat IPC: 0.6646 cumulative IPC: 0.03943 (Simulation time: 04 hr 38 min 30 sec)
[ERROR_CYCLE] Error added at CPU cycle 3297670017, interval 128, pending count: 1
[DRAM_CYCLE_ERROR] Cycle-based error applied! address=0x39d21b204 additional_latency=2459910500 cycles
Heartbeat CPU 0 instructions: 140000020 cycles: 3321552911 heartbeat IPC: 0.4029 cumulative IPC: 0.04215 (Simulation time: 04 hr 41 min 14 sec)
[ERROR_CYCLE] Error added at CPU cycle 3323433063, interval 129, pending count: 1
[DRAM_CYCLE_ERROR] Cycle-based error applied! address=0x9da6add38 additional_latency=2459910500 cycles
Heartbeat CPU 0 instructions: 150000021 cycles: 3336680066 heartbeat IPC: 0.6611 cumulative IPC: 0.04495 (Simulation time: 04 hr 43 min 02 sec)
[ERROR_CYCLE] Error added at CPU cycle 3349196110, interval 130, pending count: 1
[DRAM_CYCLE_ERROR] Cycle-based error applied! address=0x1b3127ad04 additional_latency=2459910500 cycles
Heartbeat CPU 0 instructions: 160000021 cycles: 3361630625 heartbeat IPC: 0.4008 cumulative IPC: 0.0476 (Simulation time: 04 hr 45 min 45 sec)
[ERROR_CYCLE] Error added at CPU cycle 3374959158, interval 131, pending count: 1
[DRAM_CYCLE_ERROR] Cycle-based error applied! address=0xbf2125a00 additional_latency=2459910500 cycles
Heartbeat CPU 0 instructions: 170000021 cycles: 3376591375 heartbeat IPC: 0.6684 cumulative IPC: 0.05035 (Simulation time: 04 hr 47 min 32 sec)
Heartbeat CPU 0 instructions: 180000024 cycles: 3391398063 heartbeat IPC: 0.6754 cumulative IPC: 0.05308 (Simulation time: 04 hr 49 min 18 sec)
[ERROR_CYCLE] Error added at CPU cycle 3400722204, interval 132, pending count: 1
[DRAM_CYCLE_ERROR] Cycle-based error applied! address=0x1d80732508 additional_latency=2459910500 cycles
Heartbeat CPU 0 instructions: 190000028 cycles: 3406319009 heartbeat IPC: 0.6702 cumulative IPC: 0.05578 (Simulation time: 04 hr 51 min 05 sec)
Heartbeat CPU 0 instructions: 200000029 cycles: 3421393418 heartbeat IPC: 0.6634 cumulative IPC: 0.05846 (Simulation time: 04 hr 52 min 53 sec)
[ERROR_CYCLE] Error added at CPU cycle 3426485251, interval 133, pending count: 1
[DRAM_CYCLE_ERROR] Cycle-based error applied! address=0x1508e6a1c0 additional_latency=2459910500 cycles
Heartbeat CPU 0 instructions: 210000033 cycles: 3436448812 heartbeat IPC: 0.6642 cumulative IPC: 0.06111 (Simulation time: 04 hr 54 min 42 sec)
Heartbeat CPU 0 instructions: 220000035 cycles: 3451444418 heartbeat IPC: 0.6