
*** ChampSim Multicore Out-of-Order Simulator ***
Warmup Instructions: 0
Simulation Instructions: 9223372036854775807
Number of CPUs: 1
Page size: 1048576

Off-chip DRAM Size: 32 GiB Channels: 2 Width: 32-bit Data Rate: 4807 MT/s
[ERROR_PAGE_MANAGER] Error latency: 0 
[ERROR_PAGE_MANAGER] Random seed: 54321 (fixed for preload reproducibility)
[ERROR_PAGE_MANAGER] Error pages off

=== ERROR PAGE STATISTICS ===
Mode: OFF
Total Error Accesses: 0
==============================
Warmup finished CPU 0 instructions: 0 cycles: 1 cumulative IPC: 0 (Simulation time: 00 hr 00 min 00 sec)
Warmup complete CPU 0 instructions: 0 cycles: 1 cumulative IPC: 0 (Simulation time: 00 hr 00 min 00 sec)
Simulation CPU 0 panic: IPC 0 < 0.01
Simulation CPU 0 panic: IPC 9e-07 < 0.01
Simulation CPU 0 panic: IPC 3e-07 < 0.01
Simulation CPU 0 panic: IPC 1e-07 < 0.01
Simulation CPU 0 panic: IPC 1.8e-06 < 0.01
Simulation CPU 0 panic: IPC 0 < 0.01
Simulation CPU 0 panic: IPC 2.29e-05 < 0.01
Simulation CPU 0 panic: IPC 1.7e-06 < 0.01
Simulation CPU 0 panic: IPC 1.81e-05 < 0.01
Simulation CPU 0 panic: IPC 4.33e-05 < 0.01
Simulation CPU 0 panic: IPC 1.23e-05 < 0.01
Simulation CPU 0 panic: IPC 1e-07 < 0.01
Simulation CPU 0 panic: IPC 1.66e-05 < 0.01
Simulation CPU 0 panic: IPC 8.1e-06 < 0.01
Simulation CPU 0 panic: IPC 1e-07 < 0.01
Simulation CPU 0 panic: IPC 2.9e-06 < 0.01
Simulation CPU 0 panic: IPC 3.8e-06 < 0.01
Simulation CPU 0 panic: IPC 1e-07 < 0.01
Simulation CPU 0 panic: IPC 2.9e-06 < 0.01
Simulation CPU 0 panic: IPC 1e-07 < 0.01
Simulation CPU 0 panic: IPC 2.9e-06 < 0.01
Simulation CPU 0 panic: IPC 3e-06 < 0.01
Simulation CPU 0 panic: IPC 1e-07 < 0.01
Simulation CPU 0 panic: IPC 9.7e-06 < 0.01
Simulation CPU 0 panic: IPC 3e-06 < 0.01
Simulation CPU 0 panic: IPC 3e-06 < 0.01
Simulation CPU 0 panic: IPC 2.34e-05 < 0.01
Simulation CPU 0 panic: IPC 1.52e-05 < 0.01
Simulation CPU 0 panic: IPC 2.35e-05 < 0.01
Simulation CPU 0 panic: IPC 8.2e-06 < 0.01
Simulation CPU 0 panic: IPC 1.95e-05 < 0.01
Simulation CPU 0 panic: IPC 0.0001239 < 0.01
Simulation CPU 0 panic: IPC 0.0001436 < 0.01
Simulation CPU 0 panic: IPC 0.0001423 < 0.01
Simulation CPU 0 panic: IPC 7.53e-05 < 0.01
Simulation CPU 0 panic: IPC 6.57e-05 < 0.01
Simulation CPU 0 panic: IPC 0.000357 < 0.01
Simulation CPU 0 panic: IPC 0.0012567 < 0.01
Simulation CPU 0 panic: IPC 0.0001685 < 0.01
Simulation CPU 0 panic: IPC 3.27e-05 < 0.01
Simulation CPU 0 panic: IPC 6.7e-06 < 0.01
Simulation CPU 0 panic: IPC 3.1e-06 < 0.01
Simulation CPU 0 panic: IPC 2.41e-05 < 0.01
Simulation CPU 0 panic: IPC 1.04e-05 < 0.01
Simulation CPU 0 panic: IPC 7.01e-05 < 0.01
Simulation CPU 0 panic: IPC 1.64e-05 < 0.01
Simulation CPU 0 panic: IPC 2.7e-06 < 0.01
Simulation CPU 0 panic: IPC 0.0001107 < 0.01
Simulation CPU 0 panic: IPC 0.0001304 < 0.01
Simulation CPU 0 panic: IPC 3e-06 < 0.01
Simulation CPU 0 panic: IPC 3e-06 < 0.01
Simulation CPU 0 panic: IPC 1e-07 < 0.01
Simulation CPU 0 panic: IPC 3e-06 < 0.01
Simulation CPU 0 panic: IPC 3e-06 < 0.01
Simulation CPU 0 panic: IPC 3e-06 < 0.01
Simulation CPU 0 panic: IPC 2.9e-06 < 0.01
Simulation CPU 0 panic: IPC 1e-07 < 0.01
Simulation CPU 0 panic: IPC 2.9e-06 < 0.01
Simulation CPU 0 panic: IPC 1e-07 < 0.01
Simulation CPU 0 panic: IPC 2.02e-05 < 0.01
Simulation CPU 0 panic: IPC 0.0001422 < 0.01
Simulation CPU 0 panic: IPC 2.14e-05 < 0.01
Simulation CPU 0 panic: IPC 1e-07 < 0.01
Simulation CPU 0 panic: IPC 5.9e-06 < 0.01
Simulation CPU 0 panic: IPC 6e-06 < 0.01
Simulation CPU 0 panic: IPC 9.1e-06 < 0.01
Simulation CPU 0 panic: IPC 2.12e-05 < 0.01
Simulation CPU 0 panic: IPC 0.0001447 < 0.01
Simulation CPU 0 panic: IPC 7.09e-05 < 0.01
Simulation CPU 0 panic: IPC 7e-06 < 0.01
Simulation CPU 0 panic: IPC 2.22e-05 < 0.01
Simulation CPU 0 panic: IPC 5e-07 < 0.01
Simulation CPU 0 panic: IPC 1.3e-05 < 0.01
Simulation CPU 0 panic: IPC 6.2e-06 < 0.01
Simulation CPU 0 panic: IPC 1.09e-05 < 0.01
Simulation CPU 0 panic: IPC 5.8e-06 < 0.01
Simulation CPU 0 panic: IPC 4e-07 < 0.01
Simulation CPU 0 panic: IPC 8e-07 < 0.01
Simulation CPU 0 panic: IPC 5.1e-06 < 0.01
Simulation CPU 0 panic: IPC 2.8e-05 < 0.01
Simulation CPU 0 panic: IPC 2.47e-05 < 0.01
Simulation CPU 0 panic: IPC 5.4e-06 < 0.01
Simulation CPU 0 panic: IPC 1.71e-05 < 0.01
Simulation CPU 0 panic: IPC 5.1e-06 < 0.01
Simulation CPU 0 panic: IPC 7.4e-06 < 0.01
Simulation CPU 0 panic: IPC 1.64e-05 < 0.01
Simulation CPU 0 panic: IPC 5.5e-06 < 0.01
Simulation CPU 0 panic: IPC 8.5e-06 < 0.01
Simulation CPU 0 panic: IPC 1.48e-05 < 0.01
Simulation CPU 0 panic: IPC 1.25e-05 < 0.01
Simulation CPU 0 panic: IPC 2.58e-05 < 0.01
Simulation CPU 0 panic: IPC 2e-05 < 0.01
Simulation CPU 0 panic: IPC 1.17e-05 < 0.01
Simulation CPU 0 panic: IPC 3.16e-05 < 0.01
Simulation CPU 0 panic: IPC 5.5e-06 < 0.01
Simulation CPU 0 panic: IPC 0.0006164 < 0.01
Simulation CPU 0 panic: IPC 0.0001388 < 0.01
Simulation CPU 0 panic: IPC 0.0004124 < 0.01
Simulation CPU 0 panic: IPC 0.0001653 < 0.01
Simulation CPU 0 panic: IPC 0.0002633 < 0.01
Simulation CPU 0 panic: IPC 0.0011627 < 0.01
Simulation CPU 0 panic: IPC 5.4e-06 < 0.01
Simulation CPU 0 panic: IPC 0.0001581 < 0.01
Simulation CPU 0 panic: IPC 5.4e-06 < 0.01
Simulation CPU 0 panic: IPC 0.0001589 < 0.01
Simulation CPU 0 panic: IPC 5.4e-06 < 0.01
Simulation CPU 0 panic: IPC 0.0003267 < 0.01
Simulation CPU 0 panic: IPC 0.0001719 < 0.01
Simulation CPU 0 panic: IPC 0.0001609 < 0.01
Simulation CPU 0 panic: IPC 0.0003321 < 0.01
Simulation CPU 0 panic: IPC 5.4e-06 < 0.01
Simulation CPU 0 panic: IPC 0.0003799 < 0.01
Simulation CPU 0 panic: IPC 9e-06 < 0.01
Simulation CPU 0 panic: IPC 1e-07 < 0.01
Simulation CPU 0 panic: IPC 0.0001136 < 0.01
Simulation CPU 0 panic: IPC 1.6e-05 < 0.01
Simulation CPU 0 panic: IPC 2.22e-05 < 0.01
Simulation CPU 0 panic: IPC 1.21e-05 < 0.01
Simulation CPU 0 panic: IPC 8.9e-06 < 0.01
Simulation CPU 0 panic: IPC 1e-07 < 0.01
Simulation CPU 0 panic: IPC 0.0001016 < 0.01
Simulation CPU 0 panic: IPC 0.0002726 < 0.01
Simulation CPU 0 panic: IPC 3.75e-05 < 0.01
Simulation CPU 0 panic: IPC 0.0003367 < 0.01
Simulation CPU 0 panic: IPC 6.43e-05 < 0.01
Simulation CPU 0 panic: IPC 0.0002663 < 0.01
Simulation CPU 0 panic: IPC 3.92e-05 < 0.01
Simulation CPU 0 panic: IPC 4.55e-05 < 0.01
Simulation CPU 0 panic: IPC 2.08e-05 < 0.01
Simulation CPU 0 panic: IPC 5.2e-06 < 0.01
Simulation CPU 0 panic: IPC 6.65e-05 < 0.01
Simulation CPU 0 panic: IPC 0.0001063 < 0.01
Simulation CPU 0 panic: IPC 0.0002394 < 0.01
Simulation CPU 0 panic: IPC 0.0007973 < 0.01
Simulation CPU 0 panic: IPC 0.0001879 < 0.01
Simulation CPU 0 panic: IPC 0.0001448 < 0.01
Simulation CPU 0 panic: IPC 9.46e-05 < 0.01
Simulation CPU 0 panic: IPC 0.0004602 < 0.01
Simulation CPU 0 panic: IPC 3.92e-05 < 0.01
Simulation CPU 0 panic: IPC 3.95e-05 < 0.01
Simulation CPU 0 panic: IPC 3.73e-05 < 0.01
Simulation CPU 0 panic: IPC 0.0001282 < 0.01
Simulation CPU 0 panic: IPC 5.09e-05 < 0.01
Simulation CPU 0 panic: IPC 0.0002329 < 0.01
Simulation CPU 0 panic: IPC 9.46e-05 < 0.01
Simulation CPU 0 panic: IPC 0.0006733 < 0.01
Simulation CPU 0 panic: IPC 0.0019324 < 0.01
Simulation CPU 0 panic: IPC 0.0003876 < 0.01
Simulation CPU 0 panic: IPC 0.0009874 < 0.01
Simulation CPU 0 panic: IPC 0.0012842 < 0.01
Simulation CPU 0 panic: IPC 0.0015389 < 0.01
Simulation CPU 0 panic: IPC 0.0003849 < 0.01
Simulation CPU 0 panic: IPC 0.0003655 < 0.01
Simulation CPU 0 panic: IPC 0.000366 < 0.01
Simulation CPU 0 panic: IPC 7.62e-05 < 0.01
Simulation CPU 0 panic: IPC 0.0003003 < 0.01
Simulation CPU 0 panic: IPC 0.0003039 < 0.01
Simulation CPU 0 panic: IPC 0.0002456 < 0.01
Simulation CPU 0 panic: IPC 0.0051855 < 0.01
Simulation CPU 0 panic: IPC 0.0010858 < 0.01
Simulation CPU 0 panic: IPC 0.0002078 < 0.01
Simulation CPU 0 panic: IPC 0.0002537 < 0.01
Simulation CPU 0 panic: IPC 0.0008968 < 0.01
Simulation CPU 0 panic: IPC 0.002866 < 0.01
Simulation CPU 0 panic: IPC 0.0011515 < 0.01
Simulation CPU 0 panic: IPC 0.0008584 < 0.01
Simulation CPU 0 panic: IPC 0.0006085 < 0.01
Simulation CPU 0 panic: IPC 0.0003011 < 0.01
Simulation CPU 0 panic: IPC 0.0021249 < 0.01
Simulation CPU 0 panic: IPC 0.0029258 < 0.01
Simulation CPU 0 panic: IPC 0.0012323 < 0.01
Simulation CPU 0 panic: IPC 0.0041983 < 0.01
Simulation CPU 0 panic: IPC 0.0017629 < 0.01
Simulation CPU 0 panic: IPC 0.0003205 < 0.01
Simulation CPU 0 panic: IPC 0.0003317 < 0.01
Simulation CPU 0 panic: IPC 0.0007435 < 0.01
Simulation CPU 0 panic: IPC 0.0019878 < 0.01
Simulation CPU 0 panic: IPC 0.0003699 < 0.01
Simulation CPU 0 panic: IPC 0.0024232 < 0.01
Simulation CPU 0 panic: IPC 0.0003722 < 0.01
Simulation CPU 0 panic: IPC 0.0009868 < 0.01
Simulation CPU 0 panic: IPC 0.002298 < 0.01
Simulation CPU 0 panic: IPC 0.0021605 < 0.01
Simulation CPU 0 critical: IPC 0.019519 < 0.02
Simulation CPU 0 warning: IPC 0.022957 < 0.05
Heartbeat CPU 0 instructions: 10000003 cycles: 1898739971 heartbeat IPC: 0.005267 cumulative IPC: 0.005267 (Simulation time: 02 hr 30 min 14 sec)
Heartbeat CPU 0 instructions: 20000007 cycles: 1913627721 heartbeat IPC: 0.6717 cumulative IPC: 0.01045 (Simulation time: 02 hr 31 min 30 sec)
Heartbeat CPU 0 instructions: 30000008 cycles: 1928476095 heartbeat IPC: 0.6735 cumulative IPC: 0.01556 (Simulation time: 02 hr 33 min 11 sec)
Heartbeat CPU 0 instructions: 40000008 cycles: 1943419304 heartbeat IPC: 0.6692 cumulative IPC: 0.02058 (Simulation time: 02 hr 35 min 00 sec)
Heartbeat CPU 0 instructions: 50000008 cycles: 1958541285 heartbeat IPC: 0.6613 cumulative IPC: 0.02553 (Simulation time: 02 hr 36 min 49 sec)
Heartbeat CPU 0 instructions: 60000011 cycles: 1973100734 heartbeat IPC: 0.6868 cumulative IPC: 0.03041 (Simulation time: 02 hr 38 min 35 sec)
Heartbeat CPU 0 instructions: 70000011 cycles: 1987982192 heartbeat IPC: 0.672 cumulative IPC: 0.03521 (Simulation time: 02 hr 40 min 23 sec)
Heartbeat CPU 0 instructions: 80000012 cycles: 2002898971 heartbeat IPC: 0.6704 cumulative IPC: 0.03994 (Simulation time: 02 hr 42 min 12 sec)
Heartbeat CPU 0 instructions: 90000013 cycles: 2017673788 heartbeat IPC: 0.6768 cumulative IPC: 0.04461 (Simulation time: 02 hr 44 min 00 sec)
Heartbeat CPU 0 instructions: 100000016 cycles: 2032466948 heartbeat IPC: 0.676 cumulative IPC: 0.0492 (Simulation time: 02 hr 45 min 48 sec)
Heartbeat CPU 0 instructions: 110000018 cycles: 2047185933 heartbeat IPC: 0.6794 cumulative IPC: 0.05373 (Simulation time: 02 hr 47 min 35 sec)
Heartbeat CPU 0 instructions: 120000018 cycles: 2061838332 heartbeat IPC: 0.6825 cumulative IPC: 0.0582 (Simulation time: 02 hr 49 min 23 sec)
Heartbeat CPU 0 instructions: 130000018 cycles: 2076592124 heartbeat IPC: 0.6778 cumulative IPC: 0.0626 (Simulation time: 02 hr 51 min 11 sec)
Heartbeat CPU 0 instructions: 140000020 cycles: 2091264519 heartbeat IPC: 0.6816 cumulative IPC: 0.06695 (Simulation time: 02 hr 52 min 58 sec)
Heartbeat CPU 0 instructions: 150000021 cycles: 2106084582 heartbeat IPC: 0.6748 cumulative IPC: 0.07122 (Simulation time: 02 hr 54 min 46 sec)
Heartbeat CPU 0 instructions: 160000021 cycles: 2120891765 heartbeat IPC: 0.6753 cumulative IPC: 0.07544 (Simulation time: 02 hr 56 min 34 sec)
Heartbeat CPU 0 instructions: 170000021 cycles: 2135541918 heartbeat IPC: 0.6826 cumulative IPC: 0.07961 (Simulation time: 02 hr 58 min 21 sec)
Heartbeat CPU 0 instructions: 180000024 cycles: 2150028981 heartbeat IPC: 0.6903 cumulative IPC: 0.08372 (Simulation time: 03 hr 00 min 06 sec)
Heartbeat CPU 0 instructions: 190000028 cycles: 2164622597 heartbeat IPC: 0.6852 cumulative IPC: 0.08778 (Simulation time: 03 hr 01 min 50 sec)
Heartbeat CPU 0 instructions: 200000029 cycles: 2179402375 heartbeat IPC: 0.6766 cumulative IPC: 0.09177 (Simulation time: 03 hr 03 min 35 sec)
Heartbeat CPU 0 instructions: 210000033 cycles: 2194138600 heartbeat IPC: 0.6786 cumulative IPC: 0.09571 (Simulation time: 03 hr 05 min 20 sec)
Heartbeat CPU 0 instructions: 220000035 cycles: 2208829978 heartbeat IPC: 0.6807 cumulative IPC: 0.0996 (Simulation time: 03 hr 07 min 05 sec)
Heartbeat CPU 0 instructions: 230000036 cycles: 2223700179 heartbeat IPC: 0.6725 cumulative IPC: 0.1034 (Simulation time: 03 hr 08 min 50 sec)
Heartbeat CPU 0 instructions: 240000036 cycles: 2238443306 heartbeat IPC: 0.6783 cumulative IPC: 0.1072 (Simulation time: 03 hr 10 min 35 sec)
Heartbeat CPU 0 instructions: 250000038 cycles: 2252740519 heartbeat IPC: 0.6994 cumulative IPC: 0.111 (Simulation time: 03 hr 12 min 17 sec)
Heartbeat CPU 0 instructions: 260000038 cycles: 2267077819 heartbeat IPC: 0.6975 cumulative IPC: 0.1147 (Simulation time: 03 hr 13 min 59 sec)
Heartbeat CPU 0 instructions: 270000038 cycles: 2281881058 heartbeat IPC: 0.6755 cumulative IPC: 0.1183 (Simulation time: 03 hr 15 min 44 sec)
Heartbeat CPU 0 instructions: 280000041 cycles: 2296943458 heartbeat IPC: 0.6639 cumulative IPC: 0.1219 (Simulation time: 03 hr 17 min 31 sec)
Heartbeat CPU 0 instructions: 290000043 cycles: 2311872707 heartbeat IPC: 0.6698 cumulative IPC: 0.1254 (Simulation time: 03 hr 19 min 16 sec)
Heartbeat CPU 0 instructions: 300000044 cycles: 2326278332 heartbeat IPC: 0.6942 cumulative IPC: 0.129 (Simulation time: 03 hr 20 min 57 sec)
Heartbeat CPU 0 instructions: 310000047 cycles: 2341240455 heartbeat IPC: 0.6684 cumulative IPC: 0.1324 (Simulation time: 03 hr 22 min 42 sec)
Heartbeat CPU 0 instructions: 320000051 cycles: 2355996653 heartbeat IPC: 0.6777 cumulative IPC: 0.1358 (Simulation time: 03 hr 24 min 26 sec)
Heartbeat CPU 0 instructions: 330000051 cycles: 2370699107 heartbeat IPC: 0.6802 cumulative IPC: 0.1392 (Simulation time: 03 hr 26 min 00 sec)
Heartbeat CPU 0 instructions: 340000055 cycles: 2384549120 heartbeat IPC: 0.722 cumulative IPC: 0.1426 (Simulation time: 03 hr 27 min 17 sec)
Heartbeat CPU 0 instructions: 350000055 cycles: 2399128698 heartbeat IPC: 0.6859 cumulative IPC: 0.1459 (Simulation time: 03 hr 28 min 45 sec)
Heartbeat CPU 0 instructions: 360000056 cycles: 2413437589 heartbeat IPC: 0.6989 cumulative IPC: 0.1492 (Simulation time: 03 hr 30 min 21 sec)
Heartbeat CPU 0 instructions: 370000056 cycles: 2427851361 heartbeat IPC: 0.6938 cumulative IPC: 0.1524 (Simulation time: 03 hr 31 min 43 sec)
Heartbeat CPU 0 instructions: 380000056 cycles: 2442174066 heartbeat IPC: 0.6982 cumulative IPC: 0.1556 (Simulation time: 03 hr 33 min 27 sec)
Heartbeat CPU 0 instructions: 390000058 cycles: 2456518766 heartbeat IPC: 0.6971 cumulative IPC: 0.1588 (Simulation time: 03 hr 35 min 12 sec)
Heartbeat CPU 0 instructions: 400000059 cycles: 2470987696 heartbeat IPC: 0.6911 cumulative IPC: 0.1619 (Simulation time: 03 hr 36 min 55 sec)
Heartbeat CPU 0 instructions: 410000059 cycles: 2485344381 heartbeat IPC: 0.6965 cumulative IPC: 0.165 (Simulation time: 03 hr 38 min 38 sec)
Heartbeat CPU 0 instructions: 420000062 cycles: 2499863699 heartbeat IPC: 0.6887 cumulative IPC: 0.168 (Simulation time: 03 hr 40 min 07 sec)
Heartbeat CPU 0 instructions: 430000065 cycles: 2514481254 heartbeat IPC: 0.6841 cumulative IPC: 0.171 (Simulation time: 03 hr 41 min 43 sec)
Heartbeat CPU 0 instructions: 440000068 cycles: 2529220504 heartbeat IPC: 0.6785 cumulative IPC: 0.174 (Simulation time: 03 hr 43 min 30 sec)
Heartbeat CPU 0 instructions: 450000068 cycles: 2543861945 heartbeat IPC: 0.683 cumulative IPC: 0.1769 (Simulation time: 03 hr 45 min 02 sec)
Heartbeat CPU 0 instructions: 460000068 cycles: 2558443453 heartbeat IPC: 0.6858 cumulative IPC: 0.1798 (Simulation time: 03 hr 46 min 44 sec)
Heartbeat CPU 0 instructions: 470000068 cycles: 2573135459 heartbeat IPC: 0.6806 cumulative IPC: 0.1827 (Simulation time: 03 hr 48 min 25 sec)
Heartbeat CPU 0 instructions: 480000068 cycles: 2587759720 heartbeat IPC: 0.6838 cumulative IPC: 0.1855 (Simulation time: 03 hr 49 min 35 sec)
Heartbeat CPU 0 instructions: 490000071 cycles: 2602904226 heartbeat IPC: 0.6603 cumulative IPC: 0.1883 (Simulation time: 03 hr 51 min 14 sec)
Heartbeat CPU 0 instructions: 500000072 cycles: 2617430601 heartbeat IPC: 0.6884 cumulative IPC: 0.191 (Simulation time: 03 hr 53 min 00 sec)
Heartbeat CPU 0 instructions: 510000075 cycles: 2632118800 heartbeat IPC: 0.6808 cumulative IPC: 0.1938 (Simulation time: 03 hr 54 min 44 sec)
Heartbeat CPU 0 instructions: 520000079 cycles: 2646840726 heartbeat IPC: 0.6793 cumulative IPC: 0.1965 (Simulation time: 03 hr 56 min 03 sec)
Heartbeat CPU 0 instructions: 530000080 cycles: 2661418733 heartbeat IPC: 0.686 cumulative IPC: 0.1991 (Simulation time: 03 hr 57 min 41 sec)
Heartbeat CPU 0 instructions: 540000080 cycles: 2676331101 heartbeat IPC: 0.6706 cumulative IPC: 0.2018 (Simulation time: 03 hr 59 min 13 sec)
Heartbeat CPU 0 instructions: 550000081 cycles: 2691155056 heartbeat IPC: 0.6746 cumulative IPC: 0.2044 (Simulation time: 04 hr 00 min 54 sec)
Heartbeat CPU 0 instructions: 560000082 cycles: 2705857487 heartbeat IPC: 0.6802 cumulative IPC: 0.207 (Simulation time: 04 hr 02 min 38 sec)
Heartbeat CPU 0 instructions: 570000082 cycles: 2720761868 heartbeat IPC: 0.6709 cumulative IPC: 0.2095 (Simulation time: 04 hr 04 min 15 sec)
Heartbeat CPU 0 instructions: 580000083 cycles: 2735436951 heartbeat IPC: 0.6814 cumulative IPC: 0.212 (Simulation time: 04 hr 05 min 31 sec)
Heartbeat CPU 0 instructions: 590000085 cycles: 2750303446 heartbeat IPC: 0.6727 cumulative IPC: 0.2145 (Simulation time: 04 hr 06 min 53 sec)
Heartbeat CPU 0 instructions: 600000086 cycles: 2764957808 heartbeat IPC: 0.6824 cumulative IPC: 0.217 (Simulation time: 04 hr 08 min 36 sec)
Heartbeat CPU 0 instructions: 610000086 cycles: 2779560010 heartbeat IPC: 0.6848 cumulative IPC: 0.2195 (Simulation time: 04 hr 10 min 22 sec)
Heartbeat CPU 0 instructions: 620000090 cycles: 2794506158 heartbeat IPC: 0.6691 cumulative IPC: 0.2219 (Simulation time: 04 hr 11 min 56 sec)
Heartbeat CPU 0 instructions: 630000094 cycles: 2809266984 heartbeat IPC: 0.6775 cumulative IPC: 0.2243 (Simulation time: 04 hr 13 min 40 sec)
Heartbeat CPU 0 instructions: 640000095 cycles: 2824204920 heartbeat IPC: 0.6694 cumulative IPC: 0.2266 (Simulation time: 04 hr 15 min 23 sec)
Heartbeat CPU 0 instructions: 650000098 cycles: 2839002869 heartbeat IPC: 0.6758 cumulative IPC: 0.229 (Simulation time: 04 hr 17 min 10 sec)
Heartbeat CPU 0 instructions: 660000100 cycles: 2853834124 heartbeat IPC: 0.6743 cumulative IPC: 0.2313 (Simulation time: 04 hr 18 min 57 sec)
Heartbeat CPU 0 instructions: 670000101 cycles: 2868588115 heartbeat IPC: 0.6778 cumulative IPC: 0.2336 (Simulation time: 04 hr 20 min 30 sec)
Heartbeat CPU 0 instructions: 680000104 cycles: 2883323876 heartbeat IPC: 0.6786 cumulative IPC: 0.2358 (Simulation time: 04 hr 22 min 00 sec)
Heartbeat CPU 0 instructions: 690000108 cycles: 2897973087 heartbeat IPC: 0.6826 cumulative IPC: 0.2381 (Simulation time: 04 hr 23 min 36 sec)
Heartbeat CPU 0 instructions: 700000111 cycles: 2912613106 heartbeat IPC: 0.6831 cumulative IPC: 0.2403 (Simulation time: 04 hr 25 min 23 sec)
Heartbeat CPU 0 instructions: 710000111 cycles: 2927425267 heartbeat IPC: 0.6751 cumulative IPC: 0.2425 (Simulation time: 04 hr 27 min 11 sec)
Heartbeat CPU 0 instructions: 720000111 cycles: 2942254984 heartbeat IPC: 0.6743 cumulative IPC: 0.2447 (Simulation time: 04 hr 29 min 01 sec)
Heartbeat CPU 0 instructions: 730000112 cycles: 2956860682 heartbeat IPC: 0.6847 cumulative IPC: 0.2469 (Simulation time: 04 hr 30 min 33 sec)
Heartbeat CPU 0 instructions: 740000114 cycles: 2971668934 heartbeat IPC: 0.6753 cumulative IPC: 0.249 (Simulation time: 04 hr 32 min 08 sec)
Heartbeat CPU 0 instructions: 750000115 cycles: 2986317784 heartbeat IPC: 0.6826 cumulative IPC: 0.2511 (Simulation time: 04 hr 33 min 39 sec)
Heartbeat CPU 0 instructions: 760000117 cycles: 3001108127 heartbeat IPC: 0.6761 cumulative IPC: 0.2532 (Simulation time: 04 hr 35 min 12 sec)
Heartbeat CPU 0 instructions: 770000119 cycles: 3015529491 heartbeat IPC: 0.6934 cumulative IPC: 0.2553 (Simulation time: 04 hr 36 min 56 sec)
Heartbeat CPU 0 instructions: 780000119 cycles: 3030282659 heartbeat IPC: 0.6778 cumulative IPC: 0.2574 (Simulation time: 04 hr 38 min 30 sec)
Heartbeat CPU 0 instructions: 790000119 cycles: 3045001575 heartbeat IPC: 0.6794 cumulative IPC: 0.2594 (Simulation time: 04 hr 40 min 09 sec)
Heartbeat CPU 0 instructions: 800000119 cycles: 3059547213 heartbeat IPC: 0.6875 cumulative IPC: 0.2615 (Simulation time: 04 hr 41 min 22 sec)
Heartbeat CPU 0 instructions: 810000119 cycles: 3074146741 heartbeat IPC: 0.685 cumulative IPC: 0.2635 (Simulation time: 04 hr 42 min 57 sec)
Heartbeat CPU 0 instructions: 820000120 cycles: 3088858915 heartbeat IPC: 0.6797 cumulative IPC: 0.2655 (Simulation time: 04 hr 44 min 12 sec)
Heartbeat CPU 0 instructions: 830000122 cycles: 3103467535 heartbeat IPC: 0.6845 cumulative IPC: 0.2674 (Simulation time: 04 hr 45 min 33 sec)
Heartbeat CPU 0 instructions: 840000126 cycles: 3117882468 heartbeat IPC: 0.6937 cumulative IPC: 0.2694 (Simulation time: 04 hr 47 min 00 sec)
Heartbeat CPU 0 instructions: 850000129 cycles: 3132595337 heartbeat IPC: 0.6797 cumulative IPC: 0.2713 (Simulation time: 04 hr 48 min 28 sec)
Heartbeat CPU 0 instructions: 860000133 cycles: 3147218656 heartbeat IPC: 0.6838 cumulative IPC: 0.2733 (Simulation time: 04 hr 49 min 56 sec)
Heartbeat CPU 0 instructions: 870000136 cycles: 3161788586 heartbeat IPC: 0.6863 cumulative IPC: 0.2752 (Simulation time: 04 hr 51 min 42 sec)
Heartbeat CPU 0 instructions: 880000138 cycles: 3176361122 heartbeat IPC: 0.6862 cumulative IPC: 0.277 (Simulation time: 04 hr 53 min 28 sec)
Heartbeat CPU 0 instructions: 890000138 cycles: 3190906372 heartbeat IPC: 0.6875 cumulative IPC: 0.2789 (Simulation time: 04 hr 55 min 14 sec)
Heartbeat CPU 0 instructions: 900000142 cycles: 3205178303 heartbeat IPC: 0.7007 cumulative IPC: 0.2808 (Simulation time: 04 hr 57 min 00 sec)
Heartbeat CPU 0 instructions: 910000142 cycles: 3219698743 heartbeat IPC: 0.6887 cumulative IPC: 0.2826 (Simulation time: 04 hr 58 min 39 sec)
Heartbeat CPU 0 instructions: 920000143 cycles: 3234328744 heartbeat IPC: 0.6835 cumulative IPC: 0.2844 (Simulation time: 05 hr 00 min 26 sec)
Heartbeat CPU 0 instructions: 930000144 cycles: 3248569223 heartbeat IPC: 0.7022 cumulative IPC: 0.2863 (Simulation time: 05 hr 02 min 09 sec)
Heartbeat CPU 0 instructions: 940000145 cycles: 3262826364 heartbeat IPC: 0.7014 cumulative IPC: 0.2881 (Simulation time: 05 hr 03 min 52 sec)
Heartbeat CPU 0 instructions: 950000146 cycles: 3277431475 heartbeat IPC: 0.6847 cumulative IPC: 0.2899 (Simulation time: 05 hr 05 min 34 sec)
Heartbeat CPU 0 instructions: 960000149 cycles: 3291961104 heartbeat IPC: 0.6882 cumulative IPC: 0.2916 (Simulation time: 05 hr 06 min 43 sec)
Heartbeat CPU 0 instructions: 970000151 cycles: 3306575008 heartbeat IPC: 0.6843 cumulative IPC: 0.2934 (Simulation time: 05 hr 07 min 58 sec)
Heartbeat CPU 0 instructions: 980000151 cycles: 3320955482 heartbeat IPC: 0.6954 cumulative IPC: 0.2951 (Simulation time: 05 hr 09 min 43 sec)
Heartbeat CPU 0 instructions: 990000152 cycles: 3335563412 heartbeat IPC: 0.6846 cumulative IPC: 0.2968 (Simulation time: 05 hr 11 min 14 sec)
Heartbeat CPU 0 instructions: 1000000155 cycles: 3350184178 heartbeat IPC: 0.684 cumulative IPC: 0.2985 (Simulation time: 05 hr 12 min 46 sec)
Heartbeat CPU 0 instructions: 1010000157 cycles: 3364643975 heartbeat IPC: 0.6916 cumulative IPC: 0.3002 (Simulation time: 05 hr 14 min 24 sec)
Heartbeat CPU 0 instructions: 1020000158 cycles: 3379275285 heartbeat IPC: 0.6835 cumulative IPC: 0.3018 (Simulation time: 05 hr 15 min 45 sec)
Heartbeat CPU 0 instructions: 1030000159 cycles: 3393829868 heartbeat IPC: 0.6871 cumulative IPC: 0.3035 (Simulation time: 05 hr 17 min 10 sec)
Heartbeat CPU 0 instructions: 1040000159 cycles: 3408369266 heartbeat IPC: 0.6878 cumulative IPC: 0.3051 (Simulation time: 05 hr 18 min 43 sec)
Heartbeat CPU 0 instructions: 1050000161 cycles: 3422749037 heartbeat IPC: 0.6954 cumulative IPC: 0.3068 (Simulation time: 05 hr 20 min 27 sec)
Heartbeat CPU 0 instructions: 1060000161 cycles: 3437076449 heartbeat IPC: 0.698 cumulative IPC: 0.3084 (Simulation time: 05 hr 22 min 03 sec)
Heartbeat CPU 0 instructions: 1070000165 cycles: 3451428384 heartbeat IPC: 0.6968 cumulative IPC: 0.31 (Simulation time: 05 hr 23 min 28 sec)
Heartbeat CPU 0 instructions: 1080000166 cycles: 3466088733 heartbeat IPC: 0.6821 cumulative IPC: 0.3116 (Simulation time: 05 hr 25 min 14 sec)
Heartbeat CPU 0 instructions: 1090000166 cycles: 3480585192 heartbeat IPC: 0.6898 cumulative IPC: 0.3132 (Simulation time: 05 hr 26 min 55 sec)
Heartbeat CPU 0 instructions: 1100000166 cycles: 3494772926 heartbeat IPC: 0.7048 cumulative IPC: 0.3148 (Simulation time: 05 hr 28 min 29 sec)
Heartbeat CPU 0 instructions: 1110000166 cycles: 3509341001 heartbeat IPC: 0.6864 cumulative IPC: 0.3163 (Simulation time: 05 hr 30 min 14 sec)
Heartbeat CPU 0 instructions: 1120000168 cycles: 3523683788 heartbeat IPC: 0.6972 cumulative IPC: 0.3178 (Simulation time: 05 hr 31 min 58 sec)
Heartbeat CPU 0 instructions: 1130000172 cycles: 3538284651 heartbeat IPC: 0.6849 cumulative IPC: 0.3194 (Simulation time: 05 hr 33 min 13 sec)
Heartbeat CPU 0 instructions: 1140000176 cycles: 3552626157 heartbeat IPC: 0.6973 cumulative IPC: 0.3209 (Simulation time: 05 hr 34 min 23 sec)
Heartbeat CPU 0 instructions: 1150000177 cycles: 3566924491 heartbeat IPC: 0.6994 cumulative IPC: 0.3224 (Simulation time: 05 hr 35 min 37 sec)
Heartbeat CPU 0 instructions: 1160000181 cycles: 3581296676 heartbeat IPC: 0.6958 cumulative IPC: 0.3239 (Simulation time: 05 hr 37 min 18 sec)
Heartbeat CPU 0 instructions: 1170000181 cycles: 3595796759 heartbeat IPC: 0.6897 cumulative IPC: 0.3254 (Simulation time: 05 hr 38 min 42 sec)
Heartbeat CPU 0 instructions: 1180000184 cycles: 3610130044 heartbeat IPC: 0.6977 cumulative IPC: 0.3269 (Simulation time: 05 hr 39 min 52 sec)
Heartbeat CPU 0 instructions: 1190000185 cycles: 3624754158 heartbeat IPC: 0.6838 cumulative IPC: 0.3283 (Simulation time: 05 hr 41 min 07 sec)
Heartbeat CPU 0 instructions: 1200000186 cycles: 3639221715 heartbeat IPC: 0.6912 cumulative IPC: 0.3297 (Simulation time: 05 hr 42 min 34 sec)
Heartbeat CPU 0 instructions: 1210000189 cycles: 3653626296 heartbeat IPC: 0.6942 cumulative IPC: 0.3312 (Simulation time: 05 hr 43 min 52 sec)
Heartbeat CPU 0 instructions: 1220000191 cycles: 3668062215 heartbeat IPC: 0.6927 cumulative IPC: 0.3326 (Simulation time: 05 hr 45 min 12 sec)
Heartbeat CPU 0 instructions: 1230000191 cycles: 3682513231 heartbeat IPC: 0.692 cumulative IPC: 0.334 (Simulation time: 05 hr 46 min 28 sec)
Heartbeat CPU 0 instructions: 1240000192 cycles: 3696897601 heartbeat IPC: 0.6952 cumulative IPC: 0.3354 (Simulation time: 05 hr 47 min 58 sec)
Heartbeat CPU 0 instructions: 1250000193 cycles: 3711364573 heartbeat IPC: 0.6912 cumulative IPC: 0.3368 (Simulation time: 05 hr 49 min 25 sec)
Heartbeat CPU 0 instructions: 1260000195 cycles: 3725773067 heartbeat IPC: 0.694 cumulative IPC: 0.3382 (Simulation time: 05 hr 51 min 02 sec)
Heartbeat CPU 0 instructions: 1270000195 cycles: 3740123816 heartbeat IPC: 0.6968 cumulative IPC: 0.3396 (Simulation time: 05 hr 52 min 43 sec)
Heartbeat CPU 0 instructions: 1280000195 cycles: 3754600546 heartbeat IPC: 0.6908 cumulative IPC: 0.3409 (Simulation time: 05 hr 54 min 11 sec)
Heartbeat CPU 0 instructions: 1290000195 cycles: 3769203515 heartbeat IPC: 0.6848 cumulative IPC: 0.3422 (Simulation time: 05 hr 55 min 28 sec)
Heartbeat CPU 0 instructions: 1300000195 cycles: 3783544190 heartbeat IPC: 0.6973 cumulative IPC: 0.3436 (Simulation time: 05 hr 56 min 50 sec)
Heartbeat CPU 0 instructions: 1310000199 cycles: 3797807852 heartbeat IPC: 0.7011 cumulative IPC: 0.3449 (Simulation time: 05 hr 58 min 22 sec)
Heartbeat CPU 0 instructions: 1320000200 cycles: 3812362959 heartbeat IPC: 0.687 cumulative IPC: 0.3462 (Simulation time: 06 hr 00 min 01 sec)
Heartbeat CPU 0 instructions: 1330000200 cycles: 3826716922 heartbeat IPC: 0.6967 cumulative IPC: 0.3476 (Simulation time: 06 hr 01 min 37 sec)
Heartbeat CPU 0 instructions: 1340000202 cycles: 3841120913 heartbeat IPC: 0.6943 cumulative IPC: 0.3489 (Simulation time: 06 hr 03 min 24 sec)
Heartbeat CPU 0 instructions: 1350000205 cycles: 3855644537 heartbeat IPC: 0.6885 cumulative IPC: 0.3501 (Simulation time: 06 hr 05 min 11 sec)
Heartbeat CPU 0 instructions: 1360000205 cycles: 3869851950 heartbeat IPC: 0.7039 cumulative IPC: 0.3514 (Simulation time: 06 hr 06 min 37 sec)
Heartbeat CPU 0 instructions: 1370000207 cycles: 3884343134 heartbeat IPC: 0.6901 cumulative IPC: 0.3527 (Simulation time: 06 hr 08 min 22 sec)
Heartbeat CPU 0 instructions: 1380000207 cycles: 3898847104 heartbeat IPC: 0.6895 cumulative IPC: 0.354 (Simulation time: 06 hr 10 min 06 sec)
Heartbeat CPU 0 instructions: 1390000207 cycles: 3913364339 heartbeat IPC: 0.6888 cumulative IPC: 0.3552 (Simulation time: 06 hr 11 min 52 sec)
Heartbeat CPU 0 instructions: 1400000207 cycles: 3927754603 heartbeat IPC: 0.6949 cumulative IPC: 0.3564 (Simulation time: 06 hr 13 min 37 sec)
Heartbeat CPU 0 instructions: 1410000207 cycles: 3942272003 heartbeat IPC: 0.6888 cumulative IPC: 0.3577 (Simulation time: 06 hr 15 min 24 sec)
Heartbeat CPU 0 instructions: 1420000207 cycles: 3956898888 heartbeat IPC: 0.6837 cumulative IPC: 0.3589 (Simulation time: 06 hr 16 min 52 sec)
Heartbeat CPU 0 instructions: 1430000211 cycles: 3971441225 heartbeat IPC: 0.6876 cumulative IPC: 0.3601 (Simulation time: 06 hr 18 min 25 sec)
Heartbeat CPU 0 instructions: 1440000213 cycles: 3986109747 heartbeat IPC: 0.6817 cumulative IPC: 0.3613 (Simulation time: 06 hr 19 min 53 sec)
Heartbeat CPU 0 instructions: 1450000215 cycles: 4000263816 heartbeat IPC: 0.7065 cumulative IPC: 0.3625 (Simulation time: 06 hr 21 min 02 sec)
Heartbeat CPU 0 instructions: 1460000218 cycles: 4014755731 heartbeat IPC: 0.69 cumulative IPC: 0.3637 (Simulation time: 06 hr 22 min 21 sec)
Heartbeat CPU 0 instructions: 1470000218 cycles: 4029110320 heartbeat IPC: 0.6966 cumulative IPC: 0.3648 (Simulation time: 06 hr 23 min 34 sec)
Heartbeat CPU 0 instructions: 1480000218 cycles: 4043548090 heartbeat IPC: 0.6926 cumulative IPC: 0.366 (Simulation time: 06 hr 25 min 06 sec)
Heartbeat CPU 0 instructions: 1490000222 cycles: 4057940393 heartbeat IPC: 0.6948 cumulative IPC: 0.3672 (Simulation time: 06 hr 26 min 51 sec)
Heartbeat CPU 0 instructions: 1500000226 cycles: 4072414189 heartbeat IPC: 0.6909 cumulative IPC: 0.3683 (Simulation time: 06 hr 28 min 36 sec)
Heartbeat CPU 0 instructions: 1510000228 cycles: 4086900392 heartbeat IPC: 0.6903 cumulative IPC: 0.3695 (Simulation time: 06 hr 29 min 59 sec)
Heartbeat CPU 0 instructions: 1520000228 cycles: 4101371801 heartbeat IPC: 0.691 cumulative IPC: 0.3706 (Simulation time: 06 hr 31 min 21 sec)
Heartbeat CPU 0 instructions: 1530000229 cycles: 4115992793 heartbeat IPC: 0.6839 cumulative IPC: 0.3717 (Simulation time: 06 hr 33 min 06 sec)
Heartbeat CPU 0 instructions: 1540000230 cycles: 4130554927 heartbeat IPC: 0.6867 cumulative IPC: 0.3728 (Simulation time: 06 hr 34 min 47 sec)
Heartbeat CPU 0 instructions: 1550000230 cycles: 4145344274 heartbeat IPC: 0.6762 cumulative IPC: 0.3739 (Simulation time: 06 hr 36 min 29 sec)
Heartbeat CPU 0 instructions: 1560000231 cycles: 4159981353 heartbeat IPC: 0.6832 cumulative IPC: 0.375 (Simulation time: 06 hr 37 min 58 sec)
Heartbeat CPU 0 instructions: 1570000233 cycles: 4174663196 heartbeat IPC: 0.6811 cumulative IPC: 0.3761 (Simulation time: 06 hr 39 min 34 sec)
Heartbeat CPU 0 instructions: 1580000237 cycles: 4189497564 heartbeat IPC: 0.6741 cumulative IPC: 0.3771 (Simulation time: 06 hr 41 min 07 sec)
Heartbeat CPU 0 instructions: 1590000240 cycles: 4204302394 heartbeat IPC: 0.6755 cumulative IPC: 0.3782 (Simulation time: 06 hr 42 min 50 sec)
Heartbeat CPU 0 instructions: 1600000244 cycles: 4218972000 heartbeat IPC: 0.6817 cumulative IPC: 0.3792 (Simulation time: 06 hr 44 min 22 sec)
Heartbeat CPU 0 instructions: 1610000244 cycles: 4233629736 heartbeat IPC: 0.6822 cumulative IPC: 0.3803 (Simulation time: 06 hr 46 min 08 sec)
Heartbeat CPU 0 instructions: 1620000248 cycles: 4248286942 heartbeat IPC: 0.6823 cumulative IPC: 0.3813 (Simulation time: 06 hr 47 min 40 sec)
Heartbeat CPU 0 instructions: 1630000248 cycles: 4263048072 heartbeat IPC: 0.6775 cumulative IPC: 0.3824 (Simulation time: 06 hr 48 min 57 sec)
Heartbeat CPU 0 instructions: 1640000252 cycles: 4277649176 heartbeat IPC: 0.6849 cumulative IPC: 0.3834 (Simulation time: 06 hr 50 min 17 sec)
Heartbeat CPU 0 instructions: 1650000253 cycles: 4292286867 heartbeat IPC: 0.6832 cumulative IPC: 0.3844 (Simulation time: 06 hr 51 min 29 sec)
Heartbeat CPU 0 instructions: 1660000256 cycles: 4307017698 heartbeat IPC: 0.6788 cumulative IPC: 0.3854 (Simulation time: 06 hr 52 min 47 sec)
Heartbeat CPU 0 instructions: 1670000258 cycles: 4321707604 heartbeat IPC: 0.6807 cumulative IPC: 0.3864 (Simulation time: 06 hr 54 min 08 sec)
Heartbeat CPU 0 instructions: 1680000261 cycles: 4336538385 heartbeat IPC: 0.6743 cumulative IPC: 0.3874 (Simulation time: 06 hr 55 min 30 sec)
Heartbeat CPU 0 instructions: 1690000261 cycles: 4351270005 heartbeat IPC: 0.6788 cumulative IPC: 0.3884 (Simulation time: 06 hr 56 min 54 sec)
Heartbeat CPU 0 instructions: 1700000265 cycles: 4365996860 heartbeat IPC: 0.679 cumulative IPC: 0.3894 (Simulation time: 06 hr 58 min 10 sec)
Heartbeat CPU 0 instructions: 1710000266 cycles: 4380636164 heartbeat IPC: 0.6831 cumulative IPC: 0.3904 (Simulation time: 06 hr 59 min 25 sec)
Heartbeat CPU 0 instructions: 1720000269 cycles: 4395423093 heartbeat IPC: 0.6763 cumulative IPC: 0.3913 (Simulation time: 07 hr 00 min 39 sec)
Heartbeat CPU 0 instructions: 1730000270 cycles: 4410344479 heartbeat IPC: 0.6702 cumulative IPC: 0.3923 (Simulation time: 07 hr 02 min 08 sec)
Heartbeat CPU 0 instructions: 1740000273 cycles: 4424871266 heartbeat IPC: 0.6884 cumulative IPC: 0.3932 (Simulation time: 07 hr 03 min 25 sec)
Heartbeat CPU 0 instructions: 1750000274 cycles: 4439484337 heartbeat IPC: 0.6843 cumulative IPC: 0.3942 (Simulation time: 07 hr 05 min 13 sec)
Heartbeat CPU 0 instructions: 1760000274 cycles: 4454358293 heartbeat IPC: 0.6723 cumulative IPC: 0.3951 (Simulation time: 07 hr 07 min 01 sec)
Heartbeat CPU 0 instructions: 1770000277 cycles: 4469222063 heartbeat IPC: 0.6728 cumulative IPC: 0.396 (Simulation time: 07 hr 08 min 49 sec)
Heartbeat CPU 0 instructions: 1780000279 cycles: 4483890882 heartbeat IPC: 0.6817 cumulative IPC: 0.397 (Simulation time: 07 hr 10 min 34 sec)
Heartbeat CPU 0 instructions: 1790000283 cycles: 4498530188 heartbeat IPC: 0.6831 cumulative IPC: 0.3979 (Simulation time: 07 hr 12 min 21 sec)
Heartbeat CPU 0 instructions: 1800000284 cycles: 4513223407 heartbeat IPC: 0.6806 cumulative IPC: 0.3988 (Simulation time: 07 hr 14 min 07 sec)
Heartbeat CPU 0 instructions: 1810000288 cycles: 4527801925 heartbeat IPC: 0.6859 cumulative IPC: 0.3998 (Simulation time: 07 hr 15 min 31 sec)
Heartbeat CPU 0 instructions: 1820000288 cycles: 4542659836 heartbeat IPC: 0.673 cumulative IPC: 0.4006 (Simulation time: 07 hr 17 min 01 sec)
Heartbeat CPU 0 instructions: 1830000289 cycles: 4557233567 heartbeat IPC: 0.6862 cumulative IPC: 0.4016 (Simulation time: 07 hr 18 min 47 sec)
Heartbeat CPU 0 instructions: 1840000289 cycles: 4571871979 heartbeat IPC: 0.6831 cumulative IPC: 0.4025 (Simulation time: 07 hr 20 min 34 sec)
Heartbeat CPU 0 instructions: 1850000292 cycles: 4586584699 heartbeat IPC: 0.6797 cumulative IPC: 0.4034 (Simulation time: 07 hr 22 min 03 sec)
Heartbeat CPU 0 instructions: 1860000292 cycles: 4601313196 heartbeat IPC: 0.679 cumulative IPC: 0.4042 (Simulation time: 07 hr 23 min 50 sec)
Heartbeat CPU 0 instructions: 1870000296 cycles: 4616074863 heartbeat IPC: 0.6774 cumulative IPC: 0.4051 (Simulation time: 07 hr 25 min 36 sec)
Heartbeat CPU 0 instructions: 1880000298 cycles: 4630725183 heartbeat IPC: 0.6826 cumulative IPC: 0.406 (Simulation time: 07 hr 27 min 24 sec)
Heartbeat CPU 0 instructions: 1890000302 cycles: 4645276866 heartbeat IPC: 0.6872 cumulative IPC: 0.4069 (Simulation time: 07 hr 28 min 59 sec)
Heartbeat CPU 0 instructions: 1900000302 cycles: 4659877195 heartbeat IPC: 0.6849 cumulative IPC: 0.4077 (Simulation time: 07 hr 30 min 45 sec)
Heartbeat CPU 0 instructions: 1910000305 cycles: 4674390272 heartbeat IPC: 0.689 cumulative IPC: 0.4086 (Simulation time: 07 hr 32 min 31 sec)
Heartbeat CPU 0 instructions: 1920000307 cycles: 4689229109 heartbeat IPC: 0.6739 cumulative IPC: 0.4094 (Simulation time: 07 hr 34 min 08 sec)
Heartbeat CPU 0 instructions: 1930000310 cycles: 4704035670 heartbeat IPC: 0.6754 cumulative IPC: 0.4103 (Simulation time: 07 hr 35 min 30 sec)
Heartbeat CPU 0 instructions: 1940000310 cycles: 4718669423 heartbeat IPC: 0.6834 cumulative IPC: 0.4111 (Simulation time: 07 hr 37 min 06 sec)
Heartbeat CPU 0 instructions: 1950000311 cycles: 4733328397 heartbeat IPC: 0.6822 cumulative IPC: 0.412 (Simulation time: 07 hr 38 min 50 sec)
Heartbeat CPU 0 instructions: 1960000313 cycles: 4747831505 heartbeat IPC: 0.6895 cumulative IPC: 0.4128 (Simulation time: 07 hr 40 min 28 sec)
Heartbeat CPU 0 instructions: 1970000313 cycles: 4762368681 heartbeat IPC: 0.6879 cumulative IPC: 0.4137 (Simulation time: 07 hr 42 min 13 sec)
Heartbeat CPU 0 instructions: 1980000314 cycles: 4776920174 heartbeat IPC: 0.6872 cumulative IPC: 0.4145 (Simulation time: 07 hr 43 min 58 sec)
Heartbeat CPU 0 instructions: 1990000314 cycles: 4791377384 heartbeat IPC: 0.6917 cumulative IPC: 0.4153 (Simulation time: 07 hr 45 min 42 sec)

=== ERROR PAGE STATISTICS ===
Mode: OFF
Total Error Accesses: 0
==============================
Simulation finished CPU 0 instructions: 1999999986 cycles: 4805819491 cumulative IPC: 0.4162 (Simulation time: 07 hr 47 min 20 sec)
Simulation complete CPU 0 instructions: 1999999986 cycles: 4805819491 cumulative IPC: 0.4162 (Simulation time: 07 hr 47 min 20 sec)

ChampSim completed all CPUs

=== Simulation ===
CPU 0 runs test_traces/620.omnetpp_s-141B.champsimtrace.xz

Region of Interest Statistics

CPU 0 cumulative IPC: 0.4162 instructions: 1999999986 cycles: 4805819491
CPU 0 Branch Prediction Accuracy: 92.96% MPKI: 14.8 Average ROB Occupancy at Mispredict: 42.45
Branch type MPKI
BRANCH_DIRECT_JUMP: 0.8484
BRANCH_INDIRECT: 0.3555
BRANCH_CONDITIONAL: 12.32
BRANCH_DIRECT_CALL: 0.0001295
BRANCH_INDIRECT_CALL: 0.8457
BRANCH_RETURN: 0.4309

cpu0->cpu0_STLB TOTAL        ACCESS:    7943771 HIT:    7943544 MISS:        227 MSHR_MERGE:          0
cpu0->cpu0_STLB LOAD         ACCESS:    7943771 HIT:    7943544 MISS:        227 MSHR_MERGE:          0
cpu0->cpu0_STLB RFO          ACCESS:          0 HIT:          0 MISS:          0 MSHR_MERGE:          0
cpu0->cpu0_STLB PREFETCH     ACCESS:          0 HIT:          0 MISS:          0 MSHR_MERGE:          0
cpu0->cpu0_STLB WRITE        ACCESS:          0 HIT:          0 MISS:          0 MSHR_MERGE:          0
cpu0->cpu0_STLB TRANSLATION  ACCESS:          0 HIT:          0 MISS:          0 MSHR_MERGE:          0
cpu0->cpu0_STLB PREFETCH REQUESTED:          0 ISSUED:          0 USEFUL:          0 USELESS:          0
cpu0->cpu0_STLB AVERAGE MISS LATENCY: 9.321e+06 cycles
cpu0->cpu0_L2C TOTAL        ACCESS:   56648405 HIT:   29476166 MISS:   27172239 MSHR_MERGE:          0
cpu0->cpu0_L2C LOAD         ACCESS:   33707159 HIT:   10164099 MISS:   23543060 MSHR_MERGE:          0
cpu0->cpu0_L2C RFO          ACCESS:    4839169 HIT:    1233035 MISS:    3606134 MSHR_MERGE:          0
cpu0->cpu0_L2C PREFETCH     ACCESS:          0 HIT:          0 MISS:          0 MSHR_MERGE:          0
cpu0->cpu0_L2C WRITE        ACCESS:   18102077 HIT:   18079032 MISS:      23045 MSHR_MERGE:          0
cpu0->cpu0_L2C TRANSLATION  ACCESS:          0 HIT:          0 MISS:          0 MSHR_MERGE:          0
cpu0->cpu0_L2C PREFETCH REQUESTED:          0 ISSUED:          0 USEFUL:          0 USELESS:          0
cpu0->cpu0_L2C AVERAGE MISS LATENCY: 87.06 cycles
cpu0->cpu0_L1I TOTAL        ACCESS:  267256038 HIT:  265533181 MISS:    1722857 MSHR_MERGE:     435770
cpu0->cpu0_L1I LOAD         ACCESS:  267256038 HIT:  265533181 MISS:    1722857 MSHR_MERGE:     435770
cpu0->cpu0_L1I RFO          ACCESS:          0 HIT:          0 MISS:          0 MSHR_MERGE:          0
cpu0->cpu0_L1I PREFETCH     ACCESS:          0 HIT:          0 MISS:          0 MSHR_MERGE:          0
cpu0->cpu0_L1I WRITE        ACCESS:          0 HIT:          0 MISS:          0 MSHR_MERGE:          0
cpu0->cpu0_L1I TRANSLATION  ACCESS:          0 HIT:          0 MISS:          0 MSHR_MERGE:          0
cpu0->cpu0_L1I PREFETCH REQUESTED:          0 ISSUED:          0 USEFUL:          0 USELESS:          0
cpu0->cpu0_L1I AVERAGE MISS LATENCY: 11.85 cycles
cpu0->cpu0_L1D TOTAL        ACCESS:  808785733 HIT:  751462882 MISS:   57322851 MSHR_MERGE:   20063473
cpu0->cpu0_L1D LOAD         ACCESS:  441102833 HIT:  397763241 MISS:   43339592 MSHR_MERGE:   10919429
cpu0->cpu0_L1D RFO          ACCESS:          0 HIT:          0 MISS:          0 MSHR_MERGE:          0
cpu0->cpu0_L1D PREFETCH     ACCESS:          0 HIT:          0 MISS:          0 MSHR_MERGE:          0
cpu0->cpu0_L1D WRITE        ACCESS:  367682900 HIT:  353699641 MISS:   13983259 MSHR_MERGE:    9144044
cpu0->cpu0_L1D TRANSLATION  ACCESS:          0 HIT:          0 MISS:          0 MSHR_MERGE:          0
cpu0->cpu0_L1D PREFETCH REQUESTED:          0 ISSUED:          0 USEFUL:          0 USELESS:          0
cpu0->cpu0_L1D AVERAGE MISS LATENCY: 72.14 cycles
cpu0->cpu0_ITLB TOTAL        ACCESS:  234322496 HIT:  234322492 MISS:          4 MSHR_MERGE:          1
cpu0->cpu0_ITLB LOAD         ACCESS:  234322496 HIT:  234322492 MISS:          4 MSHR_MERGE:          1
cpu0->cpu0_ITLB RFO          ACCESS:          0 HIT:          0 MISS:          0 MSHR_MERGE:          0
cpu0->cpu0_ITLB PREFETCH     ACCESS:          0 HIT:          0 MISS:          0 MSHR_MERGE:          0
cpu0->cpu0_ITLB WRITE        ACCESS:          0 HIT:          0 MISS:          0 MSHR_MERGE:          0
cpu0->cpu0_ITLB TRANSLATION  ACCESS:          0 HIT:          0 MISS:          0 MSHR_MERGE:          0
cpu0->cpu0_ITLB PREFETCH REQUESTED:          0 ISSUED:          0 USEFUL:          0 USELESS:          0
cpu0->cpu0_ITLB AVERAGE MISS LATENCY: 1.232e+07 cycles
cpu0->cpu0_DTLB TOTAL        ACCESS:  689734698 HIT:  680451730 MISS:    9282968 MSHR_MERGE:    1339200
cpu0->cpu0_DTLB LOAD         ACCESS:  689734698 HIT:  680451730 MISS:    9282968 MSHR_MERGE:    1339200
cpu0->cpu0_DTLB RFO          ACCESS:          0 HIT:          0 MISS:          0 MSHR_MERGE:          0
cpu0->cpu0_DTLB PREFETCH     ACCESS:          0 HIT:          0 MISS:          0 MSHR_MERGE:          0
cpu0->cpu0_DTLB WRITE        ACCESS:          0 HIT:          0 MISS:          0 MSHR_MERGE:          0
cpu0->cpu0_DTLB TRANSLATION  ACCESS:          0 HIT:          0 MISS:          0 MSHR_MERGE:          0
cpu0->cpu0_DTLB PREFETCH REQUESTED:          0 ISSUED:          0 USEFUL:          0 USELESS:          0
cpu0->cpu0_DTLB AVERAGE MISS LATENCY: 266.7 cycles
cpu0->LLC TOTAL        ACCESS:   40303088 HIT:   19732404 MISS:   20570684 MSHR_MERGE:          0
cpu0->LLC LOAD         ACCESS:   23543057 HIT:    5179967 MISS:   18363090 MSHR_MERGE:          0
cpu0->LLC RFO          ACCESS:    3606134 HIT:    1446359 MISS:    2159775 MSHR_MERGE:          0
cpu0->LLC PREFETCH     ACCESS:          0 HIT:          0 MISS:          0 MSHR_MERGE:          0
cpu0->LLC WRITE        ACCESS:   13153897 HIT:   13106078 MISS:      47819 MSHR_MERGE:          0
cpu0->LLC TRANSLATION  ACCESS:          0 HIT:          0 MISS:          0 MSHR_MERGE:          0
cpu0->LLC PREFETCH REQUESTED:          0 ISSUED:          0 USEFUL:          0 USELESS:          0
cpu0->LLC AVERAGE MISS LATENCY: 94.22 cycles

DRAM Statistics

Channel 0 RQ ROW_BUFFER_HIT:     357441
  ROW_BUFFER_MISS:    9895422
  AVG DBUS CONGESTED CYCLE: 13.54
Channel 0 WQ ROW_BUFFER_HIT:     752598
  ROW_BUFFER_MISS:    3990234
  FULL:          0
Channel 0 REFRESHES ISSUED:     400459

Channel 1 RQ ROW_BUFFER_HIT:     365960
  ROW_BUFFER_MISS:    9904471
  AVG DBUS CONGESTED CYCLE: 13.58
Channel 1 WQ ROW_BUFFER_HIT:     756832
  ROW_BUFFER_MISS:    4002177
  FULL:          0
Channel 1 REFRESHES ISSUED:     400459
