[VMEM] WARNING: physical memory size is smaller than virtual memory size.

*** ChampSim Multicore Out-of-Order Simulator ***
Warmup Instructions: 0
Simulation Instructions: 9223372036854775807
Number of CPUs: 1
Page size: 4096

Off-chip DRAM Size: 32 GiB Channels: 2 Width: 32-bit Data Rate: 4807 MT/s
[ERROR_PAGE_MANAGER] Error latency: 173500 
[ERROR_PAGE_MANAGER] Random seed: 54321 (fixed for preload reproducibility)
[ERROR_PAGE_MANAGER] Cycle-based error modeling enabled
[ERROR_PAGE_MANAGER] Errors per interval: 1
[ERROR_PAGE_MANAGER] Error cycle interval: 705324015 cycles

=== ERROR PAGE STATISTICS ===
Mode: CYCLE
Error Cycle Interval: 705324015 CPU cycles
Total Error Accesses: 0
==============================
Warmup finished CPU 0 instructions: 0 cycles: 1 cumulative IPC: 0 (Simulation time: 00 hr 00 min 00 sec)
Warmup complete CPU 0 instructions: 0 cycles: 1 cumulative IPC: 0 (Simulation time: 00 hr 00 min 00 sec)
Heartbeat CPU 0 instructions: 10000004 cycles: 9927866 heartbeat IPC: 1.007 cumulative IPC: 1.007 (Simulation time: 00 hr 01 min 22 sec)
Heartbeat CPU 0 instructions: 20000005 cycles: 22343012 heartbeat IPC: 0.8055 cumulative IPC: 0.8951 (Simulation time: 00 hr 02 min 59 sec)
Heartbeat CPU 0 instructions: 30000009 cycles: 36941591 heartbeat IPC: 0.685 cumulative IPC: 0.8121 (Simulation time: 00 hr 04 min 49 sec)
Heartbeat CPU 0 instructions: 40000010 cycles: 48233545 heartbeat IPC: 0.8856 cumulative IPC: 0.8293 (Simulation time: 00 hr 06 min 18 sec)
Heartbeat CPU 0 instructions: 50000010 cycles: 58471477 heartbeat IPC: 0.9768 cumulative IPC: 0.8551 (Simulation time: 00 hr 07 min 43 sec)
Heartbeat CPU 0 instructions: 60000014 cycles: 68109833 heartbeat IPC: 1.038 cumulative IPC: 0.8809 (Simulation time: 00 hr 08 min 51 sec)
Heartbeat CPU 0 instructions: 70000014 cycles: 77444465 heartbeat IPC: 1.071 cumulative IPC: 0.9039 (Simulation time: 00 hr 09 min 48 sec)
Heartbeat CPU 0 instructions: 80000014 cycles: 85299803 heartbeat IPC: 1.273 cumulative IPC: 0.9379 (Simulation time: 00 hr 10 min 52 sec)
Heartbeat CPU 0 instructions: 90000015 cycles: 93260219 heartbeat IPC: 1.256 cumulative IPC: 0.965 (Simulation time: 00 hr 12 min 03 sec)
Heartbeat CPU 0 instructions: 100000015 cycles: 103260527 heartbeat IPC: 1 cumulative IPC: 0.9684 (Simulation time: 00 hr 13 min 24 sec)
Heartbeat CPU 0 instructions: 110000018 cycles: 117836756 heartbeat IPC: 0.686 cumulative IPC: 0.9335 (Simulation time: 00 hr 15 min 09 sec)
Heartbeat CPU 0 instructions: 120000020 cycles: 128947307 heartbeat IPC: 0.9 cumulative IPC: 0.9306 (Simulation time: 00 hr 16 min 14 sec)
Heartbeat CPU 0 instructions: 130000020 cycles: 139093569 heartbeat IPC: 0.9856 cumulative IPC: 0.9346 (Simulation time: 00 hr 17 min 15 sec)
Heartbeat CPU 0 instructions: 140000021 cycles: 148725020 heartbeat IPC: 1.038 cumulative IPC: 0.9413 (Simulation time: 00 hr 18 min 20 sec)
Heartbeat CPU 0 instructions: 150000022 cycles: 157315608 heartbeat IPC: 1.164 cumulative IPC: 0.9535 (Simulation time: 00 hr 19 min 24 sec)
Heartbeat CPU 0 instructions: 160000024 cycles: 165354271 heartbeat IPC: 1.244 cumulative IPC: 0.9676 (Simulation time: 00 hr 20 min 24 sec)
Heartbeat CPU 0 instructions: 170000027 cycles: 175891388 heartbeat IPC: 0.949 cumulative IPC: 0.9665 (Simulation time: 00 hr 21 min 45 sec)
Heartbeat CPU 0 instructions: 180000031 cycles: 189661655 heartbeat IPC: 0.7262 cumulative IPC: 0.9491 (Simulation time: 00 hr 23 min 04 sec)
Heartbeat CPU 0 instructions: 190000035 cycles: 200339176 heartbeat IPC: 0.9365 cumulative IPC: 0.9484 (Simulation time: 00 hr 24 min 13 sec)
Heartbeat CPU 0 instructions: 200000037 cycles: 210240264 heartbeat IPC: 1.01 cumulative IPC: 0.9513 (Simulation time: 00 hr 25 min 18 sec)
Heartbeat CPU 0 instructions: 210000041 cycles: 223910177 heartbeat IPC: 0.7315 cumulative IPC: 0.9379 (Simulation time: 00 hr 27 min 02 sec)
Heartbeat CPU 0 instructions: 220000041 cycles: 234905775 heartbeat IPC: 0.9095 cumulative IPC: 0.9365 (Simulation time: 00 hr 28 min 02 sec)
Heartbeat CPU 0 instructions: 230000042 cycles: 245134817 heartbeat IPC: 0.9776 cumulative IPC: 0.9383 (Simulation time: 00 hr 29 min 04 sec)
Heartbeat CPU 0 instructions: 240000044 cycles: 254883140 heartbeat IPC: 1.026 cumulative IPC: 0.9416 (Simulation time: 00 hr 29 min 59 sec)
Heartbeat CPU 0 instructions: 250000045 cycles: 264295235 heartbeat IPC: 1.062 cumulative IPC: 0.9459 (Simulation time: 00 hr 31 min 09 sec)
Heartbeat CPU 0 instructions: 260000047 cycles: 273433639 heartbeat IPC: 1.094 cumulative IPC: 0.9509 (Simulation time: 00 hr 32 min 24 sec)
Heartbeat CPU 0 instructions: 270000047 cycles: 282308072 heartbeat IPC: 1.127 cumulative IPC: 0.9564 (Simulation time: 00 hr 33 min 28 sec)
Heartbeat CPU 0 instructions: 280000048 cycles: 291066679 heartbeat IPC: 1.142 cumulative IPC: 0.962 (Simulation time: 00 hr 34 min 42 sec)
Heartbeat CPU 0 instructions: 290000052 cycles: 298173387 heartbeat IPC: 1.407 cumulative IPC: 0.9726 (Simulation time: 00 hr 35 min 45 sec)
Heartbeat CPU 0 instructions: 300000053 cycles: 304621844 heartbeat IPC: 1.551 cumulative IPC: 0.9848 (Simulation time: 00 hr 36 min 44 sec)
Heartbeat CPU 0 instructions: 310000056 cycles: 311485639 heartbeat IPC: 1.457 cumulative IPC: 0.9952 (Simulation time: 00 hr 37 min 45 sec)
Heartbeat CPU 0 instructions: 320000058 cycles: 318997961 heartbeat IPC: 1.331 cumulative IPC: 1.003 (Simulation time: 00 hr 38 min 50 sec)
Heartbeat CPU 0 instructions: 330000058 cycles: 327353897 heartbeat IPC: 1.197 cumulative IPC: 1.008 (Simulation time: 00 hr 40 min 01 sec)
Heartbeat CPU 0 instructions: 340000062 cycles: 336779170 heartbeat IPC: 1.061 cumulative IPC: 1.01 (Simulation time: 00 hr 41 min 18 sec)
Heartbeat CPU 0 instructions: 350000066 cycles: 348131116 heartbeat IPC: 0.8809 cumulative IPC: 1.005 (Simulation time: 00 hr 42 min 30 sec)
Heartbeat CPU 0 instructions: 360000069 cycles: 362863025 heartbeat IPC: 0.6788 cumulative IPC: 0.9921 (Simulation time: 00 hr 44 min 14 sec)
Heartbeat CPU 0 instructions: 370000073 cycles: 373997531 heartbeat IPC: 0.8981 cumulative IPC: 0.9893 (Simulation time: 00 hr 45 min 47 sec)
Heartbeat CPU 0 instructions: 380000077 cycles: 386274063 heartbeat IPC: 0.8146 cumulative IPC: 0.9838 (Simulation time: 00 hr 47 min 25 sec)
Heartbeat CPU 0 instructions: 390000077 cycles: 396893042 heartbeat IPC: 0.9417 cumulative IPC: 0.9826 (Simulation time: 00 hr 48 min 34 sec)
Heartbeat CPU 0 instructions: 400000079 cycles: 406741777 heartbeat IPC: 1.015 cumulative IPC: 0.9834 (Simulation time: 00 hr 49 min 36 sec)
Heartbeat CPU 0 instructions: 410000083 cycles: 416196436 heartbeat IPC: 1.058 cumulative IPC: 0.9851 (Simulation time: 00 hr 50 min 28 sec)
Heartbeat CPU 0 instructions: 420000083 cycles: 425165503 heartbeat IPC: 1.115 cumulative IPC: 0.9879 (Simulation time: 00 hr 51 min 28 sec)
Heartbeat CPU 0 instructions: 430000086 cycles: 432372372 heartbeat IPC: 1.388 cumulative IPC: 0.9945 (Simulation time: 00 hr 52 min 13 sec)
Heartbeat CPU 0 instructions: 440000090 cycles: 440667287 heartbeat IPC: 1.206 cumulative IPC: 0.9985 (Simulation time: 00 hr 53 min 02 sec)
Heartbeat CPU 0 instructions: 450000090 cycles: 451320383 heartbeat IPC: 0.9387 cumulative IPC: 0.9971 (Simulation time: 00 hr 54 min 13 sec)
Heartbeat CPU 0 instructions: 460000094 cycles: 464962512 heartbeat IPC: 0.733 cumulative IPC: 0.9893 (Simulation time: 00 hr 55 min 37 sec)
Heartbeat CPU 0 instructions: 470000095 cycles: 476646551 heartbeat IPC: 0.8559 cumulative IPC: 0.9861 (Simulation time: 00 hr 57 min 05 sec)
Heartbeat CPU 0 instructions: 480000096 cycles: 487503894 heartbeat IPC: 0.921 cumulative IPC: 0.9846 (Simulation time: 00 hr 58 min 36 sec)
Heartbeat CPU 0 instructions: 490000100 cycles: 497592214 heartbeat IPC: 0.9912 cumulative IPC: 0.9847 (Simulation time: 01 hr 00 min 01 sec)
Heartbeat CPU 0 instructions: 500000100 cycles: 507400678 heartbeat IPC: 1.02 cumulative IPC: 0.9854 (Simulation time: 01 hr 01 min 26 sec)
Heartbeat CPU 0 instructions: 510000103 cycles: 516763750 heartbeat IPC: 1.068 cumulative IPC: 0.9869 (Simulation time: 01 hr 02 min 47 sec)
Heartbeat CPU 0 instructions: 520000107 cycles: 525830691 heartbeat IPC: 1.103 cumulative IPC: 0.9889 (Simulation time: 01 hr 04 min 06 sec)
Heartbeat CPU 0 instructions: 530000107 cycles: 534680010 heartbeat IPC: 1.13 cumulative IPC: 0.9912 (Simulation time: 01 hr 05 min 24 sec)
Heartbeat CPU 0 instructions: 540000110 cycles: 543345300 heartbeat IPC: 1.154 cumulative IPC: 0.9938 (Simulation time: 01 hr 06 min 41 sec)
Heartbeat CPU 0 instructions: 550000112 cycles: 551844652 heartbeat IPC: 1.177 cumulative IPC: 0.9967 (Simulation time: 01 hr 07 min 57 sec)
Heartbeat CPU 0 instructions: 560000112 cycles: 560188776 heartbeat IPC: 1.198 cumulative IPC: 0.9997 (Simulation time: 01 hr 09 min 12 sec)
Heartbeat CPU 0 instructions: 570000113 cycles: 568403114 heartbeat IPC: 1.217 cumulative IPC: 1.003 (Simulation time: 01 hr 10 min 26 sec)
Heartbeat CPU 0 instructions: 580000116 cycles: 576501250 heartbeat IPC: 1.235 cumulative IPC: 1.006 (Simulation time: 01 hr 11 min 39 sec)
Heartbeat CPU 0 instructions: 590000117 cycles: 584492075 heartbeat IPC: 1.251 cumulative IPC: 1.009 (Simulation time: 01 hr 12 min 52 sec)
Heartbeat CPU 0 instructions: 600000117 cycles: 592364678 heartbeat IPC: 1.27 cumulative IPC: 1.013 (Simulation time: 01 hr 14 min 04 sec)
Heartbeat CPU 0 instructions: 610000119 cycles: 600077766 heartbeat IPC: 1.296 cumulative IPC: 1.017 (Simulation time: 01 hr 15 min 10 sec)
Heartbeat CPU 0 instructions: 620000119 cycles: 607710788 heartbeat IPC: 1.31 cumulative IPC: 1.02 (Simulation time: 01 hr 16 min 13 sec)
Heartbeat CPU 0 instructions: 630000120 cycles: 615257329 heartbeat IPC: 1.325 cumulative IPC: 1.024 (Simulation time: 01 hr 17 min 20 sec)
Heartbeat CPU 0 instructions: 640000121 cycles: 622589124 heartbeat IPC: 1.364 cumulative IPC: 1.028 (Simulation time: 01 hr 18 min 26 sec)
Heartbeat CPU 0 instructions: 650000123 cycles: 629815861 heartbeat IPC: 1.384 cumulative IPC: 1.032 (Simulation time: 01 hr 19 min 12 sec)
Heartbeat CPU 0 instructions: 660000124 cycles: 635308238 heartbeat IPC: 1.821 cumulative IPC: 1.039 (Simulation time: 01 hr 19 min 59 sec)
Heartbeat CPU 0 instructions: 670000125 cycles: 640571779 heartbeat IPC: 1.9 cumulative IPC: 1.046 (Simulation time: 01 hr 20 min 50 sec)
Heartbeat CPU 0 instructions: 680000126 cycles: 645988203 heartbeat IPC: 1.846 cumulative IPC: 1.053 (Simulation time: 01 hr 21 min 29 sec)
Heartbeat CPU 0 instructions: 690000126 cycles: 651516737 heartbeat IPC: 1.809 cumulative IPC: 1.059 (Simulation time: 01 hr 22 min 12 sec)
Heartbeat CPU 0 instructions: 700000126 cycles: 657235425 heartbeat IPC: 1.749 cumulative IPC: 1.065 (Simulation time: 01 hr 23 min 07 sec)
Heartbeat CPU 0 instructions: 710000127 cycles: 663092579 heartbeat IPC: 1.707 cumulative IPC: 1.071 (Simulation time: 01 hr 24 min 02 sec)
Heartbeat CPU 0 instructions: 720000130 cycles: 669020394 heartbeat IPC: 1.687 cumulative IPC: 1.076 (Simulation time: 01 hr 24 min 48 sec)
Heartbeat CPU 0 instructions: 730000130 cycles: 675184090 heartbeat IPC: 1.622 cumulative IPC: 1.081 (Simulation time: 01 hr 25 min 37 sec)
Heartbeat CPU 0 instructions: 740000130 cycles: 681440333 heartbeat IPC: 1.598 cumulative IPC: 1.086 (Simulation time: 01 hr 26 min 35 sec)
Heartbeat CPU 0 instructions: 750000130 cycles: 687954583 heartbeat IPC: 1.535 cumulative IPC: 1.09 (Simulation time: 01 hr 27 min 33 sec)
Heartbeat CPU 0 instructions: 760000130 cycles: 694550602 heartbeat IPC: 1.516 cumulative IPC: 1.094 (Simulation time: 01 hr 28 min 33 sec)
Heartbeat CPU 0 instructions: 770000130 cycles: 701542287 heartbeat IPC: 1.43 cumulative IPC: 1.098 (Simulation time: 01 hr 29 min 34 sec)
[ERROR_CYCLE] Error added at CPU cycle 705324016, interval 1, pending count: 1
[DRAM_CYCLE_ERROR] Cycle-based error applied! address=0x30b47d8e8 additional_latency=173500 cycles
Heartbeat CPU 0 instructions: 780000130 cycles: 708598013 heartbeat IPC: 1.417 cumulative IPC: 1.101 (Simulation time: 01 hr 30 min 27 sec)
Heartbeat CPU 0 instructions: 790000132 cycles: 715896462 heartbeat IPC: 1.37 cumulative IPC: 1.104 (Simulation time: 01 hr 31 min 14 sec)
Heartbeat CPU 0 instructions: 800000133 cycles: 723468765 heartbeat IPC: 1.321 cumulative IPC: 1.106 (Simulation time: 01 hr 32 min 04 sec)
Heartbeat CPU 0 instructions: 810000137 cycles: 731332549 heartbeat IPC: 1.272 cumulative IPC: 1.108 (Simulation time: 01 hr 32 min 50 sec)
Heartbeat CPU 0 instructions: 820000138 cycles: 739836242 heartbeat IPC: 1.176 cumulative IPC: 1.108 (Simulation time: 01 hr 33 min 53 sec)
Heartbeat CPU 0 instructions: 830000138 cycles: 748431567 heartbeat IPC: 1.163 cumulative IPC: 1.109 (Simulation time: 01 hr 35 min 06 sec)
Heartbeat CPU 0 instructions: 840000139 cycles: 757630987 heartbeat IPC: 1.087 cumulative IPC: 1.109 (Simulation time: 01 hr 36 min 22 sec)
Heartbeat CPU 0 instructions: 850000142 cycles: 767438806 heartbeat IPC: 1.02 cumulative IPC: 1.108 (Simulation time: 01 hr 37 min 42 sec)
Heartbeat CPU 0 instructions: 860000142 cycles: 778094499 heartbeat IPC: 0.9385 cumulative IPC: 1.105 (Simulation time: 01 hr 38 min 53 sec)
Heartbeat CPU 0 instructions: 870000143 cycles: 789663125 heartbeat IPC: 0.8644 cumulative IPC: 1.102 (Simulation time: 01 hr 40 min 20 sec)
Heartbeat CPU 0 instructions: 880000144 cycles: 802992652 heartbeat IPC: 0.7502 cumulative IPC: 1.096 (Simulation time: 01 hr 41 min 55 sec)
Heartbeat CPU 0 instructions: 890000146 cycles: 819226986 heartbeat IPC: 0.616 cumulative IPC: 1.086 (Simulation time: 01 hr 43 min 48 sec)
Heartbeat CPU 0 instructions: 900000146 cycles: 833818131 heartbeat IPC: 0.6853 cumulative IPC: 1.079 (Simulation time: 01 hr 45 min 22 sec)
Heartbeat CPU 0 instructions: 910000146 cycles: 844528720 heartbeat IPC: 0.9337 cumulative IPC: 1.078 (Simulation time: 01 hr 46 min 52 sec)
Heartbeat CPU 0 instructions: 920000147 cycles: 858202965 heartbeat IPC: 0.7313 cumulative IPC: 1.072 (Simulation time: 01 hr 48 min 29 sec)
Heartbeat CPU 0 instructions: 930000148 cycles: 869334938 heartbeat IPC: 0.8983 cumulative IPC: 1.07 (Simulation time: 01 hr 50 min 03 sec)
Heartbeat CPU 0 instructions: 940000148 cycles: 879546799 heartbeat IPC: 0.9793 cumulative IPC: 1.069 (Simulation time: 01 hr 51 min 21 sec)
Heartbeat CPU 0 instructions: 950000151 cycles: 889163838 heartbeat IPC: 1.04 cumulative IPC: 1.068 (Simulation time: 01 hr 52 min 21 sec)
Heartbeat CPU 0 instructions: 960000151 cycles: 898423174 heartbeat IPC: 1.08 cumulative IPC: 1.069 (Simulation time: 01 hr 53 min 38 sec)
Heartbeat CPU 0 instructions: 970000152 cycles: 906400585 heartbeat IPC: 1.254 cumulative IPC: 1.07 (Simulation time: 01 hr 54 min 47 sec)
Heartbeat CPU 0 instructions: 980000156 cycles: 913872665 heartbeat IPC: 1.338 cumulative IPC: 1.072 (Simulation time: 01 hr 55 min 53 sec)
Heartbeat CPU 0 instructions: 990000157 cycles: 922896796 heartbeat IPC: 1.108 cumulative IPC: 1.073 (Simulation time: 01 hr 57 min 07 sec)
Heartbeat CPU 0 instructions: 1000000157 cycles: 934849671 heartbeat IPC: 0.8366 cumulative IPC: 1.07 (Simulation time: 01 hr 58 min 41 sec)
Heartbeat CPU 0 instructions: 1010000157 cycles: 949111075 heartbeat IPC: 0.7012 cumulative IPC: 1.064 (Simulation time: 02 hr 00 min 31 sec)
Heartbeat CPU 0 instructions: 1020000158 cycles: 960175647 heartbeat IPC: 0.9038 cumulative IPC: 1.062 (Simulation time: 02 hr 02 min 01 sec)
Heartbeat CPU 0 instructions: 1030000158 cycles: 973044688 heartbeat IPC: 0.7771 cumulative IPC: 1.059 (Simulation time: 02 hr 03 min 43 sec)
Heartbeat CPU 0 instructions: 1040000158 cycles: 984223732 heartbeat IPC: 0.8945 cumulative IPC: 1.057 (Simulation time: 02 hr 05 min 13 sec)
Heartbeat CPU 0 instructions: 1050000158 cycles: 996702360 heartbeat IPC: 0.8014 cumulative IPC: 1.053 (Simulation time: 02 hr 06 min 54 sec)
Heartbeat CPU 0 instructions: 1060000158 cycles: 1009006713 heartbeat IPC: 0.8127 cumulative IPC: 1.051 (Simulation time: 02 hr 08 min 34 sec)
Heartbeat CPU 0 instructions: 1070000158 cycles: 1019579956 heartbeat IPC: 0.9458 cumulative IPC: 1.049 (Simulation time: 02 hr 09 min 56 sec)
Heartbeat CPU 0 instructions: 1080000160 cycles: 1029200712 heartbeat IPC: 1.039 cumulative IPC: 1.049 (Simulation time: 02 hr 11 min 19 sec)
Heartbeat CPU 0 instructions: 1090000160 cycles: 1041781622 heartbeat IPC: 0.7949 cumulative IPC: 1.046 (Simulation time: 02 hr 13 min 03 sec)
Heartbeat CPU 0 instructions: 1100000160 cycles: 1054047259 heartbeat IPC: 0.8153 cumulative IPC: 1.044 (Simulation time: 02 hr 14 min 44 sec)
Heartbeat CPU 0 instructions: 1110000160 cycles: 1066440721 heartbeat IPC: 0.8069 cumulative IPC: 1.041 (Simulation time: 02 hr 16 min 26 sec)
Heartbeat CPU 0 instructions: 1120000160 cycles: 1077204596 heartbeat IPC: 0.929 cumulative IPC: 1.04 (Simulation time: 02 hr 17 min 57 sec)
Heartbeat CPU 0 instructions: 1130000164 cycles: 1087215473 heartbeat IPC: 0.9989 cumulative IPC: 1.039 (Simulation time: 02 hr 19 min 21 sec)
Heartbeat CPU 0 instructions: 1140000164 cycles: 1096084582 heartbeat IPC: 1.128 cumulative IPC: 1.04 (Simulation time: 02 hr 20 min 39 sec)
Heartbeat CPU 0 instructions: 1150000164 cycles: 1105430676 heartbeat IPC: 1.07 cumulative IPC: 1.04 (Simulation time: 02 hr 21 min 39 sec)
Heartbeat CPU 0 instructions: 1160000166 cycles: 1118738326 heartbeat IPC: 0.7514 cumulative IPC: 1.037 (Simulation time: 02 hr 23 min 03 sec)
Heartbeat CPU 0 instructions: 1170000168 cycles: 1129530795 heartbeat IPC: 0.9266 cumulative IPC: 1.036 (Simulation time: 02 hr 24 min 13 sec)
Heartbeat CPU 0 instructions: 1180000172 cycles: 1139564626 heartbeat IPC: 0.9966 cumulative IPC: 1.035 (Simulation time: 02 hr 25 min 31 sec)
Heartbeat CPU 0 instructions: 1190000173 cycles: 1148871022 heartbeat IPC: 1.075 cumulative IPC: 1.036 (Simulation time: 02 hr 26 min 47 sec)
Heartbeat CPU 0 instructions: 1200000177 cycles: 1162290772 heartbeat IPC: 0.7452 cumulative IPC: 1.032 (Simulation time: 02 hr 28 min 36 sec)
Heartbeat CPU 0 instructions: 1210000181 cycles: 1174712021 heartbeat IPC: 0.8051 cumulative IPC: 1.03 (Simulation time: 02 hr 30 min 20 sec)
Heartbeat CPU 0 instructions: 1220000181 cycles: 1187138717 heartbeat IPC: 0.8047 cumulative IPC: 1.028 (Simulation time: 02 hr 32 min 03 sec)
Heartbeat CPU 0 instructions: 1230000184 cycles: 1197763899 heartbeat IPC: 0.9412 cumulative IPC: 1.027 (Simulation time: 02 hr 33 min 14 sec)
Heartbeat CPU 0 instructions: 1240000187 cycles: 1210209066 heartbeat IPC: 0.8035 cumulative IPC: 1.025 (Simulation time: 02 hr 34 min 53 sec)
Heartbeat CPU 0 instructions: 1250000190 cycles: 1222582061 heartbeat IPC: 0.8082 cumulative IPC: 1.022 (Simulation time: 02 hr 36 min 02 sec)
Heartbeat CPU 0 instructions: 1260000191 cycles: 1234818790 heartbeat IPC: 0.8172 cumulative IPC: 1.02 (Simulation time: 02 hr 37 min 43 sec)
Heartbeat CPU 0 instructions: 1270000191 cycles: 1245298553 heartbeat IPC: 0.9542 cumulative IPC: 1.02 (Simulation time: 02 hr 39 min 13 sec)
Heartbeat CPU 0 instructions: 1280000193 cycles: 1255103504 heartbeat IPC: 1.02 cumulative IPC: 1.02 (Simulation time: 02 hr 40 min 29 sec)
Heartbeat CPU 0 instructions: 1290000197 cycles: 1264520740 heartbeat IPC: 1.062 cumulative IPC: 1.02 (Simulation time: 02 hr 41 min 30 sec)
Heartbeat CPU 0 instructions: 1300000197 cycles: 1272072456 heartbeat IPC: 1.324 cumulative IPC: 1.022 (Simulation time: 02 hr 42 min 26 sec)
Heartbeat CPU 0 instructions: 1310000201 cycles: 1280616121 heartbeat IPC: 1.17 cumulative IPC: 1.023 (Simulation time: 02 hr 43 min 30 sec)
Heartbeat CPU 0 instructions: 1320000202 cycles: 1292739763 heartbeat IPC: 0.8248 cumulative IPC: 1.021 (Simulation time: 02 hr 44 min 40 sec)
Heartbeat CPU 0 instructions: 1330000202 cycles: 1305127561 heartbeat IPC: 0.8072 cumulative IPC: 1.019 (Simulation time: 02 hr 45 min 59 sec)
Heartbeat CPU 0 instructions: 1340000202 cycles: 1315500964 heartbeat IPC: 0.964 cumulative IPC: 1.019 (Simulation time: 02 hr 46 min 58 sec)
Heartbeat CPU 0 instructions: 1350000203 cycles: 1325226806 heartbeat IPC: 1.028 cumulative IPC: 1.019 (Simulation time: 02 hr 47 min 56 sec)
Heartbeat CPU 0 instructions: 1360000204 cycles: 1334518944 heartbeat IPC: 1.076 cumulative IPC: 1.019 (Simulation time: 02 hr 48 min 48 sec)
Heartbeat CPU 0 instructions: 1370000205 cycles: 1342540879 heartbeat IPC: 1.247 cumulative IPC: 1.02 (Simulation time: 02 hr 49 min 50 sec)
Heartbeat CPU 0 instructions: 1380000206 cycles: 1350095275 heartbeat IPC: 1.324 cumulative IPC: 1.022 (Simulation time: 02 hr 50 min 59 sec)
Heartbeat CPU 0 instructions: 1390000210 cycles: 1359412377 heartbeat IPC: 1.073 cumulative IPC: 1.023 (Simulation time: 02 hr 52 min 19 sec)
Heartbeat CPU 0 instructions: 1400000210 cycles: 1372863287 heartbeat IPC: 0.7434 cumulative IPC: 1.02 (Simulation time: 02 hr 54 min 05 sec)
Heartbeat CPU 0 instructions: 1410000214 cycles: 1384051678 heartbeat IPC: 0.8938 cumulative IPC: 1.019 (Simulation time: 02 hr 55 min 38 sec)
Heartbeat CPU 0 instructions: 1420000215 cycles: 1394271968 heartbeat IPC: 0.9784 cumulative IPC: 1.018 (Simulation time: 02 hr 56 min 49 sec)
Heartbeat CPU 0 instructions: 1430000218 cycles: 1403894305 heartbeat IPC: 1.039 cumulative IPC: 1.019 (Simulation time: 02 hr 58 min 05 sec)
[ERROR_CYCLE] Error added at CPU cycle 1410648031, interval 2, pending count: 1
[DRAM_CYCLE_ERROR] Cycle-based error applied! address=0x4be88ff40 additional_latency=173500 cycles
Heartbeat CPU 0 instructions: 1440000219 cycles: 1413153279 heartbeat IPC: 1.08 cumulative IPC: 1.019 (Simulation time: 02 hr 59 min 07 sec)
Heartbeat CPU 0 instructions: 1450000219 cycles: 1421457442 heartbeat IPC: 1.204 cumulative IPC: 1.02 (Simulation time: 02 hr 59 min 57 sec)
Heartbeat CPU 0 instructions: 1460000222 cycles: 1428651778 heartbeat IPC: 1.39 cumulative IPC: 1.022 (Simulation time: 03 hr 01 min 02 sec)
Heartbeat CPU 0 instructions: 1470000225 cycles: 1437019899 heartbeat IPC: 1.195 cumulative IPC: 1.023 (Simulation time: 03 hr 02 min 14 sec)
Heartbeat CPU 0 instructions: 1480000225 cycles: 1447374153 heartbeat IPC: 0.9658 cumulative IPC: 1.023 (Simulation time: 03 hr 03 min 41 sec)
Heartbeat CPU 0 instructions: 1490000229 cycles: 1460845822 heartbeat IPC: 0.7423 cumulative IPC: 1.02 (Simulation time: 03 hr 05 min 06 sec)
Heartbeat CPU 0 instructions: 1500000229 cycles: 1473949065 heartbeat IPC: 0.7632 cumulative IPC: 1.018 (Simulation time: 03 hr 06 min 35 sec)
Heartbeat CPU 0 instructions: 1510000232 cycles: 1486364643 heartbeat IPC: 0.8054 cumulative IPC: 1.016 (Simulation time: 03 hr 08 min 14 sec)
Heartbeat CPU 0 instructions: 1520000235 cycles: 1498556835 heartbeat IPC: 0.8202 cumulative IPC: 1.014 (Simulation time: 03 hr 09 min 53 sec)
Heartbeat CPU 0 instructions: 1530000235 cycles: 1510924532 heartbeat IPC: 0.8086 cumulative IPC: 1.013 (Simulation time: 03 hr 11 min 35 sec)
Heartbeat CPU 0 instructions: 1540000235 cycles: 1523192214 heartbeat IPC: 0.8151 cumulative IPC: 1.011 (Simulation time: 03 hr 13 min 16 sec)
Heartbeat CPU 0 instructions: 1550000235 cycles: 1535313701 heartbeat IPC: 0.825 cumulative IPC: 1.01 (Simulation time: 03 hr 14 min 56 sec)
Heartbeat CPU 0 instructions: 1560000235 cycles: 1545786442 heartbeat IPC: 0.9549 cumulative IPC: 1.009 (Simulation time: 03 hr 16 min 24 sec)
Heartbeat CPU 0 instructions: 1570000236 cycles: 1555576717 heartbeat IPC: 1.021 cumulative IPC: 1.009 (Simulation time: 03 hr 17 min 48 sec)
Heartbeat CPU 0 instructions: 1580000236 cycles: 1564949070 heartbeat IPC: 1.067 cumulative IPC: 1.01 (Simulation time: 03 hr 19 min 09 sec)
Heartbeat CPU 0 instructions: 1590000236 cycles: 1574018783 heartbeat IPC: 1.103 cumulative IPC: 1.01 (Simulation time: 03 hr 20 min 28 sec)
Heartbeat CPU 0 instructions: 1600000236 cycles: 1582664389 heartbeat IPC: 1.157 cumulative IPC: 1.011 (Simulation time: 03 hr 21 min 44 sec)
Heartbeat CPU 0 instructions: 1610000239 cycles: 1589431672 heartbeat IPC: 1.478 cumulative IPC: 1.013 (Simulation time: 03 hr 22 min 47 sec)
Heartbeat CPU 0 instructions: 1620000240 cycles: 1596704822 heartbeat IPC: 1.375 cumulative IPC: 1.015 (Simulation time: 03 hr 23 min 54 sec)
Heartbeat CPU 0 instructions: 1630000242 cycles: 1604903633 heartbeat IPC: 1.22 cumulative IPC: 1.016 (Simulation time: 03 hr 25 min 06 sec)
Heartbeat CPU 0 instructions: 1640000242 cycles: 1614749900 heartbeat IPC: 1.016 cumulative IPC: 1.016 (Simulation time: 03 hr 26 min 28 sec)
Heartbeat CPU 0 instructions: 1650000245 cycles: 1628550695 heartbeat IPC: 0.7246 cumulative IPC: 1.013 (Simulation time: 03 hr 28 min 14 sec)
Heartbeat CPU 0 instructions: 1660000247 cycles: 1641529254 heartbeat IPC: 0.7705 cumulative IPC: 1.011 (Simulation time: 03 hr 29 min 38 sec)
Heartbeat CPU 0 instructions: 1670000248 cycles: 1653857569 heartbeat IPC: 0.8111 cumulative IPC: 1.01 (Simulation time: 03 hr 31 min 09 sec)
Heartbeat CPU 0 instructions: 1680000248 cycles: 1664725165 heartbeat IPC: 0.9202 cumulative IPC: 1.009 (Simulation time: 03 hr 32 min 39 sec)
Heartbeat CPU 0 instructions: 1690000248 cycles: 1674804542 heartbeat IPC: 0.9921 cumulative IPC: 1.009 (Simulation time: 03 hr 34 min 04 sec)
Heartbeat CPU 0 instructions: 1700000250 cycles: 1684363674 heartbeat IPC: 1.046 cumulative IPC: 1.009 (Simulation time: 03 hr 35 min 27 sec)
Heartbeat CPU 0 instructions: 1710000250 cycles: 1692574640 heartbeat IPC: 1.218 cumulative IPC: 1.01 (Simulation time: 03 hr 36 min 41 sec)
Heartbeat CPU 0 instructions: 1720000251 cycles: 1700535151 heartbeat IPC: 1.256 cumulative IPC: 1.011 (Simulation time: 03 hr 37 min 53 sec)
Heartbeat CPU 0 instructions: 1730000251 cycles: 1711092021 heartbeat IPC: 0.9473 cumulative IPC: 1.011 (Simulation time: 03 hr 38 min 58 sec)
Heartbeat CPU 0 instructions: 1740000253 cycles: 1725668030 heartbeat IPC: 0.6861 cumulative IPC: 1.008 (Simulation time: 03 hr 40 min 43 sec)
Heartbeat CPU 0 instructions: 1750000256 cycles: 1736609334 heartbeat IPC: 0.914 cumulative IPC: 1.008 (Simulation time: 03 hr 42 min 14 sec)
Heartbeat CPU 0 instructions: 1760000257 cycles: 1747943778 heartbeat IPC: 0.8823 cumulative IPC: 1.007 (Simulation time: 03 hr 43 min 49 sec)
Heartbeat CPU 0 instructions: 1770000258 cycles: 1759786574 heartbeat IPC: 0.8444 cumulative IPC: 1.006 (Simulation time: 03 hr 45 min 27 sec)
Heartbeat CPU 0 instructions: 1780000259 cycles: 1770512117 heartbeat IPC: 0.9324 cumulative IPC: 1.005 (Simulation time: 03 hr 46 min 53 sec)
Heartbeat CPU 0 instructions: 1790000259 cycles: 1780541430 heartbeat IPC: 0.9971 cumulative IPC: 1.005 (Simulation time: 03 hr 48 min 18 sec)
Heartbeat CPU 0 instructions: 1800000262 cycles: 1790120689 heartbeat IPC: 1.044 cumulative IPC: 1.006 (Simulation time: 03 hr 49 min 41 sec)
Heartbeat CPU 0 instructions: 1810000266 cycles: 1799329474 heartbeat IPC: 1.086 cumulative IPC: 1.006 (Simulation time: 03 hr 51 min 01 sec)
Heartbeat CPU 0 instructions: 1820000267 cycles: 1808328944 heartbeat IPC: 1.111 cumulative IPC: 1.006 (Simulation time: 03 hr 52 min 20 sec)
Heartbeat CPU 0 instructions: 1830000267 cycles: 1817005116 heartbeat IPC: 1.153 cumulative IPC: 1.007 (Simulation time: 03 hr 53 min 38 sec)
Heartbeat CPU 0 instructions: 1840000271 cycles: 1825542835 heartbeat IPC: 1.171 cumulative IPC: 1.008 (Simulation time: 03 hr 54 min 54 sec)
Heartbeat CPU 0 instructions: 1850000272 cycles: 1833916398 heartbeat IPC: 1.194 cumulative IPC: 1.009 (Simulation time: 03 hr 56 min 10 sec)
Heartbeat CPU 0 instructions: 1860000273 cycles: 1842056768 heartbeat IPC: 1.228 cumulative IPC: 1.01 (Simulation time: 03 hr 57 min 23 sec)
Heartbeat CPU 0 instructions: 1870000274 cycles: 1850052745 heartbeat IPC: 1.251 cumulative IPC: 1.011 (Simulation time: 03 hr 58 min 12 sec)
Heartbeat CPU 0 instructions: 1880000276 cycles: 1857990614 heartbeat IPC: 1.26 cumulative IPC: 1.012 (Simulation time: 03 hr 59 min 13 sec)
Heartbeat CPU 0 instructions: 1890000276 cycles: 1863926877 heartbeat IPC: 1.685 cumulative IPC: 1.014 (Simulation time: 03 hr 59 min 55 sec)
Heartbeat CPU 0 instructions: 1900000276 cycles: 1869854110 heartbeat IPC: 1.687 cumulative IPC: 1.016 (Simulation time: 04 hr 00 min 42 sec)
Heartbeat CPU 0 instructions: 1910000279 cycles: 1875979603 heartbeat IPC: 1.633 cumulative IPC: 1.018 (Simulation time: 04 hr 01 min 33 sec)
Heartbeat CPU 0 instructions: 1920000280 cycles: 1882438198 heartbeat IPC: 1.548 cumulative IPC: 1.02 (Simulation time: 04 hr 02 min 24 sec)
Heartbeat CPU 0 instructions: 1930000281 cycles: 1889220759 heartbeat IPC: 1.474 cumulative IPC: 1.022 (Simulation time: 04 hr 03 min 14 sec)
Heartbeat CPU 0 instructions: 1940000283 cycles: 1896405068 heartbeat IPC: 1.392 cumulative IPC: 1.023 (Simulation time: 04 hr 04 min 17 sec)
Heartbeat CPU 0 instructions: 1950000283 cycles: 1903926832 heartbeat IPC: 1.329 cumulative IPC: 1.024 (Simulation time: 04 hr 05 min 26 sec)
Heartbeat CPU 0 instructions: 1960000284 cycles: 1911890639 heartbeat IPC: 1.256 cumulative IPC: 1.025 (Simulation time: 04 hr 06 min 36 sec)
Heartbeat CPU 0 instructions: 1970000286 cycles: 1920491313 heartbeat IPC: 1.163 cumulative IPC: 1.026 (Simulation time: 04 hr 07 min 42 sec)
Heartbeat CPU 0 instructions: 1980000287 cycles: 1929628392 heartbeat IPC: 1.094 cumulative IPC: 1.026 (Simulation time: 04 hr 08 min 46 sec)
Heartbeat CPU 0 instructions: 1990000288 cycles: 1939626300 heartbeat IPC: 1 cumulative IPC: 1.026 (Simulation time: 04 hr 09 min 45 sec)

=== ERROR PAGE STATISTICS ===
Mode: CYCLE
Error Cycle Interval: 705324015 CPU cycles
Total Error Accesses: 2
==============================
Simulation finished CPU 0 instructions: 1999999979 cycles: 1951141565 cumulative IPC: 1.025 (Simulation time: 04 hr 11 min 12 sec)
Simulation complete CPU 0 instructions: 1999999979 cycles: 1951141565 cumulative IPC: 1.025 (Simulation time: 04 hr 11 min 12 sec)

ChampSim completed all CPUs

=== Simulation ===
CPU 0 runs test_traces/623.xalancbmk_s-592B.champsimtrace.xz

Region of Interest Statistics

CPU 0 cumulative IPC: 1.025 instructions: 1999999979 cycles: 1951141565
CPU 0 Branch Prediction Accuracy: 97.16% MPKI: 8.552 Average ROB Occupancy at Mispredict: 25.05
Branch type MPKI
BRANCH_DIRECT_JUMP: 0.08608
BRANCH_INDIRECT: 0.2696
BRANCH_CONDITIONAL: 6.772
BRANCH_DIRECT_CALL: 0.0003155
BRANCH_INDIRECT_CALL: 0.2909
BRANCH_RETURN: 1.133

cpu0->cpu0_STLB TOTAL        ACCESS:   47191282 HIT:   44719572 MISS:    2471710 MSHR_MERGE:          0
cpu0->cpu0_STLB LOAD         ACCESS:   47191282 HIT:   44719572 MISS:    2471710 MSHR_MERGE:          0
cpu0->cpu0_STLB RFO          ACCESS:          0 HIT:          0 MISS:          0 MSHR_MERGE:          0
cpu0->cpu0_STLB PREFETCH     ACCESS:          0 HIT:          0 MISS:          0 MSHR_MERGE:          0
cpu0->cpu0_STLB WRITE        ACCESS:          0 HIT:          0 MISS:          0 MSHR_MERGE:          0
cpu0->cpu0_STLB TRANSLATION  ACCESS:          0 HIT:          0 MISS:          0 MSHR_MERGE:          0
cpu0->cpu0_STLB PREFETCH REQUESTED:          0 ISSUED:          0 USEFUL:          0 USELESS:          0
cpu0->cpu0_STLB AVERAGE MISS LATENCY: 167.2 cycles
cpu0->cpu0_L2C TOTAL        ACCESS:  105792668 HIT:  100013242 MISS:    5779426 MSHR_MERGE:          0
cpu0->cpu0_L2C LOAD         ACCESS:   96653860 HIT:   93957056 MISS:    2696804 MSHR_MERGE:          0
cpu0->cpu0_L2C RFO          ACCESS:    3685425 HIT:     602831 MISS:    3082594 MSHR_MERGE:          0
cpu0->cpu0_L2C PREFETCH     ACCESS:          0 HIT:          0 MISS:          0 MSHR_MERGE:          0
cpu0->cpu0_L2C WRITE        ACCESS:    5453383 HIT:    5453355 MISS:         28 MSHR_MERGE:          0
cpu0->cpu0_L2C TRANSLATION  ACCESS:          0 HIT:          0 MISS:          0 MSHR_MERGE:          0
cpu0->cpu0_L2C PREFETCH REQUESTED:          0 ISSUED:          0 USEFUL:          0 USELESS:          0
cpu0->cpu0_L2C AVERAGE MISS LATENCY: 73.43 cycles
cpu0->cpu0_L1I TOTAL        ACCESS:  363918241 HIT:  358521357 MISS:    5396884 MSHR_MERGE:    1492512
cpu0->cpu0_L1I LOAD         ACCESS:  363918241 HIT:  358521357 MISS:    5396884 MSHR_MERGE:    1492512
cpu0->cpu0_L1I RFO          ACCESS:          0 HIT:          0 MISS:          0 MSHR_MERGE:          0
cpu0->cpu0_L1I PREFETCH     ACCESS:          0 HIT:          0 MISS:          0 MSHR_MERGE:          0
cpu0->cpu0_L1I WRITE        ACCESS:          0 HIT:          0 MISS:          0 MSHR_MERGE:          0
cpu0->cpu0_L1I TRANSLATION  ACCESS:          0 HIT:          0 MISS:          0 MSHR_MERGE:          0
cpu0->cpu0_L1I PREFETCH REQUESTED:          0 ISSUED:          0 USEFUL:          0 USELESS:          0
cpu0->cpu0_L1I AVERAGE MISS LATENCY: 7.922 cycles
cpu0->cpu0_L1D TOTAL        ACCESS:  535950930 HIT:  359582187 MISS:  176368743 MSHR_MERGE:   79933749
cpu0->cpu0_L1D LOAD         ACCESS:  418906756 HIT:  256220383 MISS:  162686373 MSHR_MERGE:   69936814
cpu0->cpu0_L1D RFO          ACCESS:          0 HIT:          0 MISS:          0 MSHR_MERGE:          0
cpu0->cpu0_L1D PREFETCH     ACCESS:          0 HIT:          0 MISS:          0 MSHR_MERGE:          0
cpu0->cpu0_L1D WRITE        ACCESS:  117044174 HIT:  103361804 MISS:   13682370 MSHR_MERGE:    9996935
cpu0->cpu0_L1D TRANSLATION  ACCESS:          0 HIT:          0 MISS:          0 MSHR_MERGE:          0
cpu0->cpu0_L1D PREFETCH REQUESTED:          0 ISSUED:          0 USEFUL:          0 USELESS:          0
cpu0->cpu0_L1D AVERAGE MISS LATENCY: 12.58 cycles
cpu0->cpu0_ITLB TOTAL        ACCESS:  343198012 HIT:  341911774 MISS:    1286238 MSHR_MERGE:     705804
cpu0->cpu0_ITLB LOAD         ACCESS:  343198012 HIT:  341911774 MISS:    1286238 MSHR_MERGE:     705804
cpu0->cpu0_ITLB RFO          ACCESS:          0 HIT:          0 MISS:          0 MSHR_MERGE:          0
cpu0->cpu0_ITLB PREFETCH     ACCESS:          0 HIT:          0 MISS:          0 MSHR_MERGE:          0
cpu0->cpu0_ITLB WRITE        ACCESS:          0 HIT:          0 MISS:          0 MSHR_MERGE:          0
cpu0->cpu0_ITLB TRANSLATION  ACCESS:          0 HIT:          0 MISS:          0 MSHR_MERGE:          0
cpu0->cpu0_ITLB PREFETCH REQUESTED:          0 ISSUED:          0 USEFUL:          0 USELESS:          0
cpu0->cpu0_ITLB AVERAGE MISS LATENCY: 13.17 cycles
cpu0->cpu0_DTLB TOTAL        ACCESS:  464628443 HIT:  401229246 MISS:   63399197 MSHR_MERGE:   16788349
cpu0->cpu0_DTLB LOAD         ACCESS:  464628443 HIT:  401229246 MISS:   63399197 MSHR_MERGE:   16788349
cpu0->cpu0_DTLB RFO          ACCESS:          0 HIT:          0 MISS:          0 MSHR_MERGE:          0
cpu0->cpu0_DTLB PREFETCH     ACCESS:          0 HIT:          0 MISS:          0 MSHR_MERGE:          0
cpu0->cpu0_DTLB WRITE        ACCESS:          0 HIT:          0 MISS:          0 MSHR_MERGE:          0
cpu0->cpu0_DTLB TRANSLATION  ACCESS:          0 HIT:          0 MISS:          0 MSHR_MERGE:          0
cpu0->cpu0_DTLB PREFETCH REQUESTED:          0 ISSUED:          0 USEFUL:          0 USELESS:          0
cpu0->cpu0_DTLB AVERAGE MISS LATENCY: 13.84 cycles
cpu0->LLC TOTAL        ACCESS:    9281260 HIT:    6007876 MISS:    3273384 MSHR_MERGE:          0
cpu0->LLC LOAD         ACCESS:    2696802 HIT:    2285497 MISS:     411305 MSHR_MERGE:          0
cpu0->LLC RFO          ACCESS:    3082594 HIT:     236318 MISS:    2846276 MSHR_MERGE:          0
cpu0->LLC PREFETCH     ACCESS:          0 HIT:          0 MISS:          0 MSHR_MERGE:          0
cpu0->LLC WRITE        ACCESS:    3501864 HIT:    3486061 MISS:      15803 MSHR_MERGE:          0
cpu0->LLC TRANSLATION  ACCESS:          0 HIT:          0 MISS:          0 MSHR_MERGE:          0
cpu0->LLC PREFETCH REQUESTED:          0 ISSUED:          0 USEFUL:          0 USELESS:          0
cpu0->LLC AVERAGE MISS LATENCY: 102.2 cycles

DRAM Statistics

Channel 0 RQ ROW_BUFFER_HIT:      59441
  ROW_BUFFER_MISS:    4101156
  AVG DBUS CONGESTED CYCLE: 8.12
Channel 0 WQ ROW_BUFFER_HIT:      86341
  ROW_BUFFER_MISS:    1457538
  FULL:          0
Channel 0 REFRESHES ISSUED:     162584

Channel 1 RQ ROW_BUFFER_HIT:      70944
  ROW_BUFFER_MISS:    3979097
  AVG DBUS CONGESTED CYCLE: 8.128
Channel 1 WQ ROW_BUFFER_HIT:      87238
  ROW_BUFFER_MISS:    1455482
  FULL:          0
Channel 1 REFRESHES ISSUED:     162584
