
*** ChampSim Multicore Out-of-Order Simulator ***
Warmup Instructions: 0
Simulation Instructions: 9223372036854775807
Number of CPUs: 1
Page size: 2097152

Off-chip DRAM Size: 64 GiB Channels: 2 Width: 32-bit Data Rate: 4807 MT/s
[ERROR_PAGE_MANAGER] Error latency: 1990500 
[ERROR_PAGE_MANAGER] Random seed: 54321 (fixed for preload reproducibility)
[ERROR_PAGE_MANAGER] Cycle-based error modeling enabled
[ERROR_PAGE_MANAGER] Errors per interval: 1
[ERROR_PAGE_MANAGER] Error cycle interval: 464841614 cycles

=== ERROR PAGE STATISTICS ===
Mode: CYCLE
Error Cycle Interval: 464841614 CPU cycles
Total Error Accesses: 0
==============================
Warmup finished CPU 0 instructions: 0 cycles: 1 cumulative IPC: 0 (Simulation time: 00 hr 00 min 00 sec)
Warmup complete CPU 0 instructions: 0 cycles: 1 cumulative IPC: 0 (Simulation time: 00 hr 00 min 00 sec)
Heartbeat CPU 0 instructions: 10000001 cycles: 11010694 heartbeat IPC: 0.9082 cumulative IPC: 0.9082 (Simulation time: 00 hr 01 min 38 sec)
Heartbeat CPU 0 instructions: 20000004 cycles: 22194246 heartbeat IPC: 0.8942 cumulative IPC: 0.9011 (Simulation time: 00 hr 03 min 01 sec)
Heartbeat CPU 0 instructions: 30000005 cycles: 33091248 heartbeat IPC: 0.9177 cumulative IPC: 0.9066 (Simulation time: 00 hr 04 min 19 sec)
Heartbeat CPU 0 instructions: 40000008 cycles: 43985912 heartbeat IPC: 0.9179 cumulative IPC: 0.9094 (Simulation time: 00 hr 05 min 30 sec)
Heartbeat CPU 0 instructions: 50000010 cycles: 54978744 heartbeat IPC: 0.9097 cumulative IPC: 0.9094 (Simulation time: 00 hr 06 min 47 sec)
Heartbeat CPU 0 instructions: 60000010 cycles: 66098955 heartbeat IPC: 0.8993 cumulative IPC: 0.9077 (Simulation time: 00 hr 08 min 17 sec)
Heartbeat CPU 0 instructions: 70000012 cycles: 77067288 heartbeat IPC: 0.9117 cumulative IPC: 0.9083 (Simulation time: 00 hr 09 min 53 sec)
Heartbeat CPU 0 instructions: 80000016 cycles: 88103151 heartbeat IPC: 0.9061 cumulative IPC: 0.908 (Simulation time: 00 hr 11 min 17 sec)
Heartbeat CPU 0 instructions: 90000016 cycles: 99165768 heartbeat IPC: 0.9039 cumulative IPC: 0.9076 (Simulation time: 00 hr 12 min 43 sec)
Heartbeat CPU 0 instructions: 100000016 cycles: 110081372 heartbeat IPC: 0.9161 cumulative IPC: 0.9084 (Simulation time: 00 hr 14 min 28 sec)
Heartbeat CPU 0 instructions: 110000017 cycles: 120973401 heartbeat IPC: 0.9181 cumulative IPC: 0.9093 (Simulation time: 00 hr 15 min 50 sec)
Heartbeat CPU 0 instructions: 120000020 cycles: 131898048 heartbeat IPC: 0.9154 cumulative IPC: 0.9098 (Simulation time: 00 hr 17 min 10 sec)
Heartbeat CPU 0 instructions: 130000024 cycles: 142801851 heartbeat IPC: 0.9171 cumulative IPC: 0.9104 (Simulation time: 00 hr 18 min 20 sec)
Heartbeat CPU 0 instructions: 140000025 cycles: 153719518 heartbeat IPC: 0.9159 cumulative IPC: 0.9107 (Simulation time: 00 hr 19 min 34 sec)
Heartbeat CPU 0 instructions: 150000029 cycles: 164621757 heartbeat IPC: 0.9172 cumulative IPC: 0.9112 (Simulation time: 00 hr 20 min 57 sec)
Heartbeat CPU 0 instructions: 160000031 cycles: 175526619 heartbeat IPC: 0.917 cumulative IPC: 0.9115 (Simulation time: 00 hr 22 min 11 sec)
Heartbeat CPU 0 instructions: 170000033 cycles: 186434442 heartbeat IPC: 0.9168 cumulative IPC: 0.9118 (Simulation time: 00 hr 23 min 30 sec)
Heartbeat CPU 0 instructions: 180000037 cycles: 197325003 heartbeat IPC: 0.9182 cumulative IPC: 0.9122 (Simulation time: 00 hr 24 min 45 sec)
Heartbeat CPU 0 instructions: 190000041 cycles: 208208308 heartbeat IPC: 0.9188 cumulative IPC: 0.9125 (Simulation time: 00 hr 26 min 25 sec)
Heartbeat CPU 0 instructions: 200000041 cycles: 219102964 heartbeat IPC: 0.9179 cumulative IPC: 0.9128 (Simulation time: 00 hr 28 min 06 sec)
Heartbeat CPU 0 instructions: 210000041 cycles: 230010351 heartbeat IPC: 0.9168 cumulative IPC: 0.913 (Simulation time: 00 hr 29 min 53 sec)
Heartbeat CPU 0 instructions: 220000041 cycles: 240909763 heartbeat IPC: 0.9175 cumulative IPC: 0.9132 (Simulation time: 00 hr 31 min 35 sec)
Heartbeat CPU 0 instructions: 230000044 cycles: 251831881 heartbeat IPC: 0.9156 cumulative IPC: 0.9133 (Simulation time: 00 hr 33 min 01 sec)
Heartbeat CPU 0 instructions: 240000044 cycles: 262727623 heartbeat IPC: 0.9178 cumulative IPC: 0.9135 (Simulation time: 00 hr 34 min 24 sec)
Heartbeat CPU 0 instructions: 250000048 cycles: 273763993 heartbeat IPC: 0.9061 cumulative IPC: 0.9132 (Simulation time: 00 hr 35 min 46 sec)
Heartbeat CPU 0 instructions: 260000052 cycles: 284655776 heartbeat IPC: 0.9181 cumulative IPC: 0.9134 (Simulation time: 00 hr 37 min 34 sec)
Heartbeat CPU 0 instructions: 270000052 cycles: 295570587 heartbeat IPC: 0.9162 cumulative IPC: 0.9135 (Simulation time: 00 hr 39 min 21 sec)
Heartbeat CPU 0 instructions: 280000054 cycles: 312600010 heartbeat IPC: 0.5872 cumulative IPC: 0.8957 (Simulation time: 00 hr 42 min 27 sec)
Heartbeat CPU 0 instructions: 290000057 cycles: 331018425 heartbeat IPC: 0.5429 cumulative IPC: 0.8761 (Simulation time: 00 hr 44 min 58 sec)
Heartbeat CPU 0 instructions: 300000058 cycles: 342477165 heartbeat IPC: 0.8727 cumulative IPC: 0.876 (Simulation time: 00 hr 46 min 47 sec)
Heartbeat CPU 0 instructions: 310000059 cycles: 353761959 heartbeat IPC: 0.8861 cumulative IPC: 0.8763 (Simulation time: 00 hr 48 min 35 sec)
Heartbeat CPU 0 instructions: 320000059 cycles: 365175371 heartbeat IPC: 0.8762 cumulative IPC: 0.8763 (Simulation time: 00 hr 50 min 23 sec)
Heartbeat CPU 0 instructions: 330000061 cycles: 376506508 heartbeat IPC: 0.8825 cumulative IPC: 0.8765 (Simulation time: 00 hr 52 min 11 sec)
Heartbeat CPU 0 instructions: 340000061 cycles: 387615296 heartbeat IPC: 0.9002 cumulative IPC: 0.8772 (Simulation time: 00 hr 53 min 57 sec)
Heartbeat CPU 0 instructions: 350000062 cycles: 398831273 heartbeat IPC: 0.8916 cumulative IPC: 0.8776 (Simulation time: 00 hr 55 min 38 sec)
Heartbeat CPU 0 instructions: 360000066 cycles: 409912908 heartbeat IPC: 0.9024 cumulative IPC: 0.8782 (Simulation time: 00 hr 57 min 18 sec)
Heartbeat CPU 0 instructions: 370000067 cycles: 420976261 heartbeat IPC: 0.9039 cumulative IPC: 0.8789 (Simulation time: 00 hr 59 min 01 sec)
Heartbeat CPU 0 instructions: 380000068 cycles: 432054095 heartbeat IPC: 0.9027 cumulative IPC: 0.8795 (Simulation time: 01 hr 00 min 17 sec)
Heartbeat CPU 0 instructions: 390000069 cycles: 443137060 heartbeat IPC: 0.9023 cumulative IPC: 0.8801 (Simulation time: 01 hr 01 min 32 sec)
Heartbeat CPU 0 instructions: 400000073 cycles: 454227982 heartbeat IPC: 0.9016 cumulative IPC: 0.8806 (Simulation time: 01 hr 03 min 06 sec)
[ERROR_CYCLE] Error added at CPU cycle 464841614, interval 1, pending count: 1
[DRAM_CYCLE_ERROR] Cycle-based error applied! address=0x4c695fec0 additional_latency=1990500 cycles
Heartbeat CPU 0 instructions: 410000073 cycles: 465310118 heartbeat IPC: 0.9024 cumulative IPC: 0.8811 (Simulation time: 01 hr 04 min 36 sec)
Heartbeat CPU 0 instructions: 420000076 cycles: 476393488 heartbeat IPC: 0.9023 cumulative IPC: 0.8816 (Simulation time: 01 hr 05 min 53 sec)
Heartbeat CPU 0 instructions: 430000076 cycles: 487541073 heartbeat IPC: 0.8971 cumulative IPC: 0.882 (Simulation time: 01 hr 07 min 23 sec)
Heartbeat CPU 0 instructions: 440000076 cycles: 498626031 heartbeat IPC: 0.9021 cumulative IPC: 0.8824 (Simulation time: 01 hr 09 min 05 sec)
Heartbeat CPU 0 instructions: 450000076 cycles: 509704202 heartbeat IPC: 0.9027 cumulative IPC: 0.8829 (Simulation time: 01 hr 10 min 53 sec)
Heartbeat CPU 0 instructions: 460000077 cycles: 520775325 heartbeat IPC: 0.9033 cumulative IPC: 0.8833 (Simulation time: 01 hr 12 min 41 sec)
Heartbeat CPU 0 instructions: 470000081 cycles: 531839346 heartbeat IPC: 0.9038 cumulative IPC: 0.8837 (Simulation time: 01 hr 14 min 29 sec)
Heartbeat CPU 0 instructions: 480000084 cycles: 542913486 heartbeat IPC: 0.903 cumulative IPC: 0.8841 (Simulation time: 01 hr 16 min 15 sec)
Heartbeat CPU 0 instructions: 490000086 cycles: 553997414 heartbeat IPC: 0.9022 cumulative IPC: 0.8845 (Simulation time: 01 hr 18 min 04 sec)
Heartbeat CPU 0 instructions: 500000089 cycles: 565085621 heartbeat IPC: 0.9019 cumulative IPC: 0.8848 (Simulation time: 01 hr 19 min 24 sec)
Heartbeat CPU 0 instructions: 510000093 cycles: 576152180 heartbeat IPC: 0.9036 cumulative IPC: 0.8852 (Simulation time: 01 hr 21 min 12 sec)
Heartbeat CPU 0 instructions: 520000097 cycles: 587254470 heartbeat IPC: 0.9007 cumulative IPC: 0.8855 (Simulation time: 01 hr 23 min 01 sec)
Heartbeat CPU 0 instructions: 530000097 cycles: 598586972 heartbeat IPC: 0.8824 cumulative IPC: 0.8854 (Simulation time: 01 hr 24 min 37 sec)
Heartbeat CPU 0 instructions: 540000098 cycles: 609791084 heartbeat IPC: 0.8925 cumulative IPC: 0.8855 (Simulation time: 01 hr 26 min 24 sec)
Heartbeat CPU 0 instructions: 550000100 cycles: 620876266 heartbeat IPC: 0.9021 cumulative IPC: 0.8858 (Simulation time: 01 hr 27 min 54 sec)
Heartbeat CPU 0 instructions: 560000101 cycles: 631968812 heartbeat IPC: 0.9015 cumulative IPC: 0.8861 (Simulation time: 01 hr 29 min 18 sec)
Heartbeat CPU 0 instructions: 570000103 cycles: 643047674 heartbeat IPC: 0.9026 cumulative IPC: 0.8864 (Simulation time: 01 hr 30 min 46 sec)
Heartbeat CPU 0 instructions: 580000106 cycles: 654181877 heartbeat IPC: 0.8981 cumulative IPC: 0.8866 (Simulation time: 01 hr 32 min 06 sec)
Heartbeat CPU 0 instructions: 590000109 cycles: 665252042 heartbeat IPC: 0.9033 cumulative IPC: 0.8869 (Simulation time: 01 hr 33 min 17 sec)
Heartbeat CPU 0 instructions: 600000110 cycles: 676331129 heartbeat IPC: 0.9026 cumulative IPC: 0.8871 (Simulation time: 01 hr 35 min 02 sec)
Heartbeat CPU 0 instructions: 610000110 cycles: 687449164 heartbeat IPC: 0.8994 cumulative IPC: 0.8873 (Simulation time: 01 hr 36 min 51 sec)
Heartbeat CPU 0 instructions: 620000110 cycles: 698728103 heartbeat IPC: 0.8866 cumulative IPC: 0.8873 (Simulation time: 01 hr 38 min 43 sec)
Heartbeat CPU 0 instructions: 630000111 cycles: 709930408 heartbeat IPC: 0.8927 cumulative IPC: 0.8874 (Simulation time: 01 hr 40 min 35 sec)
Heartbeat CPU 0 instructions: 640000114 cycles: 721145357 heartbeat IPC: 0.8917 cumulative IPC: 0.8875 (Simulation time: 01 hr 42 min 06 sec)
Heartbeat CPU 0 instructions: 650000116 cycles: 732456764 heartbeat IPC: 0.8841 cumulative IPC: 0.8874 (Simulation time: 01 hr 43 min 54 sec)
Heartbeat CPU 0 instructions: 660000117 cycles: 743738406 heartbeat IPC: 0.8864 cumulative IPC: 0.8874 (Simulation time: 01 hr 45 min 42 sec)
Heartbeat CPU 0 instructions: 670000121 cycles: 755033211 heartbeat IPC: 0.8854 cumulative IPC: 0.8874 (Simulation time: 01 hr 47 min 32 sec)
Heartbeat CPU 0 instructions: 680000125 cycles: 766528680 heartbeat IPC: 0.8699 cumulative IPC: 0.8871 (Simulation time: 01 hr 49 min 24 sec)
Heartbeat CPU 0 instructions: 690000127 cycles: 778293015 heartbeat IPC: 0.85 cumulative IPC: 0.8866 (Simulation time: 01 hr 50 min 58 sec)
Heartbeat CPU 0 instructions: 700000129 cycles: 789242072 heartbeat IPC: 0.9133 cumulative IPC: 0.8869 (Simulation time: 01 hr 52 min 24 sec)
Heartbeat CPU 0 instructions: 710000130 cycles: 800189307 heartbeat IPC: 0.9135 cumulative IPC: 0.8873 (Simulation time: 01 hr 54 min 12 sec)
Heartbeat CPU 0 instructions: 720000131 cycles: 811144457 heartbeat IPC: 0.9128 cumulative IPC: 0.8876 (Simulation time: 01 hr 55 min 57 sec)
Heartbeat CPU 0 instructions: 730000135 cycles: 822123501 heartbeat IPC: 0.9108 cumulative IPC: 0.8879 (Simulation time: 01 hr 57 min 13 sec)
Heartbeat CPU 0 instructions: 740000138 cycles: 833058089 heartbeat IPC: 0.9145 cumulative IPC: 0.8883 (Simulation time: 01 hr 58 min 26 sec)
Heartbeat CPU 0 instructions: 750000138 cycles: 844006028 heartbeat IPC: 0.9134 cumulative IPC: 0.8886 (Simulation time: 01 hr 59 min 53 sec)
Heartbeat CPU 0 instructions: 760000138 cycles: 855060050 heartbeat IPC: 0.9046 cumulative IPC: 0.8888 (Simulation time: 02 hr 01 min 14 sec)
Heartbeat CPU 0 instructions: 770000139 cycles: 866129837 heartbeat IPC: 0.9034 cumulative IPC: 0.889 (Simulation time: 02 hr 02 min 34 sec)
Heartbeat CPU 0 instructions: 780000140 cycles: 878368214 heartbeat IPC: 0.8171 cumulative IPC: 0.888 (Simulation time: 02 hr 04 min 20 sec)
Heartbeat CPU 0 instructions: 790000143 cycles: 890616299 heartbeat IPC: 0.8165 cumulative IPC: 0.887 (Simulation time: 02 hr 06 min 13 sec)
Heartbeat CPU 0 instructions: 800000147 cycles: 902738507 heartbeat IPC: 0.8249 cumulative IPC: 0.8862 (Simulation time: 02 hr 07 min 51 sec)
Heartbeat CPU 0 instructions: 810000147 cycles: 914889606 heartbeat IPC: 0.823 cumulative IPC: 0.8854 (Simulation time: 02 hr 09 min 49 sec)
Heartbeat CPU 0 instructions: 820000150 cycles: 926612399 heartbeat IPC: 0.853 cumulative IPC: 0.8849 (Simulation time: 02 hr 11 min 44 sec)
[ERROR_CYCLE] Error added at CPU cycle 929683228, interval 2, pending count: 1
[DRAM_CYCLE_ERROR] Cycle-based error applied! address=0x8b6355580 additional_latency=1990500 cycles
Heartbeat CPU 0 instructions: 830000150 cycles: 938252199 heartbeat IPC: 0.8591 cumulative IPC: 0.8846 (Simulation time: 02 hr 13 min 38 sec)
Heartbeat CPU 0 instructions: 840000154 cycles: 950075229 heartbeat IPC: 0.8458 cumulative IPC: 0.8841 (Simulation time: 02 hr 15 min 34 sec)
Heartbeat CPU 0 instructions: 850000154 cycles: 961935653 heartbeat IPC: 0.8431 cumulative IPC: 0.8836 (Simulation time: 02 hr 17 min 13 sec)
Heartbeat CPU 0 instructions: 860000157 cycles: 973996931 heartbeat IPC: 0.8291 cumulative IPC: 0.883 (Simulation time: 02 hr 18 min 49 sec)
Heartbeat CPU 0 instructions: 870000160 cycles: 986160387 heartbeat IPC: 0.8221 cumulative IPC: 0.8822 (Simulation time: 02 hr 20 min 47 sec)
Heartbeat CPU 0 instructions: 880000162 cycles: 998401002 heartbeat IPC: 0.817 cumulative IPC: 0.8814 (Simulation time: 02 hr 22 min 30 sec)
Heartbeat CPU 0 instructions: 890000163 cycles: 1010766008 heartbeat IPC: 0.8087 cumulative IPC: 0.8805 (Simulation time: 02 hr 23 min 55 sec)
Heartbeat CPU 0 instructions: 900000165 cycles: 1022924325 heartbeat IPC: 0.8225 cumulative IPC: 0.8798 (Simulation time: 02 hr 25 min 40 sec)
Heartbeat CPU 0 instructions: 910000165 cycles: 1034843572 heartbeat IPC: 0.839 cumulative IPC: 0.8794 (Simulation time: 02 hr 27 min 35 sec)
Heartbeat CPU 0 instructions: 920000167 cycles: 1046574504 heartbeat IPC: 0.8524 cumulative IPC: 0.8791 (Simulation time: 02 hr 29 min 18 sec)
Heartbeat CPU 0 instructions: 930000171 cycles: 1058192748 heartbeat IPC: 0.8607 cumulative IPC: 0.8789 (Simulation time: 02 hr 31 min 00 sec)
Heartbeat CPU 0 instructions: 940000173 cycles: 1069835728 heartbeat IPC: 0.8589 cumulative IPC: 0.8786 (Simulation time: 02 hr 32 min 36 sec)
Heartbeat CPU 0 instructions: 950000173 cycles: 1082030068 heartbeat IPC: 0.8201 cumulative IPC: 0.878 (Simulation time: 02 hr 34 min 14 sec)
Heartbeat CPU 0 instructions: 960000175 cycles: 1094235385 heartbeat IPC: 0.8193 cumulative IPC: 0.8773 (Simulation time: 02 hr 36 min 13 sec)
Heartbeat CPU 0 instructions: 970000177 cycles: 1106389583 heartbeat IPC: 0.8228 cumulative IPC: 0.8767 (Simulation time: 02 hr 38 min 11 sec)
Heartbeat CPU 0 instructions: 980000180 cycles: 1118545731 heartbeat IPC: 0.8226 cumulative IPC: 0.8761 (Simulation time: 02 hr 40 min 08 sec)
Heartbeat CPU 0 instructions: 990000181 cycles: 1130304345 heartbeat IPC: 0.8504 cumulative IPC: 0.8759 (Simulation time: 02 hr 41 min 40 sec)
Heartbeat CPU 0 instructions: 1000000185 cycles: 1141952759 heartbeat IPC: 0.8585 cumulative IPC: 0.8757 (Simulation time: 02 hr 42 min 56 sec)
Heartbeat CPU 0 instructions: 1010000189 cycles: 1153604434 heartbeat IPC: 0.8582 cumulative IPC: 0.8755 (Simulation time: 02 hr 44 min 31 sec)
Heartbeat CPU 0 instructions: 1020000192 cycles: 1165413404 heartbeat IPC: 0.8468 cumulative IPC: 0.8752 (Simulation time: 02 hr 46 min 03 sec)
Heartbeat CPU 0 instructions: 1030000192 cycles: 1178911476 heartbeat IPC: 0.7408 cumulative IPC: 0.8737 (Simulation time: 02 hr 47 min 44 sec)
Heartbeat CPU 0 instructions: 1040000192 cycles: 1191108340 heartbeat IPC: 0.8199 cumulative IPC: 0.8731 (Simulation time: 02 hr 49 min 17 sec)
Heartbeat CPU 0 instructions: 1050000195 cycles: 1202933884 heartbeat IPC: 0.8456 cumulative IPC: 0.8729 (Simulation time: 02 hr 51 min 12 sec)
Heartbeat CPU 0 instructions: 1060000198 cycles: 1214760709 heartbeat IPC: 0.8455 cumulative IPC: 0.8726 (Simulation time: 02 hr 52 min 57 sec)
Heartbeat CPU 0 instructions: 1070000202 cycles: 1226561565 heartbeat IPC: 0.8474 cumulative IPC: 0.8724 (Simulation time: 02 hr 54 min 30 sec)
Heartbeat CPU 0 instructions: 1080000203 cycles: 1238213074 heartbeat IPC: 0.8583 cumulative IPC: 0.8722 (Simulation time: 02 hr 56 min 25 sec)
Heartbeat CPU 0 instructions: 1090000203 cycles: 1249755261 heartbeat IPC: 0.8664 cumulative IPC: 0.8722 (Simulation time: 02 hr 58 min 19 sec)
Heartbeat CPU 0 instructions: 1100000206 cycles: 1261239994 heartbeat IPC: 0.8707 cumulative IPC: 0.8722 (Simulation time: 03 hr 00 min 13 sec)
Heartbeat CPU 0 instructions: 1110000206 cycles: 1272620495 heartbeat IPC: 0.8787 cumulative IPC: 0.8722 (Simulation time: 03 hr 02 min 06 sec)
Heartbeat CPU 0 instructions: 1120000207 cycles: 1284222709 heartbeat IPC: 0.8619 cumulative IPC: 0.8721 (Simulation time: 03 hr 04 min 00 sec)
Heartbeat CPU 0 instructions: 1130000207 cycles: 1296455763 heartbeat IPC: 0.8175 cumulative IPC: 0.8716 (Simulation time: 03 hr 05 min 59 sec)
Heartbeat CPU 0 instructions: 1140000207 cycles: 1308503081 heartbeat IPC: 0.8301 cumulative IPC: 0.8712 (Simulation time: 03 hr 07 min 56 sec)
Heartbeat CPU 0 instructions: 1150000211 cycles: 1320326079 heartbeat IPC: 0.8458 cumulative IPC: 0.871 (Simulation time: 03 hr 09 min 52 sec)
Heartbeat CPU 0 instructions: 1160000211 cycles: 1332152130 heartbeat IPC: 0.8456 cumulative IPC: 0.8708 (Simulation time: 03 hr 11 min 47 sec)
Heartbeat CPU 0 instructions: 1170000214 cycles: 1343622056 heartbeat IPC: 0.8718 cumulative IPC: 0.8708 (Simulation time: 03 hr 13 min 40 sec)
Heartbeat CPU 0 instructions: 1180000217 cycles: 1355150152 heartbeat IPC: 0.8674 cumulative IPC: 0.8708 (Simulation time: 03 hr 15 min 35 sec)
Heartbeat CPU 0 instructions: 1190000217 cycles: 1366680413 heartbeat IPC: 0.8673 cumulative IPC: 0.8707 (Simulation time: 03 hr 17 min 28 sec)
Heartbeat CPU 0 instructions: 1200000221 cycles: 1378049041 heartbeat IPC: 0.8796 cumulative IPC: 0.8708 (Simulation time: 03 hr 18 min 46 sec)
Heartbeat CPU 0 instructions: 1210000222 cycles: 1389569504 heartbeat IPC: 0.868 cumulative IPC: 0.8708 (Simulation time: 03 hr 20 min 07 sec)
[ERROR_CYCLE] Error added at CPU cycle 1394524842, interval 3, pending count: 1
[DRAM_CYCLE_ERROR] Cycle-based error applied! address=0xe42738d40 additional_latency=1990500 cycles
Heartbeat CPU 0 instructions: 1220000224 cycles: 1401427381 heartbeat IPC: 0.8433 cumulative IPC: 0.8705 (Simulation time: 03 hr 21 min 25 sec)
Heartbeat CPU 0 instructions: 1230000227 cycles: 1413285687 heartbeat IPC: 0.8433 cumulative IPC: 0.8703 (Simulation time: 03 hr 22 min 42 sec)
Heartbeat CPU 0 instructions: 1240000227 cycles: 1425139965 heartbeat IPC: 0.8436 cumulative IPC: 0.8701 (Simulation time: 03 hr 24 min 28 sec)
Heartbeat CPU 0 instructions: 1250000230 cycles: 1436986151 heartbeat IPC: 0.8442 cumulative IPC: 0.8699 (Simulation time: 03 hr 26 min 25 sec)
Heartbeat CPU 0 instructions: 1260000230 cycles: 1448606178 heartbeat IPC: 0.8606 cumulative IPC: 0.8698 (Simulation time: 03 hr 28 min 20 sec)
Heartbeat CPU 0 instructions: 1270000230 cycles: 1460164586 heartbeat IPC: 0.8652 cumulative IPC: 0.8698 (Simulation time: 03 hr 30 min 13 sec)
Heartbeat CPU 0 instructions: 1280000234 cycles: 1471539834 heartbeat IPC: 0.8791 cumulative IPC: 0.8698 (Simulation time: 03 hr 32 min 06 sec)
Heartbeat CPU 0 instructions: 1290000237 cycles: 1482860252 heartbeat IPC: 0.8834 cumulative IPC: 0.8699 (Simulation time: 03 hr 33 min 58 sec)
Heartbeat CPU 0 instructions: 1300000239 cycles: 1510576175 heartbeat IPC: 0.3608 cumulative IPC: 0.8606 (Simulation time: 03 hr 38 min 35 sec)
Heartbeat CPU 0 instructions: 1310000242 cycles: 1523191563 heartbeat IPC: 0.7927 cumulative IPC: 0.86 (Simulation time: 03 hr 40 min 28 sec)
Heartbeat CPU 0 instructions: 1320000244 cycles: 1535136190 heartbeat IPC: 0.8372 cumulative IPC: 0.8599 (Simulation time: 03 hr 42 min 18 sec)
Heartbeat CPU 0 instructions: 1330000244 cycles: 1546978300 heartbeat IPC: 0.8444 cumulative IPC: 0.8597 (Simulation time: 03 hr 44 min 08 sec)
Heartbeat CPU 0 instructions: 1340000246 cycles: 1558941834 heartbeat IPC: 0.8359 cumulative IPC: 0.8596 (Simulation time: 03 hr 45 min 58 sec)
Heartbeat CPU 0 instructions: 1350000247 cycles: 1570931967 heartbeat IPC: 0.834 cumulative IPC: 0.8594 (Simulation time: 03 hr 47 min 49 sec)
Heartbeat CPU 0 instructions: 1360000247 cycles: 1582537819 heartbeat IPC: 0.8616 cumulative IPC: 0.8594 (Simulation time: 03 hr 49 min 37 sec)
Heartbeat CPU 0 instructions: 1370000247 cycles: 1593895743 heartbeat IPC: 0.8804 cumulative IPC: 0.8595 (Simulation time: 03 hr 51 min 20 sec)
Heartbeat CPU 0 instructions: 1380000250 cycles: 1605588503 heartbeat IPC: 0.8552 cumulative IPC: 0.8595 (Simulation time: 03 hr 52 min 58 sec)
Heartbeat CPU 0 instructions: 1390000250 cycles: 1617376592 heartbeat IPC: 0.8483 cumulative IPC: 0.8594 (Simulation time: 03 hr 54 min 43 sec)
Heartbeat CPU 0 instructions: 1400000254 cycles: 1629251596 heartbeat IPC: 0.8421 cumulative IPC: 0.8593 (Simulation time: 03 hr 56 min 33 sec)
Heartbeat CPU 0 instructions: 1410000254 cycles: 1641378508 heartbeat IPC: 0.8246 cumulative IPC: 0.859 (Simulation time: 03 hr 58 min 03 sec)
Heartbeat CPU 0 instructions: 1420000257 cycles: 1653811855 heartbeat IPC: 0.8043 cumulative IPC: 0.8586 (Simulation time: 03 hr 59 min 32 sec)
Heartbeat CPU 0 instructions: 1430000257 cycles: 1666098892 heartbeat IPC: 0.8139 cumulative IPC: 0.8583 (Simulation time: 04 hr 01 min 03 sec)
Heartbeat CPU 0 instructions: 1440000259 cycles: 1678264341 heartbeat IPC: 0.822 cumulative IPC: 0.858 (Simulation time: 04 hr 02 min 31 sec)
Heartbeat CPU 0 instructions: 1450000263 cycles: 1690062603 heartbeat IPC: 0.8476 cumulative IPC: 0.858 (Simulation time: 04 hr 04 min 17 sec)
Heartbeat CPU 0 instructions: 1460000267 cycles: 1701926194 heartbeat IPC: 0.8429 cumulative IPC: 0.8579 (Simulation time: 04 hr 06 min 05 sec)
Heartbeat CPU 0 instructions: 1470000271 cycles: 1713784341 heartbeat IPC: 0.8433 cumulative IPC: 0.8578 (Simulation time: 04 hr 07 min 40 sec)
Heartbeat CPU 0 instructions: 1480000273 cycles: 1725537845 heartbeat IPC: 0.8508 cumulative IPC: 0.8577 (Simulation time: 04 hr 09 min 27 sec)
Heartbeat CPU 0 instructions: 1490000275 cycles: 1737265231 heartbeat IPC: 0.8527 cumulative IPC: 0.8577 (Simulation time: 04 hr 11 min 16 sec)
Heartbeat CPU 0 instructions: 1500000277 cycles: 1748623822 heartbeat IPC: 0.8804 cumulative IPC: 0.8578 (Simulation time: 04 hr 13 min 02 sec)
Heartbeat CPU 0 instructions: 1510000281 cycles: 1760195725 heartbeat IPC: 0.8642 cumulative IPC: 0.8579 (Simulation time: 04 hr 14 min 48 sec)
Heartbeat CPU 0 instructions: 1520000284 cycles: 1772013907 heartbeat IPC: 0.8462 cumulative IPC: 0.8578 (Simulation time: 04 hr 16 min 26 sec)
Heartbeat CPU 0 instructions: 1530000287 cycles: 1783854997 heartbeat IPC: 0.8445 cumulative IPC: 0.8577 (Simulation time: 04 hr 17 min 50 sec)
Heartbeat CPU 0 instructions: 1540000291 cycles: 1795777233 heartbeat IPC: 0.8388 cumulative IPC: 0.8576 (Simulation time: 04 hr 19 min 12 sec)
Heartbeat CPU 0 instructions: 1550000292 cycles: 1807974499 heartbeat IPC: 0.8199 cumulative IPC: 0.8573 (Simulation time: 04 hr 20 min 59 sec)
Heartbeat CPU 0 instructions: 1560000294 cycles: 1820132996 heartbeat IPC: 0.8225 cumulative IPC: 0.8571 (Simulation time: 04 hr 22 min 23 sec)
Heartbeat CPU 0 instructions: 1570000296 cycles: 1832199877 heartbeat IPC: 0.8287 cumulative IPC: 0.8569 (Simulation time: 04 hr 23 min 39 sec)
Heartbeat CPU 0 instructions: 1580000296 cycles: 1844102006 heartbeat IPC: 0.8402 cumulative IPC: 0.8568 (Simulation time: 04 hr 24 min 51 sec)
Heartbeat CPU 0 instructions: 1590000297 cycles: 1855979474 heartbeat IPC: 0.8419 cumulative IPC: 0.8567 (Simulation time: 04 hr 26 min 09 sec)
[ERROR_CYCLE] Error added at CPU cycle 1859366456, interval 4, pending count: 1
[DRAM_CYCLE_ERROR] Cycle-based error applied! address=0xbe5bc41c0 additional_latency=1990500 cycles
Heartbeat CPU 0 instructions: 1600000297 cycles: 1867839843 heartbeat IPC: 0.8431 cumulative IPC: 0.8566 (Simulation time: 04 hr 27 min 47 sec)
Heartbeat CPU 0 instructions: 1610000298 cycles: 1879675176 heartbeat IPC: 0.8449 cumulative IPC: 0.8565 (Simulation time: 04 hr 29 min 03 sec)
Heartbeat CPU 0 instructions: 1620000299 cycles: 1891495205 heartbeat IPC: 0.846 cumulative IPC: 0.8565 (Simulation time: 04 hr 30 min 28 sec)
Heartbeat CPU 0 instructions: 1630000300 cycles: 1903004664 heartbeat IPC: 0.8689 cumulative IPC: 0.8565 (Simulation time: 04 hr 31 min 39 sec)
Heartbeat CPU 0 instructions: 1640000304 cycles: 1914552558 heartbeat IPC: 0.866 cumulative IPC: 0.8566 (Simulation time: 04 hr 33 min 18 sec)
Heartbeat CPU 0 instructions: 1650000308 cycles: 1926394404 heartbeat IPC: 0.8445 cumulative IPC: 0.8565 (Simulation time: 04 hr 34 min 40 sec)
Heartbeat CPU 0 instructions: 1660000310 cycles: 1938111222 heartbeat IPC: 0.8535 cumulative IPC: 0.8565 (Simulation time: 04 hr 35 min 52 sec)
Heartbeat CPU 0 instructions: 1670000310 cycles: 1949740507 heartbeat IPC: 0.8599 cumulative IPC: 0.8565 (Simulation time: 04 hr 37 min 14 sec)
Heartbeat CPU 0 instructions: 1680000314 cycles: 1961970656 heartbeat IPC: 0.8177 cumulative IPC: 0.8563 (Simulation time: 04 hr 39 min 04 sec)
Heartbeat CPU 0 instructions: 1690000317 cycles: 1974397533 heartbeat IPC: 0.8047 cumulative IPC: 0.856 (Simulation time: 04 hr 40 min 57 sec)
Heartbeat CPU 0 instructions: 1700000317 cycles: 1986499004 heartbeat IPC: 0.8263 cumulative IPC: 0.8558 (Simulation time: 04 hr 42 min 47 sec)
Heartbeat CPU 0 instructions: 1710000317 cycles: 1998467463 heartbeat IPC: 0.8355 cumulative IPC: 0.8557 (Simulation time: 04 hr 44 min 26 sec)
Heartbeat CPU 0 instructions: 1720000319 cycles: 2010249326 heartbeat IPC: 0.8488 cumulative IPC: 0.8556 (Simulation time: 04 hr 45 min 51 sec)
Heartbeat CPU 0 instructions: 1730000322 cycles: 2022160062 heartbeat IPC: 0.8396 cumulative IPC: 0.8555 (Simulation time: 04 hr 47 min 05 sec)
Heartbeat CPU 0 instructions: 1740000325 cycles: 2034151165 heartbeat IPC: 0.834 cumulative IPC: 0.8554 (Simulation time: 04 hr 48 min 40 sec)
Heartbeat CPU 0 instructions: 1750000327 cycles: 2045972589 heartbeat IPC: 0.8459 cumulative IPC: 0.8553 (Simulation time: 04 hr 50 min 27 sec)
Heartbeat CPU 0 instructions: 1760000330 cycles: 2057665462 heartbeat IPC: 0.8552 cumulative IPC: 0.8553 (Simulation time: 04 hr 52 min 13 sec)
Heartbeat CPU 0 instructions: 1770000330 cycles: 2069093468 heartbeat IPC: 0.875 cumulative IPC: 0.8554 (Simulation time: 04 hr 53 min 54 sec)
Heartbeat CPU 0 instructions: 1780000334 cycles: 2080836408 heartbeat IPC: 0.8516 cumulative IPC: 0.8554 (Simulation time: 04 hr 55 min 30 sec)
Heartbeat CPU 0 instructions: 1790000338 cycles: 2092700676 heartbeat IPC: 0.8429 cumulative IPC: 0.8554 (Simulation time: 04 hr 57 min 03 sec)
Heartbeat CPU 0 instructions: 1800000338 cycles: 2104271303 heartbeat IPC: 0.8643 cumulative IPC: 0.8554 (Simulation time: 04 hr 58 min 20 sec)
Heartbeat CPU 0 instructions: 1810000342 cycles: 2116092494 heartbeat IPC: 0.8459 cumulative IPC: 0.8554 (Simulation time: 04 hr 59 min 40 sec)
Heartbeat CPU 0 instructions: 1820000345 cycles: 2128417890 heartbeat IPC: 0.8113 cumulative IPC: 0.8551 (Simulation time: 05 hr 01 min 00 sec)
Heartbeat CPU 0 instructions: 1830000346 cycles: 2140613832 heartbeat IPC: 0.8199 cumulative IPC: 0.8549 (Simulation time: 05 hr 02 min 33 sec)
Heartbeat CPU 0 instructions: 1840000350 cycles: 2152680481 heartbeat IPC: 0.8287 cumulative IPC: 0.8547 (Simulation time: 05 hr 04 min 22 sec)
Heartbeat CPU 0 instructions: 1850000350 cycles: 2164495751 heartbeat IPC: 0.8464 cumulative IPC: 0.8547 (Simulation time: 05 hr 06 min 09 sec)
Heartbeat CPU 0 instructions: 1860000353 cycles: 2176290947 heartbeat IPC: 0.8478 cumulative IPC: 0.8547 (Simulation time: 05 hr 07 min 25 sec)
Heartbeat CPU 0 instructions: 1870000354 cycles: 2188110454 heartbeat IPC: 0.8461 cumulative IPC: 0.8546 (Simulation time: 05 hr 08 min 50 sec)
Heartbeat CPU 0 instructions: 1880000355 cycles: 2199968191 heartbeat IPC: 0.8433 cumulative IPC: 0.8546 (Simulation time: 05 hr 10 min 00 sec)
Heartbeat CPU 0 instructions: 1890000356 cycles: 2211939410 heartbeat IPC: 0.8353 cumulative IPC: 0.8545 (Simulation time: 05 hr 11 min 20 sec)
Heartbeat CPU 0 instructions: 1900000358 cycles: 2223560706 heartbeat IPC: 0.8605 cumulative IPC: 0.8545 (Simulation time: 05 hr 12 min 38 sec)
Heartbeat CPU 0 instructions: 1910000358 cycles: 2235102423 heartbeat IPC: 0.8664 cumulative IPC: 0.8545 (Simulation time: 05 hr 14 min 07 sec)
Heartbeat CPU 0 instructions: 1920000360 cycles: 2246842619 heartbeat IPC: 0.8518 cumulative IPC: 0.8545 (Simulation time: 05 hr 15 min 53 sec)
Heartbeat CPU 0 instructions: 1930000361 cycles: 2258600992 heartbeat IPC: 0.8505 cumulative IPC: 0.8545 (Simulation time: 05 hr 17 min 29 sec)
Heartbeat CPU 0 instructions: 1940000361 cycles: 2270275642 heartbeat IPC: 0.8566 cumulative IPC: 0.8545 (Simulation time: 05 hr 19 min 00 sec)
Heartbeat CPU 0 instructions: 1950000362 cycles: 2282498059 heartbeat IPC: 0.8182 cumulative IPC: 0.8543 (Simulation time: 05 hr 20 min 48 sec)
Heartbeat CPU 0 instructions: 1960000363 cycles: 2294836554 heartbeat IPC: 0.8105 cumulative IPC: 0.8541 (Simulation time: 05 hr 22 min 34 sec)
Heartbeat CPU 0 instructions: 1970000364 cycles: 2306965917 heartbeat IPC: 0.8244 cumulative IPC: 0.8539 (Simulation time: 05 hr 24 min 08 sec)
Heartbeat CPU 0 instructions: 1980000368 cycles: 2318895520 heartbeat IPC: 0.8383 cumulative IPC: 0.8539 (Simulation time: 05 hr 25 min 58 sec)
[ERROR_CYCLE] Error added at CPU cycle 2324208070, interval 5, pending count: 1
[DRAM_CYCLE_ERROR] Cycle-based error applied! address=0x5e8bd9d40 additional_latency=1990500 cycles
Heartbeat CPU 0 instructions: 1990000369 cycles: 2330684811 heartbeat IPC: 0.8482 cumulative IPC: 0.8538 (Simulation time: 05 hr 27 min 47 sec)

=== ERROR PAGE STATISTICS ===
Mode: CYCLE
Error Cycle Interval: 464841614 CPU cycles
Total Error Accesses: 5
==============================
Simulation finished CPU 0 instructions: 1999999509 cycles: 2342475413 cumulative IPC: 0.8538 (Simulation time: 05 hr 29 min 09 sec)
Simulation complete CPU 0 instructions: 1999999509 cycles: 2342475413 cumulative IPC: 0.8538 (Simulation time: 05 hr 29 min 09 sec)

ChampSim completed all CPUs

=== Simulation ===
CPU 0 runs test_traces/649.fotonik3d_s-10881B.champsimtrace.xz

Region of Interest Statistics

CPU 0 cumulative IPC: 0.8538 instructions: 1999999509 cycles: 2342475413
CPU 0 Branch Prediction Accuracy: 97.24% MPKI: 0.2738 Average ROB Occupancy at Mispredict: 264.7
Branch type MPKI
BRANCH_DIRECT_JUMP: 5.5e-06
BRANCH_INDIRECT: 0
BRANCH_CONDITIONAL: 0.2738
BRANCH_DIRECT_CALL: 5e-07
BRANCH_INDIRECT_CALL: 0
BRANCH_RETURN: 5e-07

cpu0->cpu0_STLB TOTAL        ACCESS:       9681 HIT:       6303 MISS:       3378 MSHR_MERGE:          0
cpu0->cpu0_STLB LOAD         ACCESS:       9681 HIT:       6303 MISS:       3378 MSHR_MERGE:          0
cpu0->cpu0_STLB RFO          ACCESS:          0 HIT:          0 MISS:          0 MSHR_MERGE:          0
cpu0->cpu0_STLB PREFETCH     ACCESS:          0 HIT:          0 MISS:          0 MSHR_MERGE:          0
cpu0->cpu0_STLB WRITE        ACCESS:          0 HIT:          0 MISS:          0 MSHR_MERGE:          0
cpu0->cpu0_STLB TRANSLATION  ACCESS:          0 HIT:          0 MISS:          0 MSHR_MERGE:          0
cpu0->cpu0_STLB PREFETCH REQUESTED:          0 ISSUED:          0 USEFUL:          0 USELESS:          0
cpu0->cpu0_STLB AVERAGE MISS LATENCY: 5132 cycles
cpu0->cpu0_L2C TOTAL        ACCESS:   51671920 HIT:   16906018 MISS:   34765902 MSHR_MERGE:          0
cpu0->cpu0_L2C LOAD         ACCESS:   36315929 HIT:    1550632 MISS:   34765297 MSHR_MERGE:          0
cpu0->cpu0_L2C RFO          ACCESS:       2041 HIT:       1993 MISS:         48 MSHR_MERGE:          0
cpu0->cpu0_L2C PREFETCH     ACCESS:          0 HIT:          0 MISS:          0 MSHR_MERGE:          0
cpu0->cpu0_L2C WRITE        ACCESS:   15353950 HIT:   15353393 MISS:        557 MSHR_MERGE:          0
cpu0->cpu0_L2C TRANSLATION  ACCESS:          0 HIT:          0 MISS:          0 MSHR_MERGE:          0
cpu0->cpu0_L2C PREFETCH REQUESTED:          0 ISSUED:          0 USEFUL:          0 USELESS:          0
cpu0->cpu0_L2C AVERAGE MISS LATENCY: 113.5 cycles
cpu0->cpu0_L1I TOTAL        ACCESS:  493822541 HIT:  493821600 MISS:        941 MSHR_MERGE:        402
cpu0->cpu0_L1I LOAD         ACCESS:  493822541 HIT:  493821600 MISS:        941 MSHR_MERGE:        402
cpu0->cpu0_L1I RFO          ACCESS:          0 HIT:          0 MISS:          0 MSHR_MERGE:          0
cpu0->cpu0_L1I PREFETCH     ACCESS:          0 HIT:          0 MISS:          0 MSHR_MERGE:          0
cpu0->cpu0_L1I WRITE        ACCESS:          0 HIT:          0 MISS:          0 MSHR_MERGE:          0
cpu0->cpu0_L1I TRANSLATION  ACCESS:          0 HIT:          0 MISS:          0 MSHR_MERGE:          0
cpu0->cpu0_L1I PREFETCH REQUESTED:          0 ISSUED:          0 USEFUL:          0 USELESS:          0
cpu0->cpu0_L1I AVERAGE MISS LATENCY: 136 cycles
cpu0->cpu0_L1D TOTAL        ACCESS:  962465286 HIT:  917671747 MISS:   44793539 MSHR_MERGE:    8476095
cpu0->cpu0_L1D LOAD         ACCESS:  844827844 HIT:  800037979 MISS:   44789865 MSHR_MERGE:    8474474
cpu0->cpu0_L1D RFO          ACCESS:          0 HIT:          0 MISS:          0 MSHR_MERGE:          0
cpu0->cpu0_L1D PREFETCH     ACCESS:          0 HIT:          0 MISS:          0 MSHR_MERGE:          0
cpu0->cpu0_L1D WRITE        ACCESS:  117637442 HIT:  117633768 MISS:       3674 MSHR_MERGE:       1621
cpu0->cpu0_L1D TRANSLATION  ACCESS:          0 HIT:          0 MISS:          0 MSHR_MERGE:          0
cpu0->cpu0_L1D PREFETCH REQUESTED:          0 ISSUED:          0 USEFUL:          0 USELESS:          0
cpu0->cpu0_L1D AVERAGE MISS LATENCY: 117.6 cycles
cpu0->cpu0_ITLB TOTAL        ACCESS:  425546292 HIT:  425546286 MISS:          6 MSHR_MERGE:          5
cpu0->cpu0_ITLB LOAD         ACCESS:  425546292 HIT:  425546286 MISS:          6 MSHR_MERGE:          5
cpu0->cpu0_ITLB RFO          ACCESS:          0 HIT:          0 MISS:          0 MSHR_MERGE:          0
cpu0->cpu0_ITLB PREFETCH     ACCESS:          0 HIT:          0 MISS:          0 MSHR_MERGE:          0
cpu0->cpu0_ITLB WRITE        ACCESS:          0 HIT:          0 MISS:          0 MSHR_MERGE:          0
cpu0->cpu0_ITLB TRANSLATION  ACCESS:          0 HIT:          0 MISS:          0 MSHR_MERGE:          0
cpu0->cpu0_ITLB PREFETCH REQUESTED:          0 ISSUED:          0 USEFUL:          0 USELESS:          0
cpu0->cpu0_ITLB AVERAGE MISS LATENCY: 1.722e+04 cycles
cpu0->cpu0_DTLB TOTAL        ACCESS:  877914875 HIT:  877902467 MISS:      12408 MSHR_MERGE:       2728
cpu0->cpu0_DTLB LOAD         ACCESS:  877914875 HIT:  877902467 MISS:      12408 MSHR_MERGE:       2728
cpu0->cpu0_DTLB RFO          ACCESS:          0 HIT:          0 MISS:          0 MSHR_MERGE:          0
cpu0->cpu0_DTLB PREFETCH     ACCESS:          0 HIT:          0 MISS:          0 MSHR_MERGE:          0
cpu0->cpu0_DTLB WRITE        ACCESS:          0 HIT:          0 MISS:          0 MSHR_MERGE:          0
cpu0->cpu0_DTLB TRANSLATION  ACCESS:          0 HIT:          0 MISS:          0 MSHR_MERGE:          0
cpu0->cpu0_DTLB PREFETCH REQUESTED:          0 ISSUED:          0 USEFUL:          0 USELESS:          0
cpu0->cpu0_DTLB AVERAGE MISS LATENCY: 1794 cycles
cpu0->LLC TOTAL        ACCESS:   50113133 HIT:   17950294 MISS:   32162839 MSHR_MERGE:          0
cpu0->LLC LOAD         ACCESS:   34765297 HIT:    2602837 MISS:   32162460 MSHR_MERGE:          0
cpu0->LLC RFO          ACCESS:         48 HIT:         22 MISS:         26 MSHR_MERGE:          0
cpu0->LLC PREFETCH     ACCESS:          0 HIT:          0 MISS:          0 MSHR_MERGE:          0
cpu0->LLC WRITE        ACCESS:   15347788 HIT:   15347435 MISS:        353 MSHR_MERGE:          0
cpu0->LLC TRANSLATION  ACCESS:          0 HIT:          0 MISS:          0 MSHR_MERGE:          0
cpu0->LLC PREFETCH REQUESTED:          0 ISSUED:          0 USEFUL:          0 USELESS:          0
cpu0->LLC AVERAGE MISS LATENCY: 105.4 cycles

DRAM Statistics

Channel 0 RQ ROW_BUFFER_HIT:     253787
  ROW_BUFFER_MISS:   15830564
  AVG DBUS CONGESTED CYCLE: 11.54
Channel 0 WQ ROW_BUFFER_HIT:    1796182
  ROW_BUFFER_MISS:    5873390
  FULL:          0
Channel 0 REFRESHES ISSUED:     195193

Channel 1 RQ ROW_BUFFER_HIT:     253403
  ROW_BUFFER_MISS:   15831361
  AVG DBUS CONGESTED CYCLE: 11.53
Channel 1 WQ ROW_BUFFER_HIT:    1790246
  ROW_BUFFER_MISS:    5879656
  FULL:          0
Channel 1 REFRESHES ISSUED:     195193
