
*** ChampSim Multicore Out-of-Order Simulator ***
Warmup Instructions: 0
Simulation Instructions: 9223372036854775807
Number of CPUs: 1
Page size: 1048576

Off-chip DRAM Size: 128 GiB Channels: 2 Width: 32-bit Data Rate: 4807 MT/s
[ERROR_PAGE_MANAGER] Error latency: 0 
[ERROR_PAGE_MANAGER] Random seed: 54321 (fixed for preload reproducibility)
[ERROR_PAGE_MANAGER] Error pages off

=== ERROR PAGE STATISTICS ===
Mode: OFF
Total Error Accesses: 0
==============================
Warmup finished CPU 0 instructions: 0 cycles: 1 cumulative IPC: 0 (Simulation time: 00 hr 00 min 00 sec)
Warmup complete CPU 0 instructions: 0 cycles: 1 cumulative IPC: 0 (Simulation time: 00 hr 00 min 00 sec)
Simulation CPU 0 panic: IPC 0 < 0.01
Simulation CPU 0 panic: IPC 0 < 0.01
Simulation CPU 0 panic: IPC 0 < 0.01
Simulation CPU 0 panic: IPC 5e-07 < 0.01
Simulation CPU 0 panic: IPC 1.1e-06 < 0.01
Simulation CPU 0 panic: IPC 0 < 0.01
Simulation CPU 0 panic: IPC 8e-06 < 0.01
Simulation CPU 0 panic: IPC 4.54e-05 < 0.01
Simulation CPU 0 panic: IPC 0.0001128 < 0.01
Simulation CPU 0 panic: IPC 0.0001051 < 0.01
Simulation CPU 0 panic: IPC 0.0026152 < 0.01
Simulation CPU 0 panic: IPC 3.34e-05 < 0.01
Simulation CPU 0 panic: IPC 0.0010197 < 0.01
Simulation CPU 0 panic: IPC 7e-06 < 0.01
Simulation CPU 0 panic: IPC 6.5e-06 < 0.01
Simulation CPU 0 panic: IPC 2.05e-05 < 0.01
Simulation CPU 0 panic: IPC 1.14e-05 < 0.01
Simulation CPU 0 panic: IPC 2.72e-05 < 0.01
Simulation CPU 0 panic: IPC 0.00025 < 0.01
Simulation CPU 0 panic: IPC 0.0001349 < 0.01
Simulation CPU 0 panic: IPC 0 < 0.01
Simulation CPU 0 panic: IPC 0.0004092 < 0.01
Simulation CPU 0 panic: IPC 0.000361 < 0.01
Simulation CPU 0 panic: IPC 0.0001798 < 0.01
Simulation CPU 0 panic: IPC 0.0005803 < 0.01
Simulation CPU 0 warning: IPC 0.026295 < 0.05
Simulation CPU 0 panic: IPC 4.9e-06 < 0.01
Simulation CPU 0 panic: IPC 4.4e-06 < 0.01
Simulation CPU 0 panic: IPC 1.52e-05 < 0.01
Simulation CPU 0 panic: IPC 7.6e-06 < 0.01
Simulation CPU 0 panic: IPC 7.1e-06 < 0.01
Simulation CPU 0 panic: IPC 1.75e-05 < 0.01
Simulation CPU 0 panic: IPC 1e-05 < 0.01
Simulation CPU 0 panic: IPC 4.3e-06 < 0.01
Simulation CPU 0 panic: IPC 9.6e-06 < 0.01
Simulation CPU 0 panic: IPC 2.45e-05 < 0.01
Simulation CPU 0 panic: IPC 2.87e-05 < 0.01
Simulation CPU 0 panic: IPC 1.96e-05 < 0.01
Simulation CPU 0 panic: IPC 4.6e-06 < 0.01
Simulation CPU 0 panic: IPC 1.42e-05 < 0.01
Simulation CPU 0 panic: IPC 1.24e-05 < 0.01
Simulation CPU 0 panic: IPC 3e-05 < 0.01
Simulation CPU 0 panic: IPC 5.34e-05 < 0.01
Simulation CPU 0 panic: IPC 3.88e-05 < 0.01
Simulation CPU 0 panic: IPC 2.17e-05 < 0.01
Simulation CPU 0 panic: IPC 3.42e-05 < 0.01
Simulation CPU 0 panic: IPC 6.8e-06 < 0.01
Simulation CPU 0 panic: IPC 4.24e-05 < 0.01
Simulation CPU 0 panic: IPC 5.63e-05 < 0.01
Simulation CPU 0 panic: IPC 4.17e-05 < 0.01
Simulation CPU 0 panic: IPC 1.71e-05 < 0.01
Simulation CPU 0 panic: IPC 1.43e-05 < 0.01
Simulation CPU 0 panic: IPC 5.89e-05 < 0.01
Simulation CPU 0 panic: IPC 6.6e-06 < 0.01
Simulation CPU 0 panic: IPC 1.53e-05 < 0.01
Simulation CPU 0 panic: IPC 1.18e-05 < 0.01
Simulation CPU 0 panic: IPC 0.0001261 < 0.01
Simulation CPU 0 panic: IPC 2.42e-05 < 0.01
Simulation CPU 0 panic: IPC 0.0001872 < 0.01
Simulation CPU 0 panic: IPC 7.6e-06 < 0.01
Simulation CPU 0 panic: IPC 5.06e-05 < 0.01
Simulation CPU 0 panic: IPC 0.0001728 < 0.01
Simulation CPU 0 panic: IPC 0.0001305 < 0.01
Simulation CPU 0 panic: IPC 6.93e-05 < 0.01
Simulation CPU 0 panic: IPC 8.56e-05 < 0.01
Simulation CPU 0 panic: IPC 0 < 0.01
Simulation CPU 0 panic: IPC 0.0001422 < 0.01
Simulation CPU 0 panic: IPC 0.0002701 < 0.01
Simulation CPU 0 panic: IPC 9.4e-06 < 0.01
Simulation CPU 0 panic: IPC 4.54e-05 < 0.01
Simulation CPU 0 panic: IPC 7.23e-05 < 0.01
Simulation CPU 0 panic: IPC 2.85e-05 < 0.01
Simulation CPU 0 panic: IPC 3.84e-05 < 0.01
Simulation CPU 0 panic: IPC 1.47e-05 < 0.01
Simulation CPU 0 panic: IPC 0.0002031 < 0.01
Simulation CPU 0 panic: IPC 0.0001284 < 0.01
Simulation CPU 0 panic: IPC 0.0002105 < 0.01
Simulation CPU 0 panic: IPC 0.0007568 < 0.01
Simulation CPU 0 panic: IPC 9.6e-05 < 0.01
Simulation CPU 0 panic: IPC 0.0002754 < 0.01
Simulation CPU 0 panic: IPC 9.35e-05 < 0.01
Simulation CPU 0 panic: IPC 0.0002402 < 0.01
Simulation CPU 0 panic: IPC 7.99e-05 < 0.01
Simulation CPU 0 panic: IPC 8.3e-05 < 0.01
Simulation CPU 0 panic: IPC 0.0001353 < 0.01
Simulation CPU 0 panic: IPC 0.0005871 < 0.01
Simulation CPU 0 panic: IPC 1.46e-05 < 0.01
Simulation CPU 0 panic: IPC 0.0003208 < 0.01
Simulation CPU 0 panic: IPC 0.0003422 < 0.01
Simulation CPU 0 panic: IPC 0.0001082 < 0.01
Simulation CPU 0 panic: IPC 9.6e-06 < 0.01
Simulation CPU 0 panic: IPC 0.0001903 < 0.01
Simulation CPU 0 panic: IPC 0.0006171 < 0.01
Simulation CPU 0 panic: IPC 0.0001232 < 0.01
Simulation CPU 0 panic: IPC 0.0010295 < 0.01
Simulation CPU 0 panic: IPC 0.0008541 < 0.01
Simulation CPU 0 panic: IPC 0.0006314 < 0.01
Simulation CPU 0 panic: IPC 0.0001833 < 0.01
Simulation CPU 0 panic: IPC 0.0001434 < 0.01
Simulation CPU 0 panic: IPC 4.77e-05 < 0.01
Simulation CPU 0 panic: IPC 0.0008204 < 0.01
Simulation CPU 0 panic: IPC 1.22e-05 < 0.01
Simulation CPU 0 panic: IPC 0.0001603 < 0.01
Simulation CPU 0 panic: IPC 0.0001364 < 0.01
Simulation CPU 0 panic: IPC 0.0009266 < 0.01
Simulation CPU 0 panic: IPC 0.0004779 < 0.01
Simulation CPU 0 panic: IPC 0.0005578 < 0.01
Simulation CPU 0 panic: IPC 7.93e-05 < 0.01
Simulation CPU 0 panic: IPC 0.000243 < 0.01
Simulation CPU 0 panic: IPC 0.0002813 < 0.01
Simulation CPU 0 panic: IPC 5.3e-06 < 0.01
Simulation CPU 0 panic: IPC 0.0004785 < 0.01
Simulation CPU 0 panic: IPC 0.0005448 < 0.01
Simulation CPU 0 panic: IPC 0.0004207 < 0.01
Simulation CPU 0 panic: IPC 0.0004945 < 0.01
Simulation CPU 0 panic: IPC 0.0003328 < 0.01
Simulation CPU 0 panic: IPC 0.0009242 < 0.01
Simulation CPU 0 panic: IPC 0.0010043 < 0.01
Simulation CPU 0 panic: IPC 0.0001551 < 0.01
Simulation CPU 0 panic: IPC 0.0002527 < 0.01
Simulation CPU 0 panic: IPC 0.0006688 < 0.01
Simulation CPU 0 panic: IPC 4.36e-05 < 0.01
Simulation CPU 0 panic: IPC 0.0008939 < 0.01
Simulation CPU 0 panic: IPC 2e-07 < 0.01
Simulation CPU 0 panic: IPC 1.12e-05 < 0.01
Simulation CPU 0 panic: IPC 2.01e-05 < 0.01
Simulation CPU 0 panic: IPC 7.1e-06 < 0.01
Simulation CPU 0 panic: IPC 5.1e-06 < 0.01
Simulation CPU 0 panic: IPC 6.6e-06 < 0.01
Simulation CPU 0 panic: IPC 4.6e-06 < 0.01
Simulation CPU 0 panic: IPC 9.2e-06 < 0.01
Simulation CPU 0 panic: IPC 7.4e-06 < 0.01
Simulation CPU 0 panic: IPC 9.4e-06 < 0.01
Simulation CPU 0 panic: IPC 7.1e-06 < 0.01
Simulation CPU 0 panic: IPC 2.5e-06 < 0.01
Simulation CPU 0 panic: IPC 6.6e-06 < 0.01
Simulation CPU 0 panic: IPC 2.18e-05 < 0.01
Simulation CPU 0 panic: IPC 1.14e-05 < 0.01
Simulation CPU 0 panic: IPC 2.3e-06 < 0.01
Simulation CPU 0 panic: IPC 9.4e-06 < 0.01
Simulation CPU 0 panic: IPC 1.63e-05 < 0.01
Simulation CPU 0 panic: IPC 2.57e-05 < 0.01
Simulation CPU 0 panic: IPC 9.4e-06 < 0.01
Simulation CPU 0 panic: IPC 2.8e-06 < 0.01
Simulation CPU 0 panic: IPC 6.6e-06 < 0.01
Simulation CPU 0 panic: IPC 1.91e-05 < 0.01
Simulation CPU 0 panic: IPC 1.67e-05 < 0.01
Simulation CPU 0 panic: IPC 8.9e-06 < 0.01
Simulation CPU 0 panic: IPC 5.19e-05 < 0.01
Simulation CPU 0 panic: IPC 1.65e-05 < 0.01
Simulation CPU 0 panic: IPC 1.19e-05 < 0.01
Simulation CPU 0 panic: IPC 4.65e-05 < 0.01
Simulation CPU 0 panic: IPC 9.7e-06 < 0.01
Simulation CPU 0 panic: IPC 2.34e-05 < 0.01
Simulation CPU 0 panic: IPC 9.1e-06 < 0.01
Simulation CPU 0 panic: IPC 4.75e-05 < 0.01
Simulation CPU 0 panic: IPC 7.1e-06 < 0.01
Simulation CPU 0 panic: IPC 6.09e-05 < 0.01
Simulation CPU 0 panic: IPC 1.4e-05 < 0.01
Simulation CPU 0 panic: IPC 2.85e-05 < 0.01
Simulation CPU 0 panic: IPC 2.59e-05 < 0.01
Simulation CPU 0 panic: IPC 1.81e-05 < 0.01
Simulation CPU 0 panic: IPC 2.8e-06 < 0.01
Simulation CPU 0 panic: IPC 1.65e-05 < 0.01
Simulation CPU 0 panic: IPC 1.65e-05 < 0.01
Simulation CPU 0 panic: IPC 4.94e-05 < 0.01
Simulation CPU 0 panic: IPC 4.72e-05 < 0.01
Simulation CPU 0 panic: IPC 5.42e-05 < 0.01
Simulation CPU 0 panic: IPC 7e-05 < 0.01
Simulation CPU 0 panic: IPC 0.0001075 < 0.01
Simulation CPU 0 panic: IPC 4.66e-05 < 0.01
Simulation CPU 0 panic: IPC 1.2e-05 < 0.01
Simulation CPU 0 panic: IPC 1.6e-05 < 0.01
Simulation CPU 0 panic: IPC 9.11e-05 < 0.01
Simulation CPU 0 panic: IPC 5.83e-05 < 0.01
Simulation CPU 0 panic: IPC 7.4e-06 < 0.01
Simulation CPU 0 panic: IPC 9.64e-05 < 0.01
Simulation CPU 0 panic: IPC 3.93e-05 < 0.01
Simulation CPU 0 panic: IPC 4.01e-05 < 0.01
Simulation CPU 0 panic: IPC 5.43e-05 < 0.01
Simulation CPU 0 panic: IPC 3.28e-05 < 0.01
Simulation CPU 0 panic: IPC 8.15e-05 < 0.01
Simulation CPU 0 panic: IPC 0.0001264 < 0.01
Simulation CPU 0 panic: IPC 5.18e-05 < 0.01
Simulation CPU 0 panic: IPC 1.15e-05 < 0.01
Simulation CPU 0 panic: IPC 0.0002277 < 0.01
Simulation CPU 0 panic: IPC 0.0001174 < 0.01
Simulation CPU 0 panic: IPC 0.0001295 < 0.01
Simulation CPU 0 panic: IPC 1.22e-05 < 0.01
Simulation CPU 0 panic: IPC 0.0001157 < 0.01
Simulation CPU 0 panic: IPC 0.0001207 < 0.01
Simulation CPU 0 panic: IPC 8.65e-05 < 0.01
Simulation CPU 0 panic: IPC 0.0002114 < 0.01
Simulation CPU 0 panic: IPC 0.0002879 < 0.01
Simulation CPU 0 panic: IPC 3.03e-05 < 0.01
Simulation CPU 0 panic: IPC 7.25e-05 < 0.01
Simulation CPU 0 panic: IPC 6.12e-05 < 0.01
Simulation CPU 0 panic: IPC 6.54e-05 < 0.01
Simulation CPU 0 panic: IPC 3.01e-05 < 0.01
Simulation CPU 0 panic: IPC 8.75e-05 < 0.01
Simulation CPU 0 panic: IPC 0.0002192 < 0.01
Simulation CPU 0 panic: IPC 5.18e-05 < 0.01
Simulation CPU 0 panic: IPC 0.0001361 < 0.01
Simulation CPU 0 panic: IPC 9.2e-06 < 0.01
Simulation CPU 0 panic: IPC 3.28e-05 < 0.01
Simulation CPU 0 panic: IPC 3.54e-05 < 0.01
Simulation CPU 0 panic: IPC 0.0001211 < 0.01
Simulation CPU 0 panic: IPC 7.1e-06 < 0.01
Simulation CPU 0 panic: IPC 2.11e-05 < 0.01
Simulation CPU 0 panic: IPC 9.65e-05 < 0.01
Simulation CPU 0 panic: IPC 0.0001952 < 0.01
Simulation CPU 0 panic: IPC 5.38e-05 < 0.01
Simulation CPU 0 panic: IPC 0.0003188 < 0.01
Simulation CPU 0 panic: IPC 8.4e-05 < 0.01
Simulation CPU 0 panic: IPC 5.62e-05 < 0.01
Simulation CPU 0 panic: IPC 0.0001369 < 0.01
Simulation CPU 0 panic: IPC 1.35e-05 < 0.01
Simulation CPU 0 panic: IPC 9.4e-06 < 0.01
Simulation CPU 0 panic: IPC 3.56e-05 < 0.01
Simulation CPU 0 panic: IPC 0.0001177 < 0.01
Simulation CPU 0 panic: IPC 5.19e-05 < 0.01
Simulation CPU 0 panic: IPC 0.0001791 < 0.01
Simulation CPU 0 panic: IPC 0.0002348 < 0.01
Simulation CPU 0 panic: IPC 1.17e-05 < 0.01
Simulation CPU 0 panic: IPC 0.0001456 < 0.01
Simulation CPU 0 panic: IPC 7e-05 < 0.01
Simulation CPU 0 panic: IPC 7.07e-05 < 0.01
Simulation CPU 0 panic: IPC 0.0001799 < 0.01
Simulation CPU 0 panic: IPC 0.0002571 < 0.01
Simulation CPU 0 panic: IPC 8.01e-05 < 0.01
Simulation CPU 0 panic: IPC 2.09e-05 < 0.01
Simulation CPU 0 panic: IPC 0.0001618 < 0.01
Simulation CPU 0 panic: IPC 2.83e-05 < 0.01
Simulation CPU 0 panic: IPC 0.0003213 < 0.01
Simulation CPU 0 panic: IPC 0.0001843 < 0.01
Simulation CPU 0 panic: IPC 0.0002223 < 0.01
Simulation CPU 0 panic: IPC 5.1e-06 < 0.01
Simulation CPU 0 panic: IPC 5e-05 < 0.01
Simulation CPU 0 panic: IPC 3.24e-05 < 0.01
Simulation CPU 0 panic: IPC 7.56e-05 < 0.01
Simulation CPU 0 panic: IPC 0.0001378 < 0.01
Simulation CPU 0 panic: IPC 0.0001715 < 0.01
Simulation CPU 0 panic: IPC 4.89e-05 < 0.01
Simulation CPU 0 panic: IPC 2.37e-05 < 0.01
Simulation CPU 0 panic: IPC 4.61e-05 < 0.01
Simulation CPU 0 panic: IPC 4.7e-05 < 0.01
Simulation CPU 0 panic: IPC 0.0002478 < 0.01
Simulation CPU 0 panic: IPC 2.82e-05 < 0.01
Simulation CPU 0 panic: IPC 0.0003203 < 0.01
Simulation CPU 0 panic: IPC 0.0002769 < 0.01
Simulation CPU 0 panic: IPC 0.0005878 < 0.01
Simulation CPU 0 panic: IPC 0.0002437 < 0.01
Simulation CPU 0 panic: IPC 2.82e-05 < 0.01
Simulation CPU 0 panic: IPC 1.66e-05 < 0.01
Simulation CPU 0 panic: IPC 0.0002559 < 0.01
Simulation CPU 0 panic: IPC 0.0002372 < 0.01
Simulation CPU 0 panic: IPC 3.95e-05 < 0.01
Simulation CPU 0 panic: IPC 0.0001235 < 0.01
Simulation CPU 0 panic: IPC 0.0002071 < 0.01
Simulation CPU 0 panic: IPC 0.0002414 < 0.01
Simulation CPU 0 panic: IPC 4.16e-05 < 0.01
Simulation CPU 0 panic: IPC 3.72e-05 < 0.01
Simulation CPU 0 panic: IPC 0.0001227 < 0.01
Simulation CPU 0 panic: IPC 0.0002476 < 0.01
Simulation CPU 0 panic: IPC 0.0001958 < 0.01
Simulation CPU 0 panic: IPC 0.0003686 < 0.01
Simulation CPU 0 panic: IPC 0.0001047 < 0.01
Simulation CPU 0 panic: IPC 0.0001047 < 0.01
Simulation CPU 0 panic: IPC 7.88e-05 < 0.01
Simulation CPU 0 panic: IPC 0.000428 < 0.01
Simulation CPU 0 panic: IPC 0.0003212 < 0.01
Simulation CPU 0 panic: IPC 4.22e-05 < 0.01
Simulation CPU 0 panic: IPC 3.03e-05 < 0.01
Simulation CPU 0 panic: IPC 0.0006245 < 0.01
Simulation CPU 0 panic: IPC 3.49e-05 < 0.01
Simulation CPU 0 panic: IPC 7.48e-05 < 0.01
Simulation CPU 0 panic: IPC 0.0002813 < 0.01
Simulation CPU 0 panic: IPC 0.0002666 < 0.01
Simulation CPU 0 panic: IPC 0.0003522 < 0.01
Simulation CPU 0 panic: IPC 0.0005807 < 0.01
Simulation CPU 0 panic: IPC 0.0004421 < 0.01
Simulation CPU 0 panic: IPC 0.000318 < 0.01
Simulation CPU 0 panic: IPC 0.0001644 < 0.01
Simulation CPU 0 panic: IPC 2.53e-05 < 0.01
Simulation CPU 0 panic: IPC 0.0003332 < 0.01
Simulation CPU 0 panic: IPC 7.25e-05 < 0.01
Simulation CPU 0 panic: IPC 2.8e-06 < 0.01
Simulation CPU 0 panic: IPC 7.21e-05 < 0.01
Simulation CPU 0 panic: IPC 0.0003807 < 0.01
Simulation CPU 0 panic: IPC 0.0004946 < 0.01
Simulation CPU 0 panic: IPC 0.0003261 < 0.01
Simulation CPU 0 panic: IPC 0.0004985 < 0.01
Simulation CPU 0 panic: IPC 0.0001152 < 0.01
Simulation CPU 0 panic: IPC 0.0009513 < 0.01
Simulation CPU 0 panic: IPC 0.0009612 < 0.01
Simulation CPU 0 panic: IPC 8.32e-05 < 0.01
Simulation CPU 0 panic: IPC 0.0004864 < 0.01
Simulation CPU 0 panic: IPC 8.65e-05 < 0.01
Simulation CPU 0 panic: IPC 0.0007665 < 0.01
Simulation CPU 0 panic: IPC 0.0004636 < 0.01
Simulation CPU 0 panic: IPC 0.0003405 < 0.01
Simulation CPU 0 panic: IPC 0.0001647 < 0.01
Simulation CPU 0 panic: IPC 3.01e-05 < 0.01
Simulation CPU 0 panic: IPC 0.000104 < 0.01
Simulation CPU 0 panic: IPC 6.9e-06 < 0.01
Simulation CPU 0 panic: IPC 4.2e-05 < 0.01
Simulation CPU 0 panic: IPC 0.0002971 < 0.01
Simulation CPU 0 panic: IPC 0.0008249 < 0.01
Simulation CPU 0 panic: IPC 4.2e-05 < 0.01
Simulation CPU 0 panic: IPC 7.98e-05 < 0.01
Simulation CPU 0 panic: IPC 0.0001563 < 0.01
Simulation CPU 0 panic: IPC 0.0002212 < 0.01
Simulation CPU 0 panic: IPC 0.0002193 < 0.01
Simulation CPU 0 panic: IPC 0.0001872 < 0.01
Simulation CPU 0 panic: IPC 0.0014846 < 0.01
Simulation CPU 0 panic: IPC 0.0002043 < 0.01
Simulation CPU 0 panic: IPC 0.0003212 < 0.01
Simulation CPU 0 panic: IPC 0.0006029 < 0.01
Simulation CPU 0 panic: IPC 0.0002415 < 0.01
Simulation CPU 0 panic: IPC 0.0018835 < 0.01
Simulation CPU 0 panic: IPC 0.000788 < 0.01
Simulation CPU 0 panic: IPC 6.58e-05 < 0.01
Simulation CPU 0 panic: IPC 0.000169 < 0.01
Simulation CPU 0 panic: IPC 0.0048339 < 0.01
Simulation CPU 0 panic: IPC 0.0019413 < 0.01
Simulation CPU 0 panic: IPC 7.95e-05 < 0.01
Simulation CPU 0 panic: IPC 0.000563 < 0.01
Simulation CPU 0 panic: IPC 6.52e-05 < 0.01
Simulation CPU 0 panic: IPC 0.0007563 < 0.01
Simulation CPU 0 panic: IPC 0.0006593 < 0.01
Simulation CPU 0 panic: IPC 0.0006741 < 0.01
Simulation CPU 0 panic: IPC 0.0005227 < 0.01
Simulation CPU 0 panic: IPC 0.0034973 < 0.01
Heartbeat CPU 0 instructions: 10000001 cycles: 3353897579 heartbeat IPC: 0.002982 cumulative IPC: 0.002982 (Simulation time: 04 hr 47 min 38 sec)
Simulation CPU 0 panic: IPC 7e-06 < 0.01
Simulation CPU 0 panic: IPC 4.4e-06 < 0.01
Simulation CPU 0 panic: IPC 1.3e-05 < 0.01
Simulation CPU 0 panic: IPC 9.6e-06 < 0.01
Simulation CPU 0 panic: IPC 2.3e-06 < 0.01
Simulation CPU 0 panic: IPC 7.6e-06 < 0.01
Simulation CPU 0 panic: IPC 6.8e-06 < 0.01
Simulation CPU 0 panic: IPC 2.3e-06 < 0.01
Simulation CPU 0 panic: IPC 9.2e-06 < 0.01
Simulation CPU 0 panic: IPC 2.8e-06 < 0.01
Simulation CPU 0 panic: IPC 4.3e-06 < 0.01
Simulation CPU 0 panic: IPC 5.1e-06 < 0.01
Simulation CPU 0 panic: IPC 7.1e-06 < 0.01
Simulation CPU 0 panic: IPC 9.4e-06 < 0.01
Simulation CPU 0 panic: IPC 1.42e-05 < 0.01
Simulation CPU 0 panic: IPC 6.6e-06 < 0.01
Simulation CPU 0 panic: IPC 2.3e-06 < 0.01
Simulation CPU 0 panic: IPC 1.22e-05 < 0.01
Simulation CPU 0 panic: IPC 3.32e-05 < 0.01
Simulation CPU 0 panic: IPC 2.12e-05 < 0.01
Simulation CPU 0 panic: IPC 9.6e-06 < 0.01
Simulation CPU 0 panic: IPC 1.24e-05 < 0.01
Simulation CPU 0 panic: IPC 1.14e-05 < 0.01
Simulation CPU 0 panic: IPC 6.9e-06 < 0.01
Simulation CPU 0 panic: IPC 2.8e-06 < 0.01
Simulation CPU 0 panic: IPC 7.1e-06 < 0.01
Simulation CPU 0 panic: IPC 2.5e-06 < 0.01
Simulation CPU 0 panic: IPC 9.6e-06 < 0.01
Simulation CPU 0 panic: IPC 1.19e-05 < 0.01
Simulation CPU 0 panic: IPC 3.52e-05 < 0.01
Simulation CPU 0 panic: IPC 5.3e-06 < 0.01
Simulation CPU 0 panic: IPC 9.6e-06 < 0.01
Simulation CPU 0 panic: IPC 1.25e-05 < 0.01
Simulation CPU 0 panic: IPC 9.6e-06 < 0.01
Simulation CPU 0 panic: IPC 2.37e-05 < 0.01
Simulation CPU 0 panic: IPC 5.1e-06 < 0.01
Simulation CPU 0 panic: IPC 1.85e-05 < 0.01
Simulation CPU 0 panic: IPC 2.3e-06 < 0.01
Simulation CPU 0 panic: IPC 2.3e-06 < 0.01
Simulation CPU 0 panic: IPC 5.3e-06 < 0.01
Simulation CPU 0 panic: IPC 2.58e-05 < 0.01
Simulation CPU 0 panic: IPC 4.51e-05 < 0.01
Simulation CPU 0 panic: IPC 1.93e-05 < 0.01
Simulation CPU 0 panic: IPC 1.88e-05 < 0.01
Simulation CPU 0 panic: IPC 1.42e-05 < 0.01
Simulation CPU 0 panic: IPC 2.34e-05 < 0.01
Simulation CPU 0 panic: IPC 9.6e-06 < 0.01
Simulation CPU 0 panic: IPC 9.6e-06 < 0.01
Simulation CPU 0 panic: IPC 9.4e-06 < 0.01
Simulation CPU 0 panic: IPC 1.67e-05 < 0.01
Simulation CPU 0 panic: IPC 1.64e-05 < 0.01
Simulation CPU 0 panic: IPC 3.13e-05 < 0.01
Simulation CPU 0 panic: IPC 2.36e-05 < 0.01
Simulation CPU 0 panic: IPC 3.12e-05 < 0.01
Simulation CPU 0 panic: IPC 7.1e-06 < 0.01
Simulation CPU 0 panic: IPC 2.38e-05 < 0.01
Simulation CPU 0 panic: IPC 5.25e-05 < 0.01
Simulation CPU 0 panic: IPC 2.3e-06 < 0.01
Simulation CPU 0 panic: IPC 1.7e-05 < 0.01
Simulation CPU 0 panic: IPC 3.25e-05 < 0.01
Simulation CPU 0 panic: IPC 2.91e-05 < 0.01
Simulation CPU 0 panic: IPC 4.96e-05 < 0.01
Simulation CPU 0 panic: IPC 8.05e-05 < 0.01
Simulation CPU 0 panic: IPC 3.07e-05 < 0.01
Simulation CPU 0 panic: IPC 7.36e-05 < 0.01
Simulation CPU 0 panic: IPC 0.0002783 < 0.01
Simulation CPU 0 panic: IPC 2.43e-05 < 0.01
Simulation CPU 0 panic: IPC 3.09e-05 < 0.01
Simulation CPU 0 panic: IPC 1.92e-05 < 0.01
Simulation CPU 0 panic: IPC 3.12e-05 < 0.01
Simulation CPU 0 panic: IPC 0.0001283 < 0.01
Simulation CPU 0 panic: IPC 2.5e-06 < 0.01
Simulation CPU 0 panic: IPC 1.83e-05 < 0.01
Simulation CPU 0 panic: IPC 1.63e-05 < 0.01
Simulation CPU 0 panic: IPC 5.45e-05 < 0.01
Simulation CPU 0 panic: IPC 1.74e-05 < 0.01
Simulation CPU 0 panic: IPC 3.55e-05 < 0.01
Simulation CPU 0 panic: IPC 1.12e-05 < 0.01
Simulation CPU 0 panic: IPC 0.0001347 < 0.01
Simulation CPU 0 panic: IPC 9.4e-06 < 0.01
Simulation CPU 0 panic: IPC 4.29e-05 < 0.01
Simulation CPU 0 panic: IPC 0.0002013 < 0.01
Simulation CPU 0 panic: IPC 7.34e-05 < 0.01
Simulation CPU 0 panic: IPC 1.88e-05 < 0.01
Simulation CPU 0 panic: IPC 5.3e-06 < 0.01
Simulation CPU 0 panic: IPC 4.03e-05 < 0.01
Simulation CPU 0 panic: IPC 1.6e-05 < 0.01
Simulation CPU 0 panic: IPC 2.85e-05 < 0.01
Simulation CPU 0 panic: IPC 4.93e-05 < 0.01
Simulation CPU 0 panic: IPC 4.85e-05 < 0.01
Simulation CPU 0 panic: IPC 0.0001422 < 0.01
Simulation CPU 0 panic: IPC 5.04e-05 < 0.01
Simulation CPU 0 panic: IPC 4e-05 < 0.01
Simulation CPU 0 panic: IPC 7.85e-05 < 0.01
Simulation CPU 0 panic: IPC 3.83e-05 < 0.01
Simulation CPU 0 panic: IPC 2.5e-06 < 0.01
Simulation CPU 0 panic: IPC 0.0001909 < 0.01
Simulation CPU 0 panic: IPC 9.9e-06 < 0.01
Simulation CPU 0 panic: IPC 0.0001807 < 0.01
Simulation CPU 0 panic: IPC 0.0001314 < 0.01
Simulation CPU 0 panic: IPC 0.0001063 < 0.01
Simulation CPU 0 panic: IPC 0.0001095 < 0.01
Simulation CPU 0 panic: IPC 0.0002187 < 0.01
Simulation CPU 0 panic: IPC 0.0001561 < 0.01
Simulation CPU 0 panic: IPC 0.0001679 < 0.01
Simulation CPU 0 panic: IPC 5.89e-05 < 0.01
Simulation CPU 0 panic: IPC 0.0001449 < 0.01
Simulation CPU 0 panic: IPC 3.41e-05 < 0.01
Simulation CPU 0 panic: IPC 0.0004179 < 0.01
Simulation CPU 0 panic: IPC 0.0002767 < 0.01
Simulation CPU 0 panic: IPC 0.0002127 < 0.01
Simulation CPU 0 panic: IPC 0.0009855 < 0.01
Simulation CPU 0 panic: IPC 0.0002115 < 0.01
Simulation CPU 0 panic: IPC 5.75e-05 < 0.01
Simulation CPU 0 panic: IPC 0.0001526 < 0.01
Simulation CPU 0 panic: IPC 0.0006533 < 0.01
Simulation CPU 0 panic: IPC 0.0002484 < 0.01
Simulation CPU 0 panic: IPC 0.0001168 < 0.01
Simulation CPU 0 panic: IPC 1.62e-05 < 0.01
Simulation CPU 0 panic: IPC 2.41e-05 < 0.01
Simulation CPU 0 panic: IPC 3.78e-05 < 0.01
Simulation CPU 0 panic: IPC 5.17e-05 < 0.01
Simulation CPU 0 panic: IPC 4.95e-05 < 0.01
Simulation CPU 0 panic: IPC 0.0002053 < 0.01
Simulation CPU 0 panic: IPC 0.0003816 < 0.01
Simulation CPU 0 panic: IPC 0.0003535 < 0.01
Simulation CPU 0 panic: IPC 0.0001455 < 0.01
Simulation CPU 0 panic: IPC 0.0007877 < 0.01
Simulation CPU 0 panic: IPC 3.96e-05 < 0.01
Simulation CPU 0 panic: IPC 0.0001518 < 0.01
Simulation CPU 0 panic: IPC 0.0003459 < 0.01
Simulation CPU 0 panic: IPC 1.39e-05 < 0.01
Simulation CPU 0 panic: IPC 0.0004057 < 0.01
Simulation CPU 0 panic: IPC 3.12e-05 < 0.01
Simulation CPU 0 panic: IPC 1.88e-05 < 0.01
Simulation CPU 0 panic: IPC 1.14e-05 < 0.01
Simulation CPU 0 panic: IPC 0.000274 < 0.01
Simulation CPU 0 panic: IPC 9.67e-05 < 0.01
Simulation CPU 0 panic: IPC 0.0001446 < 0.01
Simulation CPU 0 panic: IPC 0.0004042 < 0.01
Simulation CPU 0 panic: IPC 0.0008982 < 0.01
Simulation CPU 0 panic: IPC 0.0002563 < 0.01
Simulation CPU 0 panic: IPC 0.000161 < 0.01
Simulation CPU 0 panic: IPC 0.0001234 < 0.01
Simulation CPU 0 panic: IPC 0.0001119 < 0.01
Simulation CPU 0 panic: IPC 7.83e-05 < 0.01
Simulation CPU 0 panic: IPC 0.0006044 < 0.01
Simulation CPU 0 panic: IPC 1.49e-05 < 0.01
Simulation CPU 0 panic: IPC 0.0003012 < 0.01
Simulation CPU 0 panic: IPC 0.0002754 < 0.01
Simulation CPU 0 panic: IPC 5.3e-06 < 0.01
Simulation CPU 0 panic: IPC 0.0005412 < 0.01
Simulation CPU 0 panic: IPC 0.0002292 < 0.01
Simulation CPU 0 panic: IPC 0.0006179 < 0.01
Simulation CPU 0 panic: IPC 1.62e-05 < 0.01
Simulation CPU 0 panic: IPC 0.000624 < 0.01
Simulation CPU 0 panic: IPC 0.0004406 < 0.01
Simulation CPU 0 panic: IPC 0.0002682 < 0.01
Simulation CPU 0 panic: IPC 0.0004035 < 0.01
Simulation CPU 0 panic: IPC 0.0007626 < 0.01
Simulation CPU 0 panic: IPC 0.0001954 < 0.01
Simulation CPU 0 panic: IPC 4.92e-05 < 0.01
Simulation CPU 0 panic: IPC 0.0002524 < 0.01
Simulation CPU 0 panic: IPC 0.0003848 < 0.01
Simulation CPU 0 panic: IPC 0.0001417 < 0.01
Simulation CPU 0 panic: IPC 0.0002578 < 0.01
Simulation CPU 0 panic: IPC 0.0002692 < 0.01
Simulation CPU 0 panic: IPC 5.2e-05 < 0.01
Simulation CPU 0 panic: IPC 2.56e-05 < 0.01
Simulation CPU 0 panic: IPC 0.0006772 < 0.01
Simulation CPU 0 panic: IPC 6.41e-05 < 0.01
Simulation CPU 0 panic: IPC 7.36e-05 < 0.01
Simulation CPU 0 panic: IPC 0.0001944 < 0.01
Simulation CPU 0 panic: IPC 7.32e-05 < 0.01
Simulation CPU 0 panic: IPC 0.0009355 < 0.01
Simulation CPU 0 panic: IPC 0.0004862 < 0.01
Simulation CPU 0 panic: IPC 0.0016742 < 0.01
Simulation CPU 0 panic: IPC 0.0002276 < 0.01
Simulation CPU 0 panic: IPC 0.0006109 < 0.01
Simulation CPU 0 panic: IPC 0.0003269 < 0.01
Simulation CPU 0 panic: IPC 0.0001231 < 0.01
Simulation CPU 0 panic: IPC 5.91e-05 < 0.01
Simulation CPU 0 panic: IPC 0.0001871 < 0.01
Simulation CPU 0 panic: IPC 0.0003582 < 0.01
Simulation CPU 0 panic: IPC 2.36e-05 < 0.01
Simulation CPU 0 panic: IPC 0.0008499 < 0.01
Simulation CPU 0 panic: IPC 4.06e-05 < 0.01
Simulation CPU 0 panic: IPC 5.74e-05 < 0.01
Simulation CPU 0 panic: IPC 0.0007567 < 0.01
Simulation CPU 0 panic: IPC 5.69e-05 < 0.01
Simulation CPU 0 panic: IPC 9.01e-05 < 0.01
Simulation CPU 0 panic: IPC 0.0001665 < 0.01
Simulation CPU 0 panic: IPC 0.0002031 < 0.01
Simulation CPU 0 panic: IPC 0.0001226 < 0.01
Simulation CPU 0 panic: IPC 0.0004496 < 0.01
Simulation CPU 0 panic: IPC 2.38e-05 < 0.01
Simulation CPU 0 panic: IPC 0.0011129 < 0.01
Simulation CPU 0 panic: IPC 0.000271 < 0.01
Simulation CPU 0 panic: IPC 0.0003288 < 0.01
Simulation CPU 0 panic: IPC 8.96e-05 < 0.01
Simulation CPU 0 panic: IPC 0.0011216 < 0.01
Simulation CPU 0 panic: IPC 1.21e-05 < 0.01
Simulation CPU 0 panic: IPC 0.0017167 < 0.01
Simulation CPU 0 panic: IPC 0.0001702 < 0.01
Simulation CPU 0 panic: IPC 0.0010633 < 0.01
Simulation CPU 0 panic: IPC 9.7e-05 < 0.01
Simulation CPU 0 panic: IPC 0.0004995 < 0.01
Simulation CPU 0 panic: IPC 4.22e-05 < 0.01
Simulation CPU 0 panic: IPC 0.0020236 < 0.01
Simulation CPU 0 panic: IPC 0.0004137 < 0.01
Simulation CPU 0 panic: IPC 0.0002729 < 0.01
Simulation CPU 0 panic: IPC 0.0035213 < 0.01
Simulation CPU 0 panic: IPC 0.0005776 < 0.01
Simulation CPU 0 panic: IPC 0.0015934 < 0.01
Simulation CPU 0 panic: IPC 0.0002011 < 0.01
Simulation CPU 0 panic: IPC 8.12e-05 < 0.01
Simulation CPU 0 panic: IPC 0.0003724 < 0.01
Simulation CPU 0 panic: IPC 0.0004801 < 0.01
Simulation CPU 0 panic: IPC 0.0005158 < 0.01
Simulation CPU 0 panic: IPC 6.88e-05 < 0.01
Simulation CPU 0 panic: IPC 0.0004272 < 0.01
Simulation CPU 0 panic: IPC 4.98e-05 < 0.01
Simulation CPU 0 panic: IPC 0.0019386 < 0.01
Simulation CPU 0 panic: IPC 0.0006044 < 0.01
Simulation CPU 0 panic: IPC 0.0011745 < 0.01
Simulation CPU 0 panic: IPC 7.53e-05 < 0.01
Simulation CPU 0 panic: IPC 0.0032655 < 0.01
Simulation CPU 0 panic: IPC 2.31e-05 < 0.01
Simulation CPU 0 panic: IPC 0.0017323 < 0.01
Simulation CPU 0 panic: IPC 0.0008731 < 0.01
Simulation CPU 0 panic: IPC 0.0003639 < 0.01
Simulation CPU 0 panic: IPC 0.0002037 < 0.01
Simulation CPU 0 panic: IPC 0.0004434 < 0.01
Simulation CPU 0 panic: IPC 0.0003872 < 0.01
Simulation CPU 0 panic: IPC 0.0010376 < 0.01
Simulation CPU 0 panic: IPC 0.0003176 < 0.01
Simulation CPU 0 panic: IPC 0.0002075 < 0.01
Simulation CPU 0 panic: IPC 0.001792 < 0.01
Simulation CPU 0 panic: IPC 0.0024222 < 0.01
Simulation CPU 0 panic: IPC 0.0010144 < 0.01
Simulation CPU 0 panic: IPC 0.0014461 < 0.01
Simulation CPU 0 panic: IPC 0.0032179 < 0.01
Simulation CPU 0 panic: IPC 0.0002517 < 0.01
Simulation CPU 0 panic: IPC 0.0011276 < 0.01
Simulation CPU 0 panic: IPC 0.0011061 < 0.01
Simulation CPU 0 panic: IPC 0.0001502 < 0.01
Simulation CPU 0 panic: IPC 0.0002236 < 0.01
Simulation CPU 0 panic: IPC 0.0005721 < 0.01
Simulation CPU 0 panic: IPC 0.0049299 < 0.01
Heartbeat CPU 0 instructions: 20000002 cycles: 5859925060 heartbeat IPC: 0.00399 cumulative IPC: 0.003413 (Simulation time: 08 hr 16 min 24 sec)
Simulation CPU 0 panic: IPC 2e-07 < 0.01
Simulation CPU 0 panic: IPC 1.3e-06 < 0.01
Simulation CPU 0 panic: IPC 4.3e-06 < 0.01
Simulation CPU 0 panic: IPC 1.4e-06 < 0.01
Simulation CPU 0 panic: IPC 2.5e-06 < 0.01
Simulation CPU 0 panic: IPC 1.2e-05 < 0.01
Simulation CPU 0 panic: IPC 1.1e-05 < 0.01
Simulation CPU 0 panic: IPC 4.6e-06 < 0.01
Simulation CPU 0 panic: IPC 5.1e-06 < 0.01
Simulation CPU 0 panic: IPC 6.8e-06 < 0.01
Simulation CPU 0 panic: IPC 8.7e-06 < 0.01
Simulation CPU 0 panic: IPC 1.12e-05 < 0.01
Simulation CPU 0 panic: IPC 1.8e-06 < 0.01
Simulation CPU 0 panic: IPC 1.66e-05 < 0.01
Simulation CPU 0 panic: IPC 6.6e-06 < 0.01
Simulation CPU 0 panic: IPC 6.4e-06 < 0.01
Simulation CPU 0 panic: IPC 1.51e-05 < 0.01
Simulation CPU 0 panic: IPC 1.39e-05 < 0.01
Simulation CPU 0 panic: IPC 8.9e-06 < 0.01
Simulation CPU 0 panic: IPC 1.04e-05 < 0.01
Simulation CPU 0 panic: IPC 2.33e-05 < 0.01
Simulation CPU 0 panic: IPC 7.1e-06 < 0.01
Simulation CPU 0 panic: IPC 3.09e-05 < 0.01
Simulation CPU 0 panic: IPC 3.95e-05 < 0.01
Simulation CPU 0 panic: IPC 1.71e-05 < 0.01
Simulation CPU 0 panic: IPC 6.8e-06 < 0.01
Simulation CPU 0 panic: IPC 3.27e-05 < 0.01
Simulation CPU 0 panic: IPC 2.57e-05 < 0.01
Simulation CPU 0 panic: IPC 4.3e-06 < 0.01
Simulation CPU 0 panic: IPC 2.76e-05 < 0.01
Simulation CPU 0 panic: IPC 7.9e-05 < 0.01
Simulation CPU 0 panic: IPC 4.05e-05 < 0.01
Simulation CPU 0 panic: IPC 7.17e-05 < 0.01
Simulation CPU 0 panic: IPC 3.55e-05 < 0.01
Simulation CPU 0 panic: IPC 5.04e-05 < 0.01
Simulation CPU 0 panic: IPC 3.5e-05 < 0.01
Simulation CPU 0 panic: IPC 1.1e-05 < 0.01
Simulation CPU 0 panic: IPC 2.94e-05 < 0.01
Simulation CPU 0 panic: IPC 3.97e-05 < 0.01
Simulation CPU 0 panic: IPC 0.000125 < 0.01
Simulation CPU 0 panic: IPC 1.17e-05 < 0.01
Simulation CPU 0 panic: IPC 3.17e-05 < 0.01
Simulation CPU 0 panic: IPC 0.0001939 < 0.01
Simulation CPU 0 panic: IPC 4.3e-06 < 0.01
Simulation CPU 0 panic: IPC 0.0001068 < 0.01
Simulation CPU 0 panic: IPC 4.11e-05 < 0.01
Simulation CPU 0 panic: IPC 0.0003488 < 0.01
Simulation CPU 0 panic: IPC 4.22e-05 < 0.01
Simulation CPU 0 panic: IPC 4.13e-05 < 0.01
Simulation CPU 0 panic: IPC 7.77e-05 < 0.01
Simulation CPU 0 panic: IPC 8.14e-05 < 0.01
Simulation CPU 0 panic: IPC 9.46e-05 < 0.01
Simulation CPU 0 panic: IPC 0.0001569 < 0.01
Simulation CPU 0 panic: IPC 1.96e-05 < 0.01
Simulation CPU 0 panic: IPC 0.0001126 < 0.01
Simulation CPU 0 panic: IPC 0.0001277 < 0.01
Simulation CPU 0 panic: IPC 8.51e-05 < 0.01
Simulation CPU 0 panic: IPC 0.0001768 < 0.01
Simulation CPU 0 panic: IPC 3.95e-05 < 0.01
Simulation CPU 0 panic: IPC 0.0001695 < 0.01
Simulation CPU 0 panic: IPC 0.0001111 < 0.01
Simulation CPU 0 panic: IPC 4.78e-05 < 0.01
Simulation CPU 0 panic: IPC 0.0001252 < 0.01
Simulation CPU 0 panic: IPC 0.0006067 < 0.01
Simulation CPU 0 panic: IPC 0.0002617 < 0.01
Simulation CPU 0 panic: IPC 1.62e-05 < 0.01
Simulation CPU 0 panic: IPC 7.3e-05 < 0.01
Simulation CPU 0 panic: IPC 0.0002533 < 0.01
Simulation CPU 0 panic: IPC 0.0002499 < 0.01
Simulation CPU 0 panic: IPC 2.04e-05 < 0.01
Simulation CPU 0 panic: IPC 4.33e-05 < 0.01
Simulation CPU 0 panic: IPC 0.0001348 < 0.01
Simulation CPU 0 panic: IPC 7.92e-05 < 0.01
Simulation CPU 0 panic: IPC 8.1e-05 < 0.01
Simulation CPU 0 panic: IPC 2.71e-05 < 0.01
Simulation CPU 0 panic: IPC 0.0001261 < 0.01
Simulation CPU 0 panic: IPC 8.68e-05 < 0.01
Simulation CPU 0 panic: IPC 1.54e-05 < 0.01
Simulation CPU 0 panic: IPC 2.63e-05 < 0.01
Simulation CPU 0 panic: IPC 5.7e-06 < 0.01
Simulation CPU 0 panic: IPC 0.0001868 < 0.01
Simulation CPU 0 panic: IPC 2.55e-05 < 0.01
Simulation CPU 0 panic: IPC 1.31e-05 < 0.01
Simulation CPU 0 panic: IPC 0.0004005 < 0.01
Simulation CPU 0 panic: IPC 0.0001294 < 0.01
Simulation CPU 0 panic: IPC 7.55e-05 < 0.01
Simulation CPU 0 panic: IPC 0.00038 < 0.01
Simulation CPU 0 panic: IPC 5.57e-05 < 0.01
Simulation CPU 0 panic: IPC 0.0001974 < 0.01
Simulation CPU 0 panic: IPC 0.0005786 < 0.01
Simulation CPU 0 panic: IPC 9.4e-06 < 0.01
Simulation CPU 0 panic: IPC 1.19e-05 < 0.01
Simulation CPU 0 panic: IPC 0.0002427 < 0.01
Simulation CPU 0 panic: IPC 0.0002509 < 0.01
Simulation CPU 0 panic: IPC 5.56e-05 < 0.01
Simulation CPU 0 panic: IPC 0.0001706 < 0.01
Simulation CPU 0 panic: IPC 4.04e-05 < 0.01
Simulation CPU 0 panic: IPC 0.0001518 < 0.01
Simulation CPU 0 panic: IPC 0.0001326 < 0.01
Simulation CPU 0 panic: IPC 6.49e-05 < 0.01
Simulation CPU 0 panic: IPC 0.000194 < 0.01
Simulation CPU 0 panic: IPC 3.4e-05 < 0.01
Simulation CPU 0 panic: IPC 0.0005928 < 0.01
Simulation CPU 0 panic: IPC 0.0001694 < 0.01
Simulation CPU 0 panic: IPC 4.8e-05 < 0.01
Simulation CPU 0 panic: IPC 0.0001112 < 0.01
Simulation CPU 0 panic: IPC 6.21e-05 < 0.01
Simulation CPU 0 panic: IPC 0.0001095 < 0.01
Simulation CPU 0 panic: IPC 0.0001 < 0.01
Simulation CPU 0 panic: IPC 0.0001861 < 0.01
Simulation CPU 0 panic: IPC 0.0001314 < 0.01
Simulation CPU 0 panic: IPC 0.0002772 < 0.01
Simulation CPU 0 panic: IPC 0.0006393 < 0.01
Simulation CPU 0 panic: IPC 9.5e-05 < 0.01
Simulation CPU 0 panic: IPC 8.57e-05 < 0.01
Simulation CPU 0 panic: IPC 8.17e-05 < 0.01
Simulation CPU 0 panic: IPC 2.9e-05 < 0.01
Simulation CPU 0 panic: IPC 0.0001897 < 0.01
Simulation CPU 0 panic: IPC 2.61e-05 < 0.01
Simulation CPU 0 panic: IPC 1.86e-05 < 0.01
Simulation CPU 0 panic: IPC 3.14e-05 < 0.01
Simulation CPU 0 panic: IPC 8.29e-05 < 0.01
Simulation CPU 0 panic: IPC 0.0003039 < 0.01
Simulation CPU 0 panic: IPC 4.3e-05 < 0.01
Simulation CPU 0 panic: IPC 0.000116 < 0.01
Simulation CPU 0 panic: IPC 0.0004963 < 0.01
Simulation CPU 0 panic: IPC 0.0002498 < 0.01
Simulation CPU 0 panic: IPC 0.000109 < 0.01
Simulation CPU 0 panic: IPC 0.0005098 < 0.01
Simulation CPU 0 panic: IPC 0.0002056 < 0.01
Simulation CPU 0 panic: IPC 9.7e-06 < 0.01
Simulation CPU 0 panic: IPC 5.89e-05 < 0.01
Simulation CPU 0 panic: IPC 0.0003568 < 0.01
Simulation CPU 0 panic: IPC 0.0001968 < 0.01
Simulation CPU 0 panic: IPC 0.0003042 < 0.01
Simulation CPU 0 panic: IPC 0.0001578 < 0.01
Simulation CPU 0 panic: IPC 1.3e-05 < 0.01
Simulation CPU 0 panic: IPC 0.0003903 < 0.01
Simulation CPU 0 panic: IPC 8.39e-05 < 0.01
Simulation CPU 0 panic: IPC 0.0003554 < 0.01
Simulation CPU 0 panic: IPC 0.0011507 < 0.01
Simulation CPU 0 panic: IPC 0.0003622 < 0.01
Simulation CPU 0 panic: IPC 0.0001338 < 0.01
Simulation CPU 0 panic: IPC 0.0002468 < 0.01
Simulation CPU 0 panic: IPC 0.000304 < 0.01
Simulation CPU 0 panic: IPC 1.71e-05 < 0.01
Simulation CPU 0 panic: IPC 5.51e-05 < 0.01
Simulation CPU 0 panic: IPC 2.9e-05 < 0.01
Simulation CPU 0 panic: IPC 0.0002507 < 0.01
Simulation CPU 0 panic: IPC 0.0004052 < 0.01
Simulation CPU 0 panic: IPC 0.0001816 < 0.01
Simulation CPU 0 panic: IPC 3.87e-05 < 0.01
Simulation CPU 0 panic: IPC 0.00014 < 0.01
Simulation CPU 0 panic: IPC 4.4e-06 < 0.01
Simulation CPU 0 panic: IPC 0.0011559 < 0.01
Simulation CPU 0 panic: IPC 0.0002521 < 0.01
Simulation CPU 0 panic: IPC 0.0003425 < 0.01
Simulation CPU 0 panic: IPC 4.42e-05 < 0.01
Simulation CPU 0 panic: IPC 9.35e-05 < 0.01
Simulation CPU 0 panic: IPC 6.83e-05 < 0.01
Simulation CPU 0 panic: IPC 0.0001484 < 0.01
Simulation CPU 0 panic: IPC 0.0001386 < 0.01
Simulation CPU 0 panic: IPC 0.0002631 < 0.01
Simulation CPU 0 panic: IPC 1.46e-05 < 0.01
Simulation CPU 0 panic: IPC 0.0001518 < 0.01
Simulation CPU 0 panic: IPC 0.0001631 < 0.01
Simulation CPU 0 panic: IPC 0.0001727 < 0.01
Simulation CPU 0 panic: IPC 0.0003224 < 0.01
Simulation CPU 0 panic: IPC 9.1e-06 < 0.01
Simulation CPU 0 panic: IPC 4.28e-05 < 0.01
Simulation CPU 0 panic: IPC 0.0004744 < 0.01
Simulation CPU 0 panic: IPC 0.0006959 < 0.01
Simulation CPU 0 panic: IPC 0.0001137 < 0.01
Simulation CPU 0 panic: IPC 0.0002421 < 0.01
Simulation CPU 0 panic: IPC 0.0005428 < 0.01
Simulation CPU 0 panic: IPC 0.0007276 < 0.01
Simulation CPU 0 panic: IPC 4.4e-06 < 0.01
Simulation CPU 0 panic: IPC 0.0005376 < 0.01
Simulation CPU 0 panic: IPC 2.88e-05 < 0.01
Simulation CPU 0 panic: IPC 0.0004702 < 0.01
Simulation CPU 0 panic: IPC 9.84e-05 < 0.01
Simulation CPU 0 panic: IPC 0.0002854 < 0.01
Simulation CPU 0 panic: IPC 0.0001352 < 0.01
Simulation CPU 0 panic: IPC 1.11e-05 < 0.01
Simulation CPU 0 panic: IPC 0.000379 < 0.01
Simulation CPU 0 panic: IPC 8.5e-06 < 0.01
Simulation CPU 0 panic: IPC 0.0003148 < 0.01
Simulation CPU 0 panic: IPC 0.0003887 < 0.01
Simulation CPU 0 panic: IPC 0.0003474 < 0.01
Simulation CPU 0 panic: IPC 4.3e-06 < 0.01
Simulation CPU 0 panic: IPC 0.000223 < 0.01
Simulation CPU 0 panic: IPC 5.58e-05 < 0.01
Simulation CPU 0 panic: IPC 0.0001658 < 0.01
Simulation CPU 0 panic: IPC 0.0001228 < 0.01
Simulation CPU 0 panic: IPC 0.0006092 < 0.01
Simulation CPU 0 panic: IPC 0.0006614 < 0.01
Simulation CPU 0 panic: IPC 5.65e-05 < 0.01
Simulation CPU 0 panic: IPC 9.89e-05 < 0.01
Simulation CPU 0 panic: IPC 0.0003663 < 0.01
Simulation CPU 0 panic: IPC 0.0001379 < 0.01
Simulation CPU 0 panic: IPC 0.000197 < 0.01
Simulation CPU 0 panic: IPC 2.19e-05 < 0.01
Simulation CPU 0 panic: IPC 0.0008169 < 0.01
Simulation CPU 0 panic: IPC 0.0008844 < 0.01
Simulation CPU 0 panic: IPC 0.0001471 < 0.01
Simulation CPU 0 panic: IPC 8.91e-05 < 0.01
Simulation CPU 0 panic: IPC 6.78e-05 < 0.01
Simulation CPU 0 panic: IPC 0.000334 < 0.01
Simulation CPU 0 panic: IPC 0.0002733 < 0.01
Simulation CPU 0 panic: IPC 0.000229 < 0.01
Simulation CPU 0 panic: IPC 0.0001019 < 0.01
Simulation CPU 0 panic: IPC 7.73e-05 < 0.01
Simulation CPU 0 panic: IPC 3.57e-05 < 0.01
Simulation CPU 0 panic: IPC 5.28e-05 < 0.01
Simulation CPU 0 panic: IPC 0.0001181 < 0.01
Simulation CPU 0 panic: IPC 7.77e-05 < 0.01
Simulation CPU 0 panic: IPC 6.23e-05 < 0.01
Simulation CPU 0 panic: IPC 0.0004393 < 0.01
Simulation CPU 0 panic: IPC 5.1e-06 < 0.01
Simulation CPU 0 panic: IPC 8.9e-05 < 0.01
Simulation CPU 0 panic: IPC 0.0002086 < 0.01
Simulation CPU 0 panic: IPC 0.00029 < 0.01
Simulation CPU 0 panic: IPC 1.76e-05 < 0.01
Simulation CPU 0 panic: IPC 0.0003894 < 0.01
Simulation CPU 0 panic: IPC 4.15e-05 < 0.01
Simulation CPU 0 panic: IPC 8.53e-05 < 0.01
Simulation CPU 0 panic: IPC 1.94e-05 < 0.01
Simulation CPU 0 panic: IPC 7.81e-05 < 0.01
Simulation CPU 0 panic: IPC 0.0001928 < 0.01
Simulation CPU 0 panic: IPC 4.21e-05 < 0.01
Simulation CPU 0 panic: IPC 1.76e-05 < 0.01
Simulation CPU 0 panic: IPC 1.07e-05 < 0.01
Simulation CPU 0 panic: IPC 4.17e-05 < 0.01
Simulation CPU 0 panic: IPC 1.53e-05 < 0.01
Simulation CPU 0 panic: IPC 0.0003122 < 0.01
Simulation CPU 0 panic: IPC 0.0001441 < 0.01
Simulation CPU 0 panic: IPC 6.3e-05 < 0.01
Simulation CPU 0 panic: IPC 6.38e-05 < 0.01
Simulation CPU 0 panic: IPC 0.0004373 < 0.01
Simulation CPU 0 panic: IPC 0.0001486 < 0.01
Simulation CPU 0 panic: IPC 0.0002091 < 0.01
Simulation CPU 0 panic: IPC 0.0001072 < 0.01
Simulation CPU 0 panic: IPC 0.0001429 < 0.01
Simulation CPU 0 panic: IPC 8.17e-05 < 0.01
Simulation CPU 0 panic: IPC 2.1e-05 < 0.01
Simulation CPU 0 panic: IPC 0.0003139 < 0.01
Simulation CPU 0 panic: IPC 0.0001264 < 0.01
Simulation CPU 0 panic: IPC 0.0003599 < 0.01
Simulation CPU 0 panic: IPC 0.0003924 < 0.01
Simulation CPU 0 panic: IPC 0.0001296 < 0.01
Simulation CPU 0 panic: IPC 6.27e-05 < 0.01
Simulation CPU 0 panic: IPC 2.46e-05 < 0.01
Simulation CPU 0 panic: IPC 0.00022 < 0.01
Simulation CPU 0 panic: IPC 0.0008485 < 0.01
Simulation CPU 0 panic: IPC 0.0002906 < 0.01
Simulation CPU 0 panic: IPC 0.0001656 < 0.01
Simulation CPU 0 panic: IPC 0.0001319 < 0.01
Simulation CPU 0 panic: IPC 0.0002867 < 0.01
Simulation CPU 0 panic: IPC 0.000108 < 0.01
Simulation CPU 0 panic: IPC 0.0003691 < 0.01
Simulation CPU 0 panic: IPC 0.0003023 < 0.01
Simulation CPU 0 panic: IPC 0.0002531 < 0.01
Simulation CPU 0 panic: IPC 9.06e-05 < 0.01
Simulation CPU 0 panic: IPC 3.13e-05 < 0.01
Simulation CPU 0 panic: IPC 0.0005034 < 0.01
Simulation CPU 0 panic: IPC 3.01e-05 < 0.01
Simulation CPU 0 panic: IPC 0.0011624 < 0.01
Simulation CPU 0 panic: IPC 0.0004178 < 0.01
Simulation CPU 0 panic: IPC 0.0004944 < 0.01
Simulation CPU 0 panic: IPC 0.0001229 < 0.01
Simulation CPU 0 panic: IPC 0.0007805 < 0.01
Simulation CPU 0 panic: IPC 9.49e-05 < 0.01
Simulation CPU 0 panic: IPC 0.0001581 < 0.01
Simulation CPU 0 panic: IPC 0.0001256 < 0.01
Simulation CPU 0 panic: IPC 0.0002647 < 0.01
Simulation CPU 0 panic: IPC 9.12e-05 < 0.01
Simulation CPU 0 panic: IPC 0.0004271 < 0.01
Simulation CPU 0 panic: IPC 6.08e-05 < 0.01
Simulation CPU 0 panic: IPC 0.0001186 < 0.01
Simulation CPU 0 panic: IPC 0.0001622 < 0.01
Simulation CPU 0 panic: IPC 0.000209 < 0.01
Simulation CPU 0 panic: IPC 0.0001247 < 0.01
Simulation CPU 0 panic: IPC 4.03e-05 < 0.01
Simulation CPU 0 panic: IPC 2.24e-05 < 0.01
Simulation CPU 0 panic: IPC 8.14e-05 < 0.01
Simulation CPU 0 panic: IPC 0.0002159 < 0.01
Simulation CPU 0 panic: IPC 0.000102 < 0.01
Simulation CPU 0 panic: IPC 0.0001811 < 0.01
Simulation CPU 0 panic: IPC 4.36e-05 < 0.01
Simulation CPU 0 panic: IPC 0.0005 < 0.01
Simulation CPU 0 panic: IPC 0.0002208 < 0.01
Simulation CPU 0 panic: IPC 0.0006199 < 0.01
Simulation CPU 0 panic: IPC 2.53e-05 < 0.01
Simulation CPU 0 panic: IPC 0.0001688 < 0.01
Simulation CPU 0 panic: IPC 0.0007948 < 0.01
Simulation CPU 0 panic: IPC 0.0002768 < 0.01
Simulation CPU 0 panic: IPC 8.6e-06 < 0.01
Simulation CPU 0 panic: IPC 0.0003499 < 0.01
Simulation CPU 0 panic: IPC 0.000323 < 0.01
Simulation CPU 0 panic: IPC 7.77e-05 < 0.01
Simulation CPU 0 panic: IPC 5.61e-05 < 0.01
Simulation CPU 0 panic: IPC 0.0002608 < 0.01
Simulation CPU 0 panic: IPC 7.46e-05 < 0.01
Simulation CPU 0 panic: IPC 0.0002379 < 0.01
Simulation CPU 0 panic: IPC 0.0001566 < 0.01
Simulation CPU 0 panic: IPC 1.14e-05 < 0.01
Simulation CPU 0 panic: IPC 0.0001794 < 0.01
Simulation CPU 0 panic: IPC 0.0003136 < 0.01
Simulation CPU 0 panic: IPC 0.0005114 < 0.01
Simulation CPU 0 panic: IPC 3.8e-05 < 0.01
Simulation CPU 0 panic: IPC 0.0008587 < 0.01
Simulation CPU 0 panic: IPC 0.000485 < 0.01
Simulation CPU 0 panic: IPC 0.0002233 < 0.01
Simulation CPU 0 panic: IPC 0.0002474 < 0.01
Simulation CPU 0 panic: IPC 0.0001173 < 0.01
Simulation CPU 0 panic: IPC 1.81e-05 < 0.01
Simulation CPU 0 panic: IPC 0.0002717 < 0.01
Simulation CPU 0 panic: IPC 0.0002939 < 0.01
Simulation CPU 0 panic: IPC 4e-05 < 0.01
Simulation CPU 0 panic: IPC 6.4e-06 < 0.01
Simulation CPU 0 panic: IPC 0.0012433 < 0.01
Simulation CPU 0 panic: IPC 6.13e-05 < 0.01
Simulation CPU 0 panic: IPC 0.0001075 < 0.01
Simulation CPU 0 panic: IPC 0.0006427 < 0.01
Simulation CPU 0 panic: IPC 6.99e-05 < 0.01
Simulation CPU 0 panic: IPC 0.0002371 < 0.01
Simulation CPU 0 panic: IPC 8.97e-05 < 0.01
Simulation CPU 0 panic: IPC 0.0002711 < 0.01
Simulation CPU 0 panic: IPC 0.0005678 < 0.01
Simulation CPU 0 panic: IPC 0.0002065 < 0.01
Simulation CPU 0 panic: IPC 0.0001829 < 0.01
Simulation CPU 0 panic: IPC 0.0001029 < 0.01
Simulation CPU 0 panic: IPC 3.13e-05 < 0.01
Simulation CPU 0 panic: IPC 4.35e-05 < 0.01
Simulation CPU 0 panic: IPC 0.000262 < 0.01
Simulation CPU 0 panic: IPC 0.000339 < 0.01
Simulation CPU 0 panic: IPC 0.0001928 < 0.01
Simulation CPU 0 panic: IPC 0.000647 < 0.01
Simulation CPU 0 panic: IPC 0.0003275 < 0.01
Simulation CPU 0 panic: IPC 7.3e-05 < 0.01
Simulation CPU 0 panic: IPC 0.0001096 < 0.01
Simulation CPU 0 panic: IPC 0.0002002 < 0.01
Simulation CPU 0 panic: IPC 0.0001027 < 0.01
Simulation CPU 0 panic: IPC 3.77e-05 < 0.01
Simulation CPU 0 panic: IPC 7.95e-05 < 0.01
Simulation CPU 0 panic: IPC 3.04e-05 < 0.01
Simulation CPU 0 panic: IPC 0.0002275 < 0.01
Simulation CPU 0 panic: IPC 0.0002984 < 0.01
Simulation CPU 0 panic: IPC 0.0003179 < 0.01
Simulation CPU 0 panic: IPC 0.0002887 < 0.01
Simulation CPU 0 panic: IPC 0.000205 < 0.01
Simulation CPU 0 panic: IPC 2.87e-05 < 0.01
Simulation CPU 0 panic: IPC 6.03e-05 < 0.01
Simulation CPU 0 panic: IPC 0.0002131 < 0.01
Simulation CPU 0 panic: IPC 0.0002862 < 0.01
Simulation CPU 0 panic: IPC 3.92e-05 < 0.01
Simulation CPU 0 panic: IPC 3.46e-05 < 0.01
Simulation CPU 0 panic: IPC 0.0002005 < 0.01
Simulation CPU 0 panic: IPC 3.95e-05 < 0.01
Simulation CPU 0 panic: IPC 0.000646 < 0.01
Simulation CPU 0 panic: IPC 0.0001899 < 0.01
Simulation CPU 0 panic: IPC 0.000147 < 0.01
Simulation CPU 0 panic: IPC 0.0002102 < 0.01
Simulation CPU 0 panic: IPC 0.0002241 < 0.01
Simulation CPU 0 panic: IPC 0.0004685 < 0.01
Simulation CPU 0 panic: IPC 0.0001088 < 0.01
Simulation CPU 0 panic: IPC 0.0002746 < 0.01
Simulation CPU 0 panic: IPC 5.02e-05 < 0.01
Simulation CPU 0 panic: IPC 9.95e-05 < 0.01
Simulation CPU 0 panic: IPC 4.41e-05 < 0.01
Simulation CPU 0 panic: IPC 0.0001172 < 0.01
Simulation CPU 0 panic: IPC 0.0004682 < 0.01
Simulation CPU 0 panic: IPC 0.0003783 < 0.01
Simulation CPU 0 panic: IPC 5.91e-05 < 0.01
Simulation CPU 0 panic: IPC 0.0005729 < 0.01
Simulation CPU 0 panic: IPC 5.59e-05 < 0.01
Simulation CPU 0 panic: IPC 1.87e-05 < 0.01
Simulation CPU 0 panic: IPC 0.0001355 < 0.01
Simulation CPU 0 panic: IPC 8.82e-05 < 0.01
Simulation CPU 0 panic: IPC 0.0006069 < 0.01
Simulation CPU 0 panic: IPC 2.18e-05 < 0.01
Simulation CPU 0 panic: IPC 0.0002503 < 0.01
Simulation CPU 0 panic: IPC 0.0002295 < 0.01
Simulation CPU 0 panic: IPC 0.000533 < 0.01
Simulation CPU 0 panic: IPC 0.0006402 < 0.01
Simulation CPU 0 panic: IPC 3.09e-05 < 0.01
Simulation CPU 0 panic: IPC 0.0008507 < 0.01
Simulation CPU 0 panic: IPC 0.0001961 < 0.01
Simulation CPU 0 panic: IPC 2.97e-05 < 0.01
Simulation CPU 0 panic: IPC 0.0008716 < 0.01
Simulation CPU 0 panic: IPC 0.0004794 < 0.01
Simulation CPU 0 panic: IPC 2.82e-05 < 0.01
Simulation CPU 0 panic: IPC 0.0003551 < 0.01
Simulation CPU 0 panic: IPC 2.44e-05 < 0.01
Simulation CPU 0 panic: IPC 0.0018517 < 0.01
Simulation CPU 0 panic: IPC 0.000683 < 0.01
Simulation CPU 0 panic: IPC 0.0010219 < 0.01
Simulation CPU 0 panic: IPC 0.0001906 < 0.01
Simulation CPU 0 panic: IPC 0.0003783 < 0.01
Simulation CPU 0 panic: IPC 0.0004302 < 0.01
Simulation CPU 0 panic: IPC 2.3e-06 < 0.01
Simulation CPU 0 panic: IPC 0.0002825 < 0.01
Simulation CPU 0 panic: IPC 7.46e-05 < 0.01
Simulation CPU 0 panic: IPC 4.15e-05 < 0.01
Simulation CPU 0 panic: IPC 6.1e-06 < 0.01
Simulation CPU 0 panic: IPC 0.0004331 < 0.01
Simulation CPU 0 panic: IPC 6.17e-05 < 0.01
Simulation CPU 0 panic: IPC 0.0001894 < 0.01
Simulation CPU 0 panic: IPC 0.0001777 < 0.01
Simulation CPU 0 panic: IPC 0.0002807 < 0.01
Simulation CPU 0 panic: IPC 0.0002951 < 0.01
Simulation CPU 0 panic: IPC 4.1e-05 < 0.01
Simulation CPU 0 panic: IPC 9.01e-05 < 0.01
Simulation CPU 0 panic: IPC 4.96e-05 < 0.01
Simulation CPU 0 panic: IPC 5.58e-05 < 0.01
Simulation CPU 0 panic: IPC 0.0003167 < 0.01
Simulation CPU 0 panic: IPC 0.0002774 < 0.01
Simulation CPU 0 panic: IPC 0.0002782 < 0.01
Simulation CPU 0 panic: IPC 3.43e-05 < 0.01
Simulation CPU 0 panic: IPC 8.24e-05 < 0.01
Simulation CPU 0 panic: IPC 0.0001991 < 0.01
Simulation CPU 0 panic: IPC 0.0008872 < 0.01
Simulation CPU 0 panic: IPC 1.56e-05 < 0.01
Simulation CPU 0 panic: IPC 0.0001762 < 0.01
Simulation CPU 0 panic: IPC 0.0002859 < 0.01
Simulation CPU 0 panic: IPC 0.0010916 < 0.01
Simulation CPU 0 panic: IPC 0.001065 < 0.01
Simulation CPU 0 panic: IPC 1.8e-06 < 0.01
Simulation CPU 0 panic: IPC 0.0011213 < 0.01
Simulation CPU 0 panic: IPC 0.0002427 < 0.01
Simulation CPU 0 panic: IPC 0.0005411 < 0.01
Simulation CPU 0 panic: IPC 0.0003029 < 0.01
Simulation CPU 0 panic: IPC 0.0001096 < 0.01
Simulation CPU 0 panic: IPC 0.0004023 < 0.01
Simulation CPU 0 panic: IPC 0.0005972 < 0.01
Simulation CPU 0 panic: IPC 8.07e-05 < 0.01
Simulation CPU 0 panic: IPC 0.0003685 < 0.01
Simulation CPU 0 panic: IPC 0.0001653 < 0.01
Simulation CPU 0 panic: IPC 0.0008265 < 0.01
Simulation CPU 0 panic: IPC 0.001385 < 0.01
Simulation CPU 0 panic: IPC 8.43e-05 < 0.01
Simulation CPU 0 panic: IPC 0.0012837 < 0.01
Simulation CPU 0 panic: IPC 0.0018117 < 0.01
Simulation CPU 0 panic: IPC 2.33e-05 < 0.01
Simulation CPU 0 panic: IPC 0.001022 < 0.01
Simulation CPU 0 panic: IPC 7.88e-05 < 0.01
Simulation CPU 0 panic: IPC 0.0009112 < 0.01
Simulation CPU 0 panic: IPC 0.0011197 < 0.01
Heartbeat CPU 0 instructions: 30000002 cycles: 10362936166 heartbeat IPC: 0.002221 cumulative IPC: 0.002895 (Simulation time: 14 hr 17 min 44 sec)
Heartbeat CPU 0 instructions: 40000005 cycles: 10373193641 heartbeat IPC: 0.9749 cumulative IPC: 0.003856 (Simulation time: 14 hr 18 min 41 sec)
Simulation CPU 0 panic: IPC 1.09e-05 < 0.01
Simulation CPU 0 panic: IPC 0.0002232 < 0.01
Simulation CPU 0 panic: IPC 0.0001449 < 0.01
Simulation CPU 0 panic: IPC 0.0005373 < 0.01
Simulation CPU 0 panic: IPC 0.000802 < 0.01
Simulation CPU 0 panic: IPC 0.0015221 < 0.01
Simulation CPU 0 panic: IPC 0.0010207 < 0.01
Simulation CPU 0 panic: IPC 0.0043945 < 0.01
Simulation CPU 0 panic: IPC 0.0001536 < 0.01
Simulation CPU 0 panic: IPC 0.0001136 < 0.01
Simulation CPU 0 panic: IPC 0.001236 < 0.01
Simulation CPU 0 panic: IPC 0.0011719 < 0.01
Simulation CPU 0 panic: IPC 0.0008616 < 0.01
Simulation CPU 0 panic: IPC 0.0004781 < 0.01
Simulation CPU 0 panic: IPC 0.0003362 < 0.01
Simulation CPU 0 panic: IPC 0.0004577 < 0.01
Simulation CPU 0 panic: IPC 0.0014182 < 0.01
Simulation CPU 0 panic: IPC 0.003327 < 0.01
Simulation CPU 0 panic: IPC 0.0007901 < 0.01
Simulation CPU 0 panic: IPC 0.0039301 < 0.01
Simulation CPU 0 panic: IPC 0.0039655 < 0.01
Simulation CPU 0 panic: IPC 0.0001885 < 0.01
Simulation CPU 0 panic: IPC 0.0010644 < 0.01
Simulation CPU 0 panic: IPC 0.0027768 < 0.01
Simulation CPU 0 panic: IPC 0.0009948 < 0.01
Simulation CPU 0 panic: IPC 0.0002379 < 0.01
Simulation CPU 0 panic: IPC 0.0038665 < 0.01
Simulation CPU 0 panic: IPC 8.26e-05 < 0.01
Simulation CPU 0 panic: IPC 0.002507 < 0.01
Simulation CPU 0 panic: IPC 0.0040519 < 0.01
Simulation CPU 0 panic: IPC 0.0036955 < 0.01
Simulation CPU 0 panic: IPC 0.0023399 < 0.01
Simulation CPU 0 panic: IPC 0.003127 < 0.01
Simulation CPU 0 panic: IPC 0.0037248 < 0.01
Simulation CPU 0 panic: IPC 0.0015504 < 0.01
Simulation CPU 0 panic: IPC 0.0014659 < 0.01
Simulation CPU 0 panic: IPC 0.0016552 < 0.01
Simulation CPU 0 panic: IPC 0.0012115 < 0.01
Simulation CPU 0 panic: IPC 0.0019959 < 0.01
Simulation CPU 0 panic: IPC 0.0013098 < 0.01
Simulation CPU 0 panic: IPC 0.0041551 < 0.01
Simulation CPU 0 panic: IPC 0.0025454 < 0.01
Simulation CPU 0 panic: IPC 0.0017551 < 0.01
Simulation CPU 0 panic: IPC 0.0009659 < 0.01
Simulation CPU 0 critical: IPC 0.011097 < 0.02
Simulation CPU 0 panic: IPC 0.001022 < 0.01
Simulation CPU 0 panic: IPC 0.0005779 < 0.01
Simulation CPU 0 panic: IPC 0.002196 < 0.01
Simulation CPU 0 panic: IPC 0.0060555 < 0.01
Simulation CPU 0 panic: IPC 0.0009893 < 0.01
Simulation CPU 0 panic: IPC 0.0005063 < 0.01
Simulation CPU 0 panic: IPC 0.005345 < 0.01
Simulation CPU 0 panic: IPC 0.0016333 < 0.01
Simulation CPU 0 panic: IPC 0.0038256 < 0.01
Simulation CPU 0 panic: IPC 0.0008069 < 0.01
Simulation CPU 0 panic: IPC 0.0005036 < 0.01
Simulation CPU 0 panic: IPC 0.000706 < 0.01
Simulation CPU 0 panic: IPC 0.002116 < 0.01
Simulation CPU 0 panic: IPC 0.0039969 < 0.01
Simulation CPU 0 panic: IPC 0.0004757 < 0.01
Simulation CPU 0 panic: IPC 0.004217 < 0.01
Simulation CPU 0 panic: IPC 0.0032196 < 0.01
Simulation CPU 0 panic: IPC 0.001873 < 0.01
Simulation CPU 0 panic: IPC 0.0018213 < 0.01
Simulation CPU 0 panic: IPC 0.0002664 < 0.01
Simulation CPU 0 panic: IPC 0.0019407 < 0.01
Simulation CPU 0 panic: IPC 0.0026608 < 0.01
Simulation CPU 0 panic: IPC 0.0018177 < 0.01
Simulation CPU 0 panic: IPC 0.0039653 < 0.01
Simulation CPU 0 panic: IPC 0.0035213 < 0.01
Simulation CPU 0 panic: IPC 0.0009275 < 0.01
Simulation CPU 0 panic: IPC 0.0025717 < 0.01
Simulation CPU 0 panic: IPC 0.0001925 < 0.01
Simulation CPU 0 panic: IPC 0.004238 < 0.01
Simulation CPU 0 panic: IPC 0.0004441 < 0.01
Simulation CPU 0 panic: IPC 0.0001163 < 0.01
Simulation CPU 0 panic: IPC 0.0075735 < 0.01
Simulation CPU 0 panic: IPC 0.0019043 < 0.01
Simulation CPU 0 panic: IPC 0.0043376 < 0.01
Simulation CPU 0 panic: IPC 0.0024248 < 0.01
Simulation CPU 0 panic: IPC 0.0055995 < 0.01
Simulation CPU 0 panic: IPC 0.0002012 < 0.01
Simulation CPU 0 panic: IPC 0.0060398 < 0.01
Simulation CPU 0 panic: IPC 0.0002445 < 0.01
Simulation CPU 0 panic: IPC 0.0001638 < 0.01
Simulation CPU 0 panic: IPC 0.0013849 < 0.01
Simulation CPU 0 panic: IPC 0.0006916 < 0.01
Simulation CPU 0 panic: IPC 0.0008969 < 0.01
Simulation CPU 0 panic: IPC 0.0058898 < 0.01
Simulation CPU 0 panic: IPC 0.0018609 < 0.01
Simulation CPU 0 panic: IPC 0.0039194 < 0.01
Simulation CPU 0 panic: IPC 0.0017347 < 0.01
Simulation CPU 0 panic: IPC 0.0037237 < 0.01
Simulation CPU 0 panic: IPC 0.0018712 < 0.01
Simulation CPU 0 panic: IPC 0.0001619 < 0.01
Simulation CPU 0 panic: IPC 0.0002635 < 0.01
Simulation CPU 0 panic: IPC 0.0027166 < 0.01
Simulation CPU 0 panic: IPC 0.0001772 < 0.01
Simulation CPU 0 panic: IPC 0.0011788 < 0.01
Simulation CPU 0 panic: IPC 0.0005091 < 0.01
Simulation CPU 0 panic: IPC 7.05e-05 < 0.01
Simulation CPU 0 panic: IPC 0.0001396 < 0.01
Simulation CPU 0 panic: IPC 0.0016226 < 0.01
Simulation CPU 0 panic: IPC 0.0020205 < 0.01
Simulation CPU 0 panic: IPC 0.0004642 < 0.01
Simulation CPU 0 panic: IPC 0.0049168 < 0.01
Simulation CPU 0 critical: IPC 0.011131 < 0.02
Simulation CPU 0 panic: IPC 0.0021724 < 0.01
Simulation CPU 0 panic: IPC 0.0020781 < 0.01
Simulation CPU 0 panic: IPC 0.0003764 < 0.01
Simulation CPU 0 panic: IPC 0.0047292 < 0.01
Simulation CPU 0 panic: IPC 0.000702 < 0.01
Simulation CPU 0 panic: IPC 0.0047868 < 0.01
Simulation CPU 0 panic: IPC 0.0002701 < 0.01
Simulation CPU 0 panic: IPC 0.0024955 < 0.01
Simulation CPU 0 panic: IPC 0.0006319 < 0.01
Simulation CPU 0 panic: IPC 0.0038167 < 0.01
Simulation CPU 0 panic: IPC 5.04e-05 < 0.01
Simulation CPU 0 panic: IPC 0.0037798 < 0.01
Simulation CPU 0 panic: IPC 0.007728 < 0.01
Simulation CPU 0 panic: IPC 0.0008035 < 0.01
Simulation CPU 0 panic: IPC 0.0033511 < 0.01
Simulation CPU 0 panic: IPC 0.0086842 < 0.01
Simulation CPU 0 panic: IPC 0.0008329 < 0.01
Simulation CPU 0 panic: IPC 0.0063675 < 0.01
Simulation CPU 0 panic: IPC 0.0010047 < 0.01
Simulation CPU 0 panic: IPC 0.0008566 < 0.01
Simulation CPU 0 panic: IPC 0.0005742 < 0.01
Simulation CPU 0 panic: IPC 0.00121 < 0.01
Simulation CPU 0 panic: IPC 0.001071 < 0.01
Simulation CPU 0 panic: IPC 0.0028446 < 0.01
Simulation CPU 0 panic: IPC 0.0017474 < 0.01
Simulation CPU 0 panic: IPC 0.0032243 < 0.01
Simulation CPU 0 panic: IPC 0.005999 < 0.01
Simulation CPU 0 panic: IPC 0.0024843 < 0.01
Simulation CPU 0 panic: IPC 0.0018997 < 0.01
Simulation CPU 0 panic: IPC 0.0017735 < 0.01
Simulation CPU 0 panic: IPC 0.001565 < 0.01
Simulation CPU 0 panic: IPC 0.002997 < 0.01
Simulation CPU 0 panic: IPC 0.0002374 < 0.01
Simulation CPU 0 panic: IPC 0.0023981 < 0.01
Simulation CPU 0 panic: IPC 0.0010499 < 0.01
Simulation CPU 0 panic: IPC 0.0026072 < 0.01
Simulation CPU 0 panic: IPC 0.0010872 < 0.01
Simulation CPU 0 panic: IPC 0.0018779 < 0.01
Simulation CPU 0 panic: IPC 0.0005511 < 0.01
Simulation CPU 0 panic: IPC 0.0061565 < 0.01
Simulation CPU 0 panic: IPC 0.0008642 < 0.01
Simulation CPU 0 panic: IPC 0.002206 < 0.01
Simulation CPU 0 panic: IPC 0.0005595 < 0.01
Simulation CPU 0 panic: IPC 0.0007938 < 0.01
Simulation CPU 0 panic: IPC 0.0009042 < 0.01
Simulation CPU 0 panic: IPC 0.0005772 < 0.01
Simulation CPU 0 panic: IPC 0.0006617 < 0.01
Simulation CPU 0 panic: IPC 0.0056233 < 0.01
Simulation CPU 0 panic: IPC 0.0024556 < 0.01
Simulation CPU 0 panic: IPC 0.0009825 < 0.01
Simulation CPU 0 panic: IPC 0.0013106 < 0.01
Simulation CPU 0 panic: IPC 0.0001617 < 0.01
Simulation CPU 0 panic: IPC 0.0016575 < 0.01
Simulation CPU 0 panic: IPC 0.0028725 < 0.01
Simulation CPU 0 panic: IPC 0.0017505 < 0.01
Simulation CPU 0 panic: IPC 0.001929 < 0.01
Simulation CPU 0 panic: IPC 0.0006884 < 0.01
Simulation CPU 0 panic: IPC 0.001009 < 0.01
Simulation CPU 0 panic: IPC 0.0038769 < 0.01
Simulation CPU 0 panic: IPC 0.0007594 < 0.01
Simulation CPU 0 panic: IPC 0.0019421 < 0.01
Simulation CPU 0 panic: IPC 0.0006368 < 0.01
Simulation CPU 0 panic: IPC 0.0012415 < 0.01
Simulation CPU 0 panic: IPC 0.0062068 < 0.01
Simulation CPU 0 panic: IPC 0.0053697 < 0.01
Simulation CPU 0 panic: IPC 2.92e-05 < 0.01
Simulation CPU 0 panic: IPC 0.00192 < 0.01
Simulation CPU 0 panic: IPC 0.0001657 < 0.01
Simulation CPU 0 panic: IPC 0.002724 < 0.01
Simulation CPU 0 panic: IPC 0.0036257 < 0.01
Simulation CPU 0 panic: IPC 0.0005362 < 0.01
Simulation CPU 0 panic: IPC 0.0007185 < 0.01
Simulation CPU 0 panic: IPC 0.0031278 < 0.01
Simulation CPU 0 panic: IPC 0.0001112 < 0.01
Simulation CPU 0 panic: IPC 0.0063878 < 0.01
Simulation CPU 0 panic: IPC 0.0020873 < 0.01
Simulation CPU 0 panic: IPC 0.0009473 < 0.01
Simulation CPU 0 panic: IPC 0.0027472 < 0.01
Simulation CPU 0 panic: IPC 0.0023522 < 0.01
Simulation CPU 0 panic: IPC 0.0009493 < 0.01
Simulation CPU 0 panic: IPC 0.0005279 < 0.01
Simulation CPU 0 panic: IPC 0.0013248 < 0.01
Simulation CPU 0 panic: IPC 0.0046057 < 0.01
Simulation CPU 0 critical: IPC 0.018212 < 0.02
Heartbeat CPU 0 instructions: 50000005 cycles: 12302459883 heartbeat IPC: 0.005183 cumulative IPC: 0.004064 (Simulation time: 16 hr 51 min 54 sec)
Heartbeat CPU 0 instructions: 60000005 cycles: 12317704571 heartbeat IPC: 0.656 cumulative IPC: 0.004871 (Simulation time: 16 hr 53 min 36 sec)
Heartbeat CPU 0 instructions: 70000005 cycles: 12333624807 heartbeat IPC: 0.6281 cumulative IPC: 0.005676 (Simulation time: 16 hr 55 min 22 sec)
Heartbeat CPU 0 instructions: 80000007 cycles: 12343505076 heartbeat IPC: 1.012 cumulative IPC: 0.006481 (Simulation time: 16 hr 56 min 36 sec)
Heartbeat CPU 0 instructions: 90000007 cycles: 12353989467 heartbeat IPC: 0.9538 cumulative IPC: 0.007285 (Simulation time: 16 hr 57 min 32 sec)
Heartbeat CPU 0 instructions: 100000007 cycles: 12363336204 heartbeat IPC: 1.07 cumulative IPC: 0.008088 (Simulation time: 16 hr 58 min 21 sec)
Heartbeat CPU 0 instructions: 110000007 cycles: 12383347817 heartbeat IPC: 0.4997 cumulative IPC: 0.008883 (Simulation time: 17 hr 00 min 12 sec)
Heartbeat CPU 0 instructions: 120000009 cycles: 12396953055 heartbeat IPC: 0.735 cumulative IPC: 0.00968 (Simulation time: 17 hr 01 min 32 sec)
Heartbeat CPU 0 instructions: 130000011 cycles: 12407653283 heartbeat IPC: 0.9346 cumulative IPC: 0.01048 (Simulation time: 17 hr 02 min 48 sec)
Simulation CPU 0 panic: IPC 0.001496 < 0.01
Simulation CPU 0 critical: IPC 0.017236 < 0.02
Simulation CPU 0 panic: IPC 0.0020877 < 0.01
Simulation CPU 0 panic: IPC 0.0002275 < 0.01
Simulation CPU 0 warning: IPC 0.03943 < 0.05
Simulation CPU 0 panic: IPC 0.0035797 < 0.01
Simulation CPU 0 panic: IPC 0.000357 < 0.01
Simulation CPU 0 panic: IPC 0.0001088 < 0.01
Simulation CPU 0 critical: IPC 0.016886 < 0.02
Simulation CPU 0 panic: IPC 0.0063793 < 0.01
Simulation CPU 0 panic: IPC 0.0045273 < 0.01
Simulation CPU 0 panic: IPC 0.0014785 < 0.01
Simulation CPU 0 panic: IPC 0.0093019 < 0.01
Simulation CPU 0 critical: IPC 0.012603 < 0.02
Simulation CPU 0 panic: IPC 0.0019676 < 0.01
Simulation CPU 0 panic: IPC 0.0079056 < 0.01
Simulation CPU 0 panic: IPC 6.29e-05 < 0.01
Simulation CPU 0 panic: IPC 0.0045969 < 0.01
Simulation CPU 0 panic: IPC 0.0067695 < 0.01
Simulation CPU 0 panic: IPC 0.0034548 < 0.01
Simulation CPU 0 panic: IPC 0.0087781 < 0.01
Simulation CPU 0 critical: IPC 0.014632 < 0.02
Simulation CPU 0 panic: IPC 0.0010875 < 0.01
Simulation CPU 0 panic: IPC 0.0010083 < 0.01
Simulation CPU 0 critical: IPC 0.015786 < 0.02
Simulation CPU 0 panic: IPC 0.0051403 < 0.01
Simulation CPU 0 critical: IPC 0.016832 < 0.02
Simulation CPU 0 panic: IPC 0.0064024 < 0.01
Heartbeat CPU 0 instructions: 140000012 cycles: 12702108100 heartbeat IPC: 0.03396 cumulative IPC: 0.01102 (Simulation time: 17 hr 26 min 13 sec)
Simulation CPU 0 warning: IPC 0.029312 < 0.05
Simulation CPU 0 panic: IPC 0.0027006 < 0.01
Simulation CPU 0 panic: IPC 0.0091198 < 0.01
Simulation CPU 0 panic: IPC 0.0042005 < 0.01
Simulation CPU 0 panic: IPC 0.0039546 < 0.01
Simulation CPU 0 panic: IPC 0.0082611 < 0.01
Simulation CPU 0 panic: IPC 0.0066303 < 0.01
Simulation CPU 0 panic: IPC 0.0087019 < 0.01
Simulation CPU 0 panic: IPC 0.0023258 < 0.01
Simulation CPU 0 panic: IPC 0.0068166 < 0.01
Simulation CPU 0 warning: IPC 0.02462 < 0.05
Simulation CPU 0 critical: IPC 0.017064 < 0.02
Simulation CPU 0 panic: IPC 0.0071573 < 0.01
Simulation CPU 0 warning: IPC 0.031887 < 0.05
Simulation CPU 0 panic: IPC 0.0074807 < 0.01
Simulation CPU 0 panic: IPC 0.0029348 < 0.01
Simulation CPU 0 critical: IPC 0.01162 < 0.02
Simulation CPU 0 critical: IPC 0.011349 < 0.02
Simulation CPU 0 panic: IPC 0.0039513 < 0.01
Simulation CPU 0 panic: IPC 0.009105 < 0.01
Simulation CPU 0 panic: IPC 0.0089175 < 0.01
Simulation CPU 0 panic: IPC 0.0090605 < 0.01
Simulation CPU 0 critical: IPC 0.013525 < 0.02
Simulation CPU 0 panic: IPC 0.0036368 < 0.01
Simulation CPU 0 critical: IPC 0.014236 < 0.02
Simulation CPU 0 panic: IPC 0.0028467 < 0.01
Simulation CPU 0 critical: IPC 0.013253 < 0.02
Heartbeat CPU 0 instructions: 150000014 cycles: 12986914699 heartbeat IPC: 0.03511 cumulative IPC: 0.01155 (Simulation time: 17 hr 49 min 42 sec)
Heartbeat CPU 0 instructions: 160000017 cycles: 12997996639 heartbeat IPC: 0.9024 cumulative IPC: 0.01231 (Simulation time: 17 hr 51 min 04 sec)
Heartbeat CPU 0 instructions: 170000020 cycles: 13006110336 heartbeat IPC: 1.232 cumulative IPC: 0.01307 (Simulation time: 17 hr 52 min 09 sec)
Heartbeat CPU 0 instructions: 180000022 cycles: 13035452787 heartbeat IPC: 0.3408 cumulative IPC: 0.01381 (Simulation time: 17 hr 55 min 11 sec)
Heartbeat CPU 0 instructions: 190000022 cycles: 13044001903 heartbeat IPC: 1.17 cumulative IPC: 0.01457 (Simulation time: 17 hr 56 min 19 sec)
Heartbeat CPU 0 instructions: 200000022 cycles: 13055356421 heartbeat IPC: 0.8807 cumulative IPC: 0.01532 (Simulation time: 17 hr 57 min 40 sec)
Heartbeat CPU 0 instructions: 210000023 cycles: 13072104757 heartbeat IPC: 0.5971 cumulative IPC: 0.01606 (Simulation time: 17 hr 59 min 15 sec)
Heartbeat CPU 0 instructions: 220000024 cycles: 13094383563 heartbeat IPC: 0.4489 cumulative IPC: 0.0168 (Simulation time: 18 hr 01 min 26 sec)
Heartbeat CPU 0 instructions: 230000024 cycles: 13104905847 heartbeat IPC: 0.9504 cumulative IPC: 0.01755 (Simulation time: 18 hr 02 min 43 sec)
Heartbeat CPU 0 instructions: 240000024 cycles: 13116590676 heartbeat IPC: 0.8558 cumulative IPC: 0.0183 (Simulation time: 18 hr 04 min 07 sec)
Heartbeat CPU 0 instructions: 250000028 cycles: 13125216547 heartbeat IPC: 1.159 cumulative IPC: 0.01905 (Simulation time: 18 hr 05 min 14 sec)
Simulation CPU 0 panic: IPC 5.8e-06 < 0.01
Simulation CPU 0 panic: IPC 5.3e-06 < 0.01
Simulation CPU 0 panic: IPC 1.2e-06 < 0.01
Simulation CPU 0 critical: IPC 0.015663 < 0.02
Simulation CPU 0 critical: IPC 0.016426 < 0.02
Simulation CPU 0 warning: IPC 0.034375 < 0.05
Simulation CPU 0 warning: IPC 0.022789 < 0.05
Simulation CPU 0 critical: IPC 0.019893 < 0.02
Simulation CPU 0 warning: IPC 0.025095 < 0.05
Heartbeat CPU 0 instructions: 260000028 cycles: 13294887442 heartbeat IPC: 0.05894 cumulative IPC: 0.01956 (Simulation time: 18 hr 19 min 33 sec)
Simulation CPU 0 panic: IPC 0.0084805 < 0.01
Simulation CPU 0 warning: IPC 0.024518 < 0.05
Simulation CPU 0 warning: IPC 0.032342 < 0.05
Simulation CPU 0 critical: IPC 0.017426 < 0.02
Heartbeat CPU 0 instructions: 270000028 cycles: 13409823852 heartbeat IPC: 0.087 cumulative IPC: 0.02013 (Simulation time: 18 hr 29 min 18 sec)
Heartbeat CPU 0 instructions: 280000028 cycles: 13427001634 heartbeat IPC: 0.5821 cumulative IPC: 0.02085 (Simulation time: 18 hr 31 min 09 sec)
Heartbeat CPU 0 instructions: 290000029 cycles: 13444071287 heartbeat IPC: 0.5858 cumulative IPC: 0.02157 (Simulation time: 18 hr 32 min 55 sec)
Heartbeat CPU 0 instructions: 300000029 cycles: 13462475715 heartbeat IPC: 0.5433 cumulative IPC: 0.02228 (Simulation time: 18 hr 34 min 54 sec)
Heartbeat CPU 0 instructions: 310000030 cycles: 13473344185 heartbeat IPC: 0.9201 cumulative IPC: 0.02301 (Simulation time: 18 hr 36 min 12 sec)
Heartbeat CPU 0 instructions: 320000030 cycles: 13484103382 heartbeat IPC: 0.9294 cumulative IPC: 0.02373 (Simulation time: 18 hr 37 min 31 sec)
Heartbeat CPU 0 instructions: 330000032 cycles: 13507239841 heartbeat IPC: 0.4322 cumulative IPC: 0.02443 (Simulation time: 18 hr 39 min 35 sec)
Heartbeat CPU 0 instructions: 340000032 cycles: 13518020470 heartbeat IPC: 0.9276 cumulative IPC: 0.02515 (Simulation time: 18 hr 40 min 42 sec)
Heartbeat CPU 0 instructions: 350000032 cycles: 13526166824 heartbeat IPC: 1.228 cumulative IPC: 0.02588 (Simulation time: 18 hr 41 min 24 sec)
Heartbeat CPU 0 instructions: 360000032 cycles: 13546978012 heartbeat IPC: 0.4805 cumulative IPC: 0.02657 (Simulation time: 18 hr 43 min 01 sec)
Heartbeat CPU 0 instructions: 370000034 cycles: 13559422348 heartbeat IPC: 0.8036 cumulative IPC: 0.02729 (Simulation time: 18 hr 43 min 59 sec)
Heartbeat CPU 0 instructions: 380000034 cycles: 13568856477 heartbeat IPC: 1.06 cumulative IPC: 0.02801 (Simulation time: 18 hr 44 min 58 sec)
Heartbeat CPU 0 instructions: 390000034 cycles: 13593972103 heartbeat IPC: 0.3982 cumulative IPC: 0.02869 (Simulation time: 18 hr 47 min 30 sec)
Heartbeat CPU 0 instructions: 400000034 cycles: 13618478213 heartbeat IPC: 0.4081 cumulative IPC: 0.02937 (Simulation time: 18 hr 50 min 03 sec)
Heartbeat CPU 0 instructions: 410000034 cycles: 13629101326 heartbeat IPC: 0.9413 cumulative IPC: 0.03008 (Simulation time: 18 hr 51 min 19 sec)
Heartbeat CPU 0 instructions: 420000035 cycles: 13638035236 heartbeat IPC: 1.119 cumulative IPC: 0.0308 (Simulation time: 18 hr 52 min 25 sec)
Heartbeat CPU 0 instructions: 430000038 cycles: 13651715809 heartbeat IPC: 0.731 cumulative IPC: 0.0315 (Simulation time: 18 hr 53 min 56 sec)
Heartbeat CPU 0 instructions: 440000041 cycles: 13684164679 heartbeat IPC: 0.3082 cumulative IPC: 0.03215 (Simulation time: 18 hr 56 min 54 sec)
Heartbeat CPU 0 instructions: 450000044 cycles: 13692654301 heartbeat IPC: 1.178 cumulative IPC: 0.03286 (Simulation time: 18 hr 57 min 41 sec)
Heartbeat CPU 0 instructions: 460000044 cycles: 13706238394 heartbeat IPC: 0.7362 cumulative IPC: 0.03356 (Simulation time: 18 hr 58 min 59 sec)
Heartbeat CPU 0 instructions: 470000044 cycles: 13715160198 heartbeat IPC: 1.121 cumulative IPC: 0.03427 (Simulation time: 19 hr 00 min 05 sec)
Heartbeat CPU 0 instructions: 480000045 cycles: 13725085755 heartbeat IPC: 1.008 cumulative IPC: 0.03497 (Simulation time: 19 hr 01 min 19 sec)
Heartbeat CPU 0 instructions: 490000046 cycles: 13750815092 heartbeat IPC: 0.3887 cumulative IPC: 0.03563 (Simulation time: 19 hr 03 min 52 sec)
Heartbeat CPU 0 instructions: 500000046 cycles: 13760913787 heartbeat IPC: 0.9902 cumulative IPC: 0.03633 (Simulation time: 19 hr 04 min 54 sec)
Heartbeat CPU 0 instructions: 510000047 cycles: 13772276404 heartbeat IPC: 0.8801 cumulative IPC: 0.03703 (Simulation time: 19 hr 06 min 05 sec)
Heartbeat CPU 0 instructions: 520000048 cycles: 13780885807 heartbeat IPC: 1.162 cumulative IPC: 0.03773 (Simulation time: 19 hr 07 min 02 sec)
Heartbeat CPU 0 instructions: 530000052 cycles: 13791241761 heartbeat IPC: 0.9656 cumulative IPC: 0.03843 (Simulation time: 19 hr 08 min 02 sec)
Simulation CPU 0 panic: IPC 1.3e-06 < 0.01
Simulation CPU 0 panic: IPC 3.8e-06 < 0.01
Simulation CPU 0 panic: IPC 1.3e-06 < 0.01
Simulation CPU 0 panic: IPC 5.3e-06 < 0.01
Simulation CPU 0 warning: IPC 0.021691 < 0.05
Simulation CPU 0 warning: IPC 0.034925 < 0.05
Simulation CPU 0 critical: IPC 0.016405 < 0.02
Simulation CPU 0 warning: IPC 0.02656 < 0.05
Simulation CPU 0 panic: IPC 0.0018624 < 0.01
Simulation CPU 0 critical: IPC 0.014784 < 0.02
Simulation CPU 0 warning: IPC 0.044701 < 0.05
Simulation CPU 0 warning: IPC 0.032263 < 0.05
Simulation CPU 0 panic: IPC 0.0068826 < 0.01
Simulation CPU 0 warning: IPC 0.047257 < 0.05
Simulation CPU 0 warning: IPC 0.040052 < 0.05
Simulation CPU 0 warning: IPC 0.030267 < 0.05
Simulation CPU 0 panic: IPC 0.0036528 < 0.01
Simulation CPU 0 warning: IPC 0.048292 < 0.05
Simulation CPU 0 warning: IPC 0.027268 < 0.05
Simulation CPU 0 critical: IPC 0.010337 < 0.02
Simulation CPU 0 warning: IPC 0.040249 < 0.05
Simulation CPU 0 critical: IPC 0.014793 < 0.02
Simulation CPU 0 critical: IPC 0.011298 < 0.02
Simulation CPU 0 warning: IPC 0.035708 < 0.05
Simulation CPU 0 critical: IPC 0.013475 < 0.02
Heartbeat CPU 0 instructions: 540000053 cycles: 14073060619 heartbeat IPC: 0.03548 cumulative IPC: 0.03837 (Simulation time: 19 hr 28 min 46 sec)
Simulation CPU 0 warning: IPC 0.034467 < 0.05
Simulation CPU 0 panic: IPC 0.0069732 < 0.01
Simulation CPU 0 warning: IPC 0.021373 < 0.05
Simulation CPU 0 warning: IPC 0.047834 < 0.05
Simulation CPU 0 warning: IPC 0.048049 < 0.05
Simulation CPU 0 critical: IPC 0.010094 < 0.02
Simulation CPU 0 panic: IPC 0.0038699 < 0.01
Simulation CPU 0 warning: IPC 0.042961 < 0.05
Simulation CPU 0 panic: IPC 0.003213 < 0.01
Simulation CPU 0 critical: IPC 0.014776 < 0.02
Simulation CPU 0 warning: IPC 0.042481 < 0.05
Simulation CPU 0 warning: IPC 0.024948 < 0.05
Simulation CPU 0 warning: IPC 0.044979 < 0.05
Simulation CPU 0 panic: IPC 0.0093349 < 0.01
Simulation CPU 0 warning: IPC 0.030843 < 0.05
Simulation CPU 0 warning: IPC 0.026509 < 0.05
Simulation CPU 0 panic: IPC 0.0010005 < 0.01
Simulation CPU 0 warning: IPC 0.043335 < 0.05
Simulation CPU 0 panic: IPC 0.001653 < 0.01
Simulation CPU 0 panic: IPC 0 < 0.01
Simulation CPU 0 critical: IPC 0.019849 < 0.02
Simulation CPU 0 warning: IPC 0.04462 < 0.05
Simulation CPU 0 critical: IPC 0.010106 < 0.02
Simulation CPU 0 critical: IPC 0.018078 < 0.02
Simulation CPU 0 critical: IPC 0.018059 < 0.02
Heartbeat CPU 0 instructions: 550000054 cycles: 14389286374 heartbeat IPC: 0.03162 cumulative IPC: 0.03822 (Simulation time: 19 hr 55 min 38 sec)
Simulation CPU 0 warning: IPC 0.032255 < 0.05
Simulation CPU 0 panic: IPC 0.0031207 < 0.01
Simulation CPU 0 warning: IPC 0.039626 < 0.05
Simulation CPU 0 critical: IPC 0.019037 < 0.02
Simulation CPU 0 critical: IPC 0.018054 < 0.02
Simulation CPU 0 warning: IPC 0.028388 < 0.05
Simulation CPU 0 warning: IPC 0.028302 < 0.05
Simulation CPU 0 critical: IPC 0.012512 < 0.02
Simulation CPU 0 warning: IPC 0.035295 < 0.05
Simulation CPU 0 warning: IPC 0.026765 < 0.05
Simulation CPU 0 critical: IPC 0.017467 < 0.02
Simulation CPU 0 critical: IPC 0.01735 < 0.02
Simulation CPU 0 critical: IPC 0.016695 < 0.02
Simulation CPU 0 warning: IPC 0.029346 < 0.05
Simulation CPU 0 critical: IPC 0.014411 < 0.02
Simulation CPU 0 warning: IPC 0.021798 < 0.05
Simulation CPU 0 critical: IPC 0.010878 < 0.02
Simulation CPU 0 warning: IPC 0.024586 < 0.05
Simulation CPU 0 critical: IPC 0.017296 < 0.02
Simulation CPU 0 warning: IPC 0.026737 < 0.05
Simulation CPU 0 critical: IPC 0.019242 < 0.02
Simulation CPU 0 critical: IPC 0.016679 < 0.02
Simulation CPU 0 warning: IPC 0.035373 < 0.05
Simulation CPU 0 panic: IPC 0.0001573 < 0.01
Simulation CPU 0 warning: IPC 0.046159 < 0.05
Simulation CPU 0 warning: IPC 0.026897 < 0.05
Heartbeat CPU 0 instructions: 560000054 cycles: 14700878649 heartbeat IPC: 0.03209 cumulative IPC: 0.03809 (Simulation time: 20 hr 22 min 31 sec)
Simulation CPU 0 warning: IPC 0.033308 < 0.05
Simulation CPU 0 warning: IPC 0.025707 < 0.05
Simulation CPU 0 critical: IPC 0.015364 < 0.02
Simulation CPU 0 warning: IPC 0.036629 < 0.05
Simulation CPU 0 critical: IPC 0.011111 < 0.02
Simulation CPU 0 warning: IPC 0.036228 < 0.05
Simulation CPU 0 warning: IPC 0.03081 < 0.05
Simulation CPU 0 warning: IPC 0.035095 < 0.05
Simulation CPU 0 panic: IPC 0.0002298 < 0.01
Simulation CPU 0 critical: IPC 0.01616 < 0.02
Simulation CPU 0 panic: IPC 0.0078878 < 0.01
Simulation CPU 0 warning: IPC 0.026456 < 0.05
Simulation CPU 0 critical: IPC 0.018831 < 0.02
Simulation CPU 0 warning: IPC 0.020241 < 0.05
Simulation CPU 0 critical: IPC 0.017829 < 0.02
Simulation CPU 0 warning: IPC 0.0256 < 0.05
Simulation CPU 0 critical: IPC 0.018478 < 0.02
Simulation CPU 0 warning: IPC 0.025989 < 0.05
Simulation CPU 0 panic: IPC 0.0023976 < 0.01
Simulation CPU 0 warning: IPC 0.03435 < 0.05
Simulation CPU 0 warning: IPC 0.033582 < 0.05
Heartbeat CPU 0 instructions: 570000057 cycles: 14976220880 heartbeat IPC: 0.03632 cumulative IPC: 0.03806 (Simulation time: 20 hr 47 min 40 sec)
Simulation CPU 0 warning: IPC 0.042097 < 0.05
Simulation CPU 0 warning: IPC 0.034716 < 0.05
Simulation CPU 0 warning: IPC 0.03228 < 0.05
Simulation CPU 0 warning: IPC 0.046819 < 0.05
Simulation CPU 0 panic: IPC 0.0071088 < 0.01
Simulation CPU 0 panic: IPC 0.0062214 < 0.01
Simulation CPU 0 warning: IPC 0.030995 < 0.05
Simulation CPU 0 critical: IPC 0.01748 < 0.02
Simulation CPU 0 critical: IPC 0.018102 < 0.02
Simulation CPU 0 warning: IPC 0.044109 < 0.05
Simulation CPU 0 warning: IPC 0.044658 < 0.05
Simulation CPU 0 warning: IPC 0.026924 < 0.05
Simulation CPU 0 warning: IPC 0.031409 < 0.05
Simulation CPU 0 warning: IPC 0.020418 < 0.05
Simulation CPU 0 warning: IPC 0.03343 < 0.05
Simulation CPU 0 critical: IPC 0.018697 < 0.02
Simulation CPU 0 warning: IPC 0.032509 < 0.05
Simulation CPU 0 critical: IPC 0.012886 < 0.02
Simulation CPU 0 warning: IPC 0.020668 < 0.05
Simulation CPU 0 warning: IPC 0.049626 < 0.05
Heartbeat CPU 0 instructions: 580000060 cycles: 15223005394 heartbeat IPC: 0.04052 cumulative IPC: 0.0381 (Simulation time: 21 hr 09 min 39 sec)
Simulation CPU 0 warning: IPC 0.029352 < 0.05
Simulation CPU 0 critical: IPC 0.015188 < 0.02
Simulation CPU 0 critical: IPC 0.016003 < 0.02
Simulation CPU 0 warning: IPC 0.041837 < 0.05
Simulation CPU 0 critical: IPC 0.01024 < 0.02
Simulation CPU 0 warning: IPC 0.026817 < 0.05
Simulation CPU 0 warning: IPC 0.030438 < 0.05
Simulation CPU 0 critical: IPC 0.016588 < 0.02
Simulation CPU 0 critical: IPC 0.011358 < 0.02
Simulation CPU 0 critical: IPC 0.017973 < 0.02
Simulation CPU 0 critical: IPC 0.016929 < 0.02
Simulation CPU 0 warning: IPC 0.029282 < 0.05
Simulation CPU 0 panic: IPC 0.002456 < 0.01
Simulation CPU 0 warning: IPC 0.029386 < 0.05
Simulation CPU 0 critical: IPC 0.013559 < 0.02
Simulation CPU 0 warning: IPC 0.029333 < 0.05
Simulation CPU 0 critical: IPC 0.017146 < 0.02
Simulation CPU 0 panic: IPC 0.007594 < 0.01
Heartbeat CPU 0 instructions: 590000060 cycles: 15488944657 heartbeat IPC: 0.0376 cumulative IPC: 0.03809 (Simulation time: 21 hr 31 min 39 sec)
Simulation CPU 0 panic: IPC 0.0041199 < 0.01
Simulation CPU 0 warning: IPC 0.027465 < 0.05
Simulation CPU 0 warning: IPC 0.043065 < 0.05
Simulation CPU 0 critical: IPC 0.017349 < 0.02
Simulation CPU 0 critical: IPC 0.01909 < 0.02
Simulation CPU 0 warning: IPC 0.024167 < 0.05
Simulation CPU 0 warning: IPC 0.047584 < 0.05
Simulation CPU 0 panic: IPC 0.0012692 < 0.01
Simulation CPU 0 warning: IPC 0.041674 < 0.05
Simulation CPU 0 panic: IPC 0.0068431 < 0.01
Simulation CPU 0 warning: IPC 0.048138 < 0.05
Simulation CPU 0 critical: IPC 0.019231 < 0.02
Simulation CPU 0 warning: IPC 0.023935 < 0.05
Simulation CPU 0 warning: IPC 0.029572 < 0.05
Simulation CPU 0 warning: IPC 0.039243 < 0.05
Simulation CPU 0 critical: IPC 0.010804 < 0.02
Simulation CPU 0 panic: IPC 3.64e-05 < 0.01
Simulation CPU 0 critical: IPC 0.011096 < 0.02
Simulation CPU 0 warning: IPC 0.042048 < 0.05
Simulation CPU 0 critical: IPC 0.018725 < 0.02
Simulation CPU 0 warning: IPC 0.03499 < 0.05
Heartbeat CPU 0 instructions: 600000061 cycles: 15763403012 heartbeat IPC: 0.03644 cumulative IPC: 0.03806 (Simulation time: 21 hr 53 min 02 sec)
Simulation CPU 0 warning: IPC 0.031075 < 0.05
Simulation CPU 0 critical: IPC 0.015344 < 0.02
Simulation CPU 0 panic: IPC 0.0054729 < 0.01
Simulation CPU 0 critical: IPC 0.017458 < 0.02
Simulation CPU 0 panic: IPC 0.0069889 < 0.01
Simulation CPU 0 warning: IPC 0.04136 < 0.05
Simulation CPU 0 critical: IPC 0.018638 < 0.02
Simulation CPU 0 critical: IPC 0.011574 < 0.02
Simulation CPU 0 warning: IPC 0.023846 < 0.05
Simulation CPU 0 critical: IPC 0.016907 < 0.02
Simulation CPU 0 critical: IPC 0.017812 < 0.02
Simulation CPU 0 critical: IPC 0.015414 < 0.02
Simulation CPU 0 critical: IPC 0.017958 < 0.02
Simulation CPU 0 warning: IPC 0.026376 < 0.05
Simulation CPU 0 critical: IPC 0.012736 < 0.02
Simulation CPU 0 warning: IPC 0.029138 < 0.05
Simulation CPU 0 panic: IPC 0.000718 < 0.01
Simulation CPU 0 warning: IPC 0.027769 < 0.05
Simulation CPU 0 warning: IPC 0.046593 < 0.05
Simulation CPU 0 panic: IPC 0.0017862 < 0.01
Heartbeat CPU 0 instructions: 610000064 cycles: 16047373237 heartbeat IPC: 0.03521 cumulative IPC: 0.03801 (Simulation time: 22 hr 18 min 01 sec)
Simulation CPU 0 warning: IPC 0.037617 < 0.05
Simulation CPU 0 critical: IPC 0.01738 < 0.02
Simulation CPU 0 panic: IPC 0.0025563 < 0.01
Heartbeat CPU 0 instructions: 620000068 cycles: 16124498268 heartbeat IPC: 0.1297 cumulative IPC: 0.03845 (Simulation time: 22 hr 25 min 41 sec)
Heartbeat CPU 0 instructions: 630000071 cycles: 16164113215 heartbeat IPC: 0.2524 cumulative IPC: 0.03898 (Simulation time: 22 hr 29 min 36 sec)
Heartbeat CPU 0 instructions: 640000075 cycles: 16202060436 heartbeat IPC: 0.2635 cumulative IPC: 0.0395 (Simulation time: 22 hr 33 min 16 sec)
Heartbeat CPU 0 instructions: 650000075 cycles: 16245540184 heartbeat IPC: 0.23 cumulative IPC: 0.04001 (Simulation time: 22 hr 36 min 27 sec)
Heartbeat CPU 0 instructions: 660000079 cycles: 16292956561 heartbeat IPC: 0.2109 cumulative IPC: 0.04051 (Simulation time: 22 hr 40 min 45 sec)
Heartbeat CPU 0 instructions: 670000080 cycles: 16341091436 heartbeat IPC: 0.2077 cumulative IPC: 0.041 (Simulation time: 22 hr 45 min 18 sec)
Heartbeat CPU 0 instructions: 680000082 cycles: 16387936062 heartbeat IPC: 0.2135 cumulative IPC: 0.04149 (Simulation time: 22 hr 48 min 47 sec)
Heartbeat CPU 0 instructions: 690000083 cycles: 16420835458 heartbeat IPC: 0.304 cumulative IPC: 0.04202 (Simulation time: 22 hr 51 min 08 sec)
Heartbeat CPU 0 instructions: 700000084 cycles: 16436181642 heartbeat IPC: 0.6516 cumulative IPC: 0.04259 (Simulation time: 22 hr 52 min 22 sec)
Heartbeat CPU 0 instructions: 710000087 cycles: 16445489585 heartbeat IPC: 1.074 cumulative IPC: 0.04317 (Simulation time: 22 hr 53 min 09 sec)
Heartbeat CPU 0 instructions: 720000089 cycles: 16458530742 heartbeat IPC: 0.7668 cumulative IPC: 0.04375 (Simulation time: 22 hr 54 min 32 sec)
Heartbeat CPU 0 instructions: 730000090 cycles: 16470087095 heartbeat IPC: 0.8653 cumulative IPC: 0.04432 (Simulation time: 22 hr 55 min 55 sec)
Heartbeat CPU 0 instructions: 740000091 cycles: 16478549257 heartbeat IPC: 1.182 cumulative IPC: 0.04491 (Simulation time: 22 hr 56 min 59 sec)
Heartbeat CPU 0 instructions: 750000093 cycles: 16494288501 heartbeat IPC: 0.6354 cumulative IPC: 0.04547 (Simulation time: 22 hr 58 min 47 sec)
Heartbeat CPU 0 instructions: 760000093 cycles: 16502774067 heartbeat IPC: 1.178 cumulative IPC: 0.04605 (Simulation time: 22 hr 59 min 52 sec)
Heartbeat CPU 0 instructions: 770000094 cycles: 16512314267 heartbeat IPC: 1.048 cumulative IPC: 0.04663 (Simulation time: 23 hr 01 min 03 sec)
Heartbeat CPU 0 instructions: 780000096 cycles: 16525697285 heartbeat IPC: 0.7472 cumulative IPC: 0.0472 (Simulation time: 23 hr 02 min 33 sec)
Heartbeat CPU 0 instructions: 790000098 cycles: 16538559552 heartbeat IPC: 0.7775 cumulative IPC: 0.04777 (Simulation time: 23 hr 03 min 32 sec)
Heartbeat CPU 0 instructions: 800000098 cycles: 16565417305 heartbeat IPC: 0.3723 cumulative IPC: 0.04829 (Simulation time: 23 hr 05 min 39 sec)
Heartbeat CPU 0 instructions: 810000099 cycles: 16585850743 heartbeat IPC: 0.4894 cumulative IPC: 0.04884 (Simulation time: 23 hr 07 min 08 sec)
Heartbeat CPU 0 instructions: 820000099 cycles: 16600379482 heartbeat IPC: 0.6883 cumulative IPC: 0.0494 (Simulation time: 23 hr 08 min 17 sec)
Heartbeat CPU 0 instructions: 830000099 cycles: 16611115489 heartbeat IPC: 0.9314 cumulative IPC: 0.04997 (Simulation time: 23 hr 09 min 12 sec)
Heartbeat CPU 0 instructions: 840000102 cycles: 16636206170 heartbeat IPC: 0.3986 cumulative IPC: 0.05049 (Simulation time: 23 hr 11 min 11 sec)
Heartbeat CPU 0 instructions: 850000102 cycles: 16656170611 heartbeat IPC: 0.5009 cumulative IPC: 0.05103 (Simulation time: 23 hr 12 min 48 sec)
Heartbeat CPU 0 instructions: 860000105 cycles: 16667360421 heartbeat IPC: 0.8937 cumulative IPC: 0.0516 (Simulation time: 23 hr 13 min 57 sec)
Heartbeat CPU 0 instructions: 870000108 cycles: 16675471454 heartbeat IPC: 1.233 cumulative IPC: 0.05217 (Simulation time: 23 hr 14 min 46 sec)
Heartbeat CPU 0 instructions: 880000108 cycles: 16689035810 heartbeat IPC: 0.7372 cumulative IPC: 0.05273 (Simulation time: 23 hr 16 min 20 sec)
Heartbeat CPU 0 instructions: 890000108 cycles: 16699327466 heartbeat IPC: 0.9717 cumulative IPC: 0.0533 (Simulation time: 23 hr 17 min 33 sec)
Heartbeat CPU 0 instructions: 900000112 cycles: 16718122753 heartbeat IPC: 0.532 cumulative IPC: 0.05383 (Simulation time: 23 hr 18 min 52 sec)
Heartbeat CPU 0 instructions: 910000112 cycles: 16727141996 heartbeat IPC: 1.109 cumulative IPC: 0.0544 (Simulation time: 23 hr 19 min 52 sec)
Heartbeat CPU 0 instructions: 920000112 cycles: 16739584985 heartbeat IPC: 0.8037 cumulative IPC: 0.05496 (Simulation time: 23 hr 21 min 21 sec)
Heartbeat CPU 0 instructions: 930000112 cycles: 16748974081 heartbeat IPC: 1.065 cumulative IPC: 0.05553 (Simulation time: 23 hr 22 min 29 sec)
Heartbeat CPU 0 instructions: 940000116 cycles: 16787750796 heartbeat IPC: 0.2579 cumulative IPC: 0.05599 (Simulation time: 23 hr 25 min 00 sec)
Heartbeat CPU 0 instructions: 950000116 cycles: 16829493079 heartbeat IPC: 0.2396 cumulative IPC: 0.05645 (Simulation time: 23 hr 28 min 05 sec)
[...]
Heartbeat CPU 0 instructions: 1090000132 cycles: 17078893739 heartbeat IPC: 0.2836 cumulative IPC: 0.06382 (Simulation time: 23 hr 50 min 56 sec)
Heartbeat CPU 0 instructions: 1100000134 cycles: 17094085918 heartbeat IPC: 0.6582 cumulative IPC: 0.06435 (Simulation time: 23 hr 52 min 40 sec)
Heartbeat CPU 0 instructions: 1110000135 cycles: 17104744298 heartbeat IPC: 0.9382 cumulative IPC: 0.06489 (Simulation time: 23 hr 53 min 58 sec)
Heartbeat CPU 0 instructions: 1120000135 cycles: 17114265471 heartbeat IPC: 1.05 cumulative IPC: 0.06544 (Simulation time: 23 hr 55 min 11 sec)
Heartbeat CPU 0 instructions: 1130000136 cycles: 17122505263 heartbeat IPC: 1.214 cumulative IPC: 0.066 (Simulation time: 23 hr 56 min 16 sec)
Heartbeat CPU 0 instructions: 1140000137 cycles: 17146256739 heartbeat IPC: 0.421 cumulative IPC: 0.06649 (Simulation time: 23 hr 58 min 45 sec)
Heartbeat CPU 0 instructions: 1150000137 cycles: 17156597097 heartbeat IPC: 0.9671 cumulative IPC: 0.06703 (Simulation time: 23 hr 59 min 54 sec)
Heartbeat CPU 0 instructions: 1160000139 cycles: 17173412594 heartbeat IPC: 0.5947 cumulative IPC: 0.06755 (Simulation time: 00 hr 01 min 12 sec)
Heartbeat CPU 0 instructions: 1170000141 cycles: 17181909930 heartbeat IPC: 1.177 cumulative IPC: 0.06809 (Simulation time: 00 hr 01 min 55 sec)
Heartbeat CPU 0 instructions: 1180000142 cycles: 17191746251 heartbeat IPC: 1.017 cumulative IPC: 0.06864 (Simulation time: 00 hr 02 min 42 sec)
Heartbeat CPU 0 instructions: 1190000146 cycles: 17221383424 heartbeat IPC: 0.3374 cumulative IPC: 0.0691 (Simulation time: 00 hr 05 min 10 sec)
Heartbeat CPU 0 instructions: 1200000147 cycles: 17231160892 heartbeat IPC: 1.023 cumulative IPC: 0.06964 (Simulation time: 00 hr 06 min 23 sec)
Heartbeat CPU 0 instructions: 1210000151 cycles: 17246436960 heartbeat IPC: 0.6546 cumulative IPC: 0.07016 (Simulation time: 00 hr 07 min 52 sec)
Heartbeat CPU 0 instructions: 1220000151 cycles: 17260537069 heartbeat IPC: 0.7092 cumulative IPC: 0.07068 (Simulation time: 00 hr 09 min 14 sec)
Heartbeat CPU 0 instructions: 1230000154 cycles: 17268524308 heartbeat IPC: 1.252 cumulative IPC: 0.07123 (Simulation time: 00 hr 09 min 56 sec)
Heartbeat CPU 0 instructions: 1240000154 cycles: 17278273166 heartbeat IPC: 1.026 cumulative IPC: 0.07177 (Simulation time: 00 hr 11 min 09 sec)
Heartbeat CPU 0 instructions: 1250000157 cycles: 17299423329 heartbeat IPC: 0.4728 cumulative IPC: 0.07226 (Simulation time: 00 hr 13 min 24 sec)
Heartbeat CPU 0 instructions: 1260000157 cycles: 17308602776 heartbeat IPC: 1.089 cumulative IPC: 0.0728 (Simulation time: 00 hr 14 min 34 sec)
Heartbeat CPU 0 instructions: 1270000157 cycles: 17320877102 heartbeat IPC: 0.8147 cumulative IPC: 0.07332 (Simulation time: 00 hr 15 min 55 sec)
Heartbeat CPU 0 instructions: 1280000159 cycles: 17339703444 heartbeat IPC: 0.5312 cumulative IPC: 0.07382 (Simulation time: 00 hr 17 min 39 sec)
Heartbeat CPU 0 instructions: 1290000163 cycles: 17371830262 heartbeat IPC: 0.3113 cumulative IPC: 0.07426 (Simulation time: 00 hr 20 min 26 sec)
Heartbeat CPU 0 instructions: 1300000165 cycles: 17381010017 heartbeat IPC: 1.089 cumulative IPC: 0.07479 (Simulation time: 00 hr 21 min 13 sec)
Heartbeat CPU 0 instructions: 1310000166 cycles: 17390678944 heartbeat IPC: 1.034 cumulative IPC: 0.07533 (Simulation time: 00 hr 22 min 04 sec)
Heartbeat CPU 0 instructions: 1320000166 cycles: 17398968084 heartbeat IPC: 1.206 cumulative IPC: 0.07587 (Simulation time: 00 hr 23 min 05 sec)
Heartbeat CPU 0 instructions: 1330000167 cycles: 17419874050 heartbeat IPC: 0.4783 cumulative IPC: 0.07635 (Simulation time: 00 hr 25 min 20 sec)
Heartbeat CPU 0 instructions: 1340000167 cycles: 17456303356 heartbeat IPC: 0.2745 cumulative IPC: 0.07676 (Simulation time: 00 hr 29 min 03 sec)
Heartbeat CPU 0 instructions: 1350000171 cycles: 17478356247 heartbeat IPC: 0.4535 cumulative IPC: 0.07724 (Simulation time: 00 hr 31 min 27 sec)
Heartbeat CPU 0 instructions: 1360000171 cycles: 17487730333 heartbeat IPC: 1.067 cumulative IPC: 0.07777 (Simulation time: 00 hr 32 min 33 sec)
Heartbeat CPU 0 instructions: 1370000175 cycles: 17502430557 heartbeat IPC: 0.6803 cumulative IPC: 0.07827 (Simulation time: 00 hr 34 min 15 sec)
Heartbeat CPU 0 instructions: 1380000177 cycles: 17512668472 heartbeat IPC: 0.9768 cumulative IPC: 0.0788 (Simulation time: 00 hr 35 min 33 sec)
Heartbeat CPU 0 instructions: 1390000181 cycles: 17520946959 heartbeat IPC: 1.208 cumulative IPC: 0.07933 (Simulation time: 00 hr 36 min 37 sec)
Heartbeat CPU 0 instructions: 1400000183 cycles: 17530554736 heartbeat IPC: 1.041 cumulative IPC: 0.07986 (Simulation time: 00 hr 37 min 50 sec)
Heartbeat CPU 0 instructions: 1410000183 cycles: 17546144053 heartbeat IPC: 0.6415 cumulative IPC: 0.08036 (Simulation time: 00 hr 39 min 36 sec)
Heartbeat CPU 0 instructions: 1420000187 cycles: 17555387005 heartbeat IPC: 1.082 cumulative IPC: 0.08089 (Simulation time: 00 hr 40 min 26 sec)
Heartbeat CPU 0 instructions: 1430000189 cycles: 17564003384 heartbeat IPC: 1.161 cumulative IPC: 0.08142 (Simulation time: 00 hr 41 min 21 sec)
Heartbeat CPU 0 instructions: 1440000189 cycles: 17591913036 heartbeat IPC: 0.3583 cumulative IPC: 0.08186 (Simulation time: 00 hr 44 min 00 sec)
Heartbeat CPU 0 instructions: 1450000189 cycles: 17606145276 heartbeat IPC: 0.7026 cumulative IPC: 0.08236 (Simulation time: 00 hr 45 min 21 sec)
Heartbeat CPU 0 instructions: 1460000191 cycles: 17615870173 heartbeat IPC: 1.028 cumulative IPC: 0.08288 (Simulation time: 00 hr 46 min 17 sec)
Heartbeat CPU 0 instructions: 1470000194 cycles: 17624891591 heartbeat IPC: 1.108 cumulative IPC: 0.0834 (Simulation time: 00 hr 47 min 09 sec)
Heartbeat CPU 0 instructions: 1480000194 cycles: 17634872871 heartbeat IPC: 1.002 cumulative IPC: 0.08392 (Simulation time: 00 hr 48 min 01 sec)
Heartbeat CPU 0 instructions: 1490000196 cycles: 17662175747 heartbeat IPC: 0.3663 cumulative IPC: 0.08436 (Simulation time: 00 hr 50 min 18 sec)
Heartbeat CPU 0 instructions: 1500000198 cycles: 17670501716 heartbeat IPC: 1.201 cumulative IPC: 0.08489 (Simulation time: 00 hr 51 min 20 sec)
Heartbeat CPU 0 instructions: 1510000201 cycles: 17679574381 heartbeat IPC: 1.102 cumulative IPC: 0.08541 (Simulation time: 00 hr 52 min 30 sec)
Heartbeat CPU 0 instructions: 1520000201 cycles: 17689893311 heartbeat IPC: 0.9691 cumulative IPC: 0.08592 (Simulation time: 00 hr 53 min 44 sec)
Heartbeat CPU 0 instructions: 1530000203 cycles: 17724154746 heartbeat IPC: 0.2919 cumulative IPC: 0.08632 (Simulation time: 00 hr 56 min 45 sec)
Heartbeat CPU 0 instructions: 1540000207 cycles: 17766602291 heartbeat IPC: 0.2356 cumulative IPC: 0.08668 (Simulation time: 01 hr 00 min 47 sec)
Heartbeat CPU 0 instructions: 1550000207 cycles: 17810050644 heartbeat IPC: 0.2302 cumulative IPC: 0.08703 (Simulation time: 01 hr 04 min 51 sec)
Heartbeat CPU 0 instructions: 1560000210 cycles: 17853285524 heartbeat IPC: 0.2313 cumulative IPC: 0.08738 (Simulation time: 01 hr 08 min 39 sec)
Heartbeat CPU 0 instructions: 1570000210 cycles: 17897259228 heartbeat IPC: 0.2274 cumulative IPC: 0.08772 (Simulation time: 01 hr 12 min 18 sec)
Heartbeat CPU 0 instructions: 1580000212 cycles: 17949508689 heartbeat IPC: 0.1914 cumulative IPC: 0.08802 (Simulation time: 01 hr 16 min 32 sec)
Heartbeat CPU 0 instructions: 1590000216 cycles: 17999514641 heartbeat IPC: 0.2 cumulative IPC: 0.08834 (Simulation time: 01 hr 20 min 49 sec)
Heartbeat CPU 0 instructions: 1600000218 cycles: 18033207092 heartbeat IPC: 0.2968 cumulative IPC: 0.08873 (Simulation time: 01 hr 24 min 17 sec)
Heartbeat CPU 0 instructions: 1610000218 cycles: 18044910565 heartbeat IPC: 0.8544 cumulative IPC: 0.08922 (Simulation time: 01 hr 25 min 43 sec)
Heartbeat CPU 0 instructions: 1620000222 cycles: 18054245274 heartbeat IPC: 1.071 cumulative IPC: 0.08973 (Simulation time: 01 hr 26 min 55 sec)
Heartbeat CPU 0 instructions: 1630000223 cycles: 18071963903 heartbeat IPC: 0.5644 cumulative IPC: 0.09019 (Simulation time: 01 hr 28 min 32 sec)
Heartbeat CPU 0 instructions: 1640000224 cycles: 18082068208 heartbeat IPC: 0.9897 cumulative IPC: 0.0907 (Simulation time: 01 hr 29 min 22 sec)
Heartbeat CPU 0 instructions: 1650000228 cycles: 18092009800 heartbeat IPC: 1.006 cumulative IPC: 0.0912 (Simulation time: 01 hr 30 min 16 sec)
Heartbeat CPU 0 instructions: 1660000230 cycles: 18104296907 heartbeat IPC: 0.8139 cumulative IPC: 0.09169 (Simulation time: 01 hr 31 min 43 sec)
Heartbeat CPU 0 instructions: 1670000231 cycles: 18131803261 heartbeat IPC: 0.3636 cumulative IPC: 0.0921 (Simulation time: 01 hr 34 min 16 sec)
Heartbeat CPU 0 instructions: 1680000231 cycles: 18154950232 heartbeat IPC: 0.432 cumulative IPC: 0.09254 (Simulation time: 01 hr 36 min 35 sec)
Heartbeat CPU 0 instructions: 1690000231 cycles: 18163413717 heartbeat IPC: 1.182 cumulative IPC: 0.09304 (Simulation time: 01 hr 37 min 21 sec)
Heartbeat CPU 0 instructions: 1700000232 cycles: 18176315072 heartbeat IPC: 0.7751 cumulative IPC: 0.09353 (Simulation time: 01 hr 38 min 24 sec)
Heartbeat CPU 0 instructions: 1710000233 cycles: 18187855711 heartbeat IPC: 0.8665 cumulative IPC: 0.09402 (Simulation time: 01 hr 39 min 33 sec)
Heartbeat CPU 0 instructions: 1720000233 cycles: 18198014020 heartbeat IPC: 0.9844 cumulative IPC: 0.09452 (Simulation time: 01 hr 40 min 34 sec)
Heartbeat CPU 0 instructions: 1730000235 cycles: 18206676193 heartbeat IPC: 1.154 cumulative IPC: 0.09502 (Simulation time: 01 hr 41 min 33 sec)
Heartbeat CPU 0 instructions: 1740000235 cycles: 18225952161 heartbeat IPC: 0.5188 cumulative IPC: 0.09547 (Simulation time: 01 hr 43 min 12 sec)
Heartbeat CPU 0 instructions: 1750000236 cycles: 18234633464 heartbeat IPC: 1.152 cumulative IPC: 0.09597 (Simulation time: 01 hr 44 min 05 sec)
Heartbeat CPU 0 instructions: 1760000236 cycles: 18248015766 heartbeat IPC: 0.7473 cumulative IPC: 0.09645 (Simulation time: 01 hr 45 min 33 sec)
Heartbeat CPU 0 instructions: 1770000237 cycles: 18257933358 heartbeat IPC: 1.008 cumulative IPC: 0.09694 (Simulation time: 01 hr 46 min 48 sec)
Heartbeat CPU 0 instructions: 1780000237 cycles: 18278856802 heartbeat IPC: 0.4779 cumulative IPC: 0.09738 (Simulation time: 01 hr 48 min 22 sec)
Heartbeat CPU 0 instructions: 1790000238 cycles: 18327486178 heartbeat IPC: 0.2056 cumulative IPC: 0.09767 (Simulation time: 01 hr 52 min 59 sec)
Heartbeat CPU 0 instructions: 1800000240 cycles: 18349957955 heartbeat IPC: 0.445 cumulative IPC: 0.09809 (Simulation time: 01 hr 55 min 22 sec)
Heartbeat CPU 0 instructions: 1810000240 cycles: 18359890614 heartbeat IPC: 1.007 cumulative IPC: 0.09858 (Simulation time: 01 hr 56 min 20 sec)
Heartbeat CPU 0 instructions: 1820000242 cycles: 18380112875 heartbeat IPC: 0.4945 cumulative IPC: 0.09902 (Simulation time: 01 hr 57 min 56 sec)
Heartbeat CPU 0 instructions: 1830000243 cycles: 18389894580 heartbeat IPC: 1.022 cumulative IPC: 0.09951 (Simulation time: 01 hr 58 min 53 sec)
Heartbeat CPU 0 instructions: 1840000243 cycles: 18397753664 heartbeat IPC: 1.272 cumulative IPC: 0.1 (Simulation time: 01 hr 59 min 40 sec)
Heartbeat CPU 0 instructions: 1850000243 cycles: 18407725439 heartbeat IPC: 1.003 cumulative IPC: 0.1005 (Simulation time: 02 hr 00 min 54 sec)
Heartbeat CPU 0 instructions: 1860000245 cycles: 18422955084 heartbeat IPC: 0.6566 cumulative IPC: 0.101 (Simulation time: 02 hr 02 min 23 sec)
Heartbeat CPU 0 instructions: 1870000249 cycles: 18438740186 heartbeat IPC: 0.6335 cumulative IPC: 0.1014 (Simulation time: 02 hr 04 min 04 sec)
Heartbeat CPU 0 instructions: 1880000253 cycles: 18447581041 heartbeat IPC: 1.131 cumulative IPC: 0.1019 (Simulation time: 02 hr 05 min 03 sec)
Heartbeat CPU 0 instructions: 1890000255 cycles: 18464539263 heartbeat IPC: 0.5897 cumulative IPC: 0.1024 (Simulation time: 02 hr 06 min 56 sec)
Heartbeat CPU 0 instructions: 1900000258 cycles: 18473075345 heartbeat IPC: 1.171 cumulative IPC: 0.1029 (Simulation time: 02 hr 08 min 00 sec)
Heartbeat CPU 0 instructions: 1910000258 cycles: 18484067283 heartbeat IPC: 0.9098 cumulative IPC: 0.1033 (Simulation time: 02 hr 09 min 20 sec)
Heartbeat CPU 0 instructions: 1920000259 cycles: 18493570260 heartbeat IPC: 1.052 cumulative IPC: 0.1038 (Simulation time: 02 hr 10 min 32 sec)
Heartbeat CPU 0 instructions: 1930000261 cycles: 18509649782 heartbeat IPC: 0.6219 cumulative IPC: 0.1043 (Simulation time: 02 hr 12 min 21 sec)
Heartbeat CPU 0 instructions: 1940000262 cycles: 18518512425 heartbeat IPC: 1.128 cumulative IPC: 0.1048 (Simulation time: 02 hr 13 min 30 sec)
Heartbeat CPU 0 instructions: 1950000265 cycles: 18530695699 heartbeat IPC: 0.8208 cumulative IPC: 0.1052 (Simulation time: 02 hr 14 min 59 sec)
Heartbeat CPU 0 instructions: 1960000268 cycles: 18540966591 heartbeat IPC: 0.9736 cumulative IPC: 0.1057 (Simulation time: 02 hr 16 min 06 sec)
Heartbeat CPU 0 instructions: 1970000269 cycles: 18567050101 heartbeat IPC: 0.3834 cumulative IPC: 0.1061 (Simulation time: 02 hr 18 min 10 sec)
Heartbeat CPU 0 instructions: 1980000269 cycles: 18615376863 heartbeat IPC: 0.2069 cumulative IPC: 0.1064 (Simulation time: 02 hr 22 min 48 sec)
Heartbeat CPU 0 instructions: 1990000270 cycles: 18664241379 heartbeat IPC: 0.2046 cumulative IPC: 0.1066 (Simulation time: 02 hr 26 min 38 sec)

=== ERROR PAGE STATISTICS ===
Mode: OFF
Total Error Accesses: 0
==============================
Simulation finished CPU 0 instructions: 1999999938 cycles: 18709242566 cumulative IPC: 0.1069 (Simulation time: 02 hr 30 min 50 sec)
Simulation complete CPU 0 instructions: 1999999938 cycles: 18709242566 cumulative IPC: 0.1069 (Simulation time: 02 hr 30 min 50 sec)

ChampSim completed all CPUs

=== Simulation ===
CPU 0 runs test_traces/605.mcf_s-994B.champsimtrace.xz

Region of Interest Statistics

CPU 0 cumulative IPC: 0.1069 instructions: 1999999938 cycles: 18709242566
CPU 0 Branch Prediction Accuracy: 92.62% MPKI: 18.99 Average ROB Occupancy at Mispredict: 32.68
Branch type MPKI
BRANCH_DIRECT_JUMP: 0.123
BRANCH_INDIRECT: 0
BRANCH_CONDITIONAL: 18.86
BRANCH_DIRECT_CALL: 6.5e-06
BRANCH_INDIRECT_CALL: 0.0004185
BRANCH_RETURN: 1e-05

cpu0->cpu0_STLB TOTAL        ACCESS:    6367265 HIT:    6361326 MISS:       5939 MSHR_MERGE:          0
cpu0->cpu0_STLB LOAD         ACCESS:    6367265 HIT:    6361326 MISS:       5939 MSHR_MERGE:          0
cpu0->cpu0_STLB RFO          ACCESS:          0 HIT:          0 MISS:          0 MSHR_MERGE:          0
cpu0->cpu0_STLB PREFETCH     ACCESS:          0 HIT:          0 MISS:          0 MSHR_MERGE:          0
cpu0->cpu0_STLB WRITE        ACCESS:          0 HIT:          0 MISS:          0 MSHR_MERGE:          0
cpu0->cpu0_STLB TRANSLATION  ACCESS:          0 HIT:          0 MISS:          0 MSHR_MERGE:          0
cpu0->cpu0_STLB PREFETCH REQUESTED:          0 ISSUED:          0 USEFUL:          0 USELESS:          0
cpu0->cpu0_STLB AVERAGE MISS LATENCY: 2.667e+06 cycles
cpu0->cpu0_L2C TOTAL        ACCESS:   81180911 HIT:   27540104 MISS:   53640807 MSHR_MERGE:          0
cpu0->cpu0_L2C LOAD         ACCESS:   75043344 HIT:   21466992 MISS:   53576352 MSHR_MERGE:          0
cpu0->cpu0_L2C RFO          ACCESS:     492582 HIT:     432411 MISS:      60171 MSHR_MERGE:          0
cpu0->cpu0_L2C PREFETCH     ACCESS:          0 HIT:          0 MISS:          0 MSHR_MERGE:          0
cpu0->cpu0_L2C WRITE        ACCESS:    5644985 HIT:    5640701 MISS:       4284 MSHR_MERGE:          0
cpu0->cpu0_L2C TRANSLATION  ACCESS:          0 HIT:          0 MISS:          0 MSHR_MERGE:          0
cpu0->cpu0_L2C PREFETCH REQUESTED:          0 ISSUED:          0 USEFUL:          0 USELESS:          0
cpu0->cpu0_L2C AVERAGE MISS LATENCY: 95.93 cycles
cpu0->cpu0_L1I TOTAL        ACCESS:    2880116 HIT:    2880024 MISS:         92 MSHR_MERGE:         26
cpu0->cpu0_L1I LOAD         ACCESS:    2880116 HIT:    2880024 MISS:         92 MSHR_MERGE:         26
cpu0->cpu0_L1I RFO          ACCESS:          0 HIT:          0 MISS:          0 MSHR_MERGE:          0
cpu0->cpu0_L1I PREFETCH     ACCESS:          0 HIT:          0 MISS:          0 MSHR_MERGE:          0
cpu0->cpu0_L1I WRITE        ACCESS:          0 HIT:          0 MISS:          0 MSHR_MERGE:          0
cpu0->cpu0_L1I TRANSLATION  ACCESS:          0 HIT:          0 MISS:          0 MSHR_MERGE:          0
cpu0->cpu0_L1I PREFETCH REQUESTED:          0 ISSUED:          0 USEFUL:          0 USELESS:          0
cpu0->cpu0_L1I AVERAGE MISS LATENCY: 103.6 cycles
cpu0->cpu0_L1D TOTAL        ACCESS:  810612477 HIT:  728258370 MISS:   82354107 MSHR_MERGE:    6817157
cpu0->cpu0_L1D LOAD         ACCESS:  610028822 HIT:  529051509 MISS:   80977313 MSHR_MERGE:    5934014
cpu0->cpu0_L1D RFO          ACCESS:          0 HIT:          0 MISS:          0 MSHR_MERGE:          0
cpu0->cpu0_L1D PREFETCH     ACCESS:          0 HIT:          0 MISS:          0 MSHR_MERGE:          0
cpu0->cpu0_L1D WRITE        ACCESS:  200583655 HIT:  199206861 MISS:    1376794 MSHR_MERGE:     883143
cpu0->cpu0_L1D TRANSLATION  ACCESS:          0 HIT:          0 MISS:          0 MSHR_MERGE:          0
cpu0->cpu0_L1D PREFETCH REQUESTED:          0 ISSUED:          0 USEFUL:          0 USELESS:          0
cpu0->cpu0_L1D AVERAGE MISS LATENCY: 76.97 cycles
cpu0->cpu0_ITLB TOTAL        ACCESS:    2729538 HIT:    2729537 MISS:          1 MSHR_MERGE:          0
cpu0->cpu0_ITLB LOAD         ACCESS:    2729538 HIT:    2729537 MISS:          1 MSHR_MERGE:          0
cpu0->cpu0_ITLB RFO          ACCESS:          0 HIT:          0 MISS:          0 MSHR_MERGE:          0
cpu0->cpu0_ITLB PREFETCH     ACCESS:          0 HIT:          0 MISS:          0 MSHR_MERGE:          0
cpu0->cpu0_ITLB WRITE        ACCESS:          0 HIT:          0 MISS:          0 MSHR_MERGE:          0
cpu0->cpu0_ITLB TRANSLATION  ACCESS:          0 HIT:          0 MISS:          0 MSHR_MERGE:          0
cpu0->cpu0_ITLB PREFETCH REQUESTED:          0 ISSUED:          0 USEFUL:          0 USELESS:          0
cpu0->cpu0_ITLB AVERAGE MISS LATENCY: 1.848e+07 cycles
cpu0->cpu0_DTLB TOTAL        ACCESS:  706556019 HIT:  699644908 MISS:    6911111 MSHR_MERGE:     543847
cpu0->cpu0_DTLB LOAD         ACCESS:  706556019 HIT:  699644908 MISS:    6911111 MSHR_MERGE:     543847
cpu0->cpu0_DTLB RFO          ACCESS:          0 HIT:          0 MISS:          0 MSHR_MERGE:          0
cpu0->cpu0_DTLB PREFETCH     ACCESS:          0 HIT:          0 MISS:          0 MSHR_MERGE:          0
cpu0->cpu0_DTLB WRITE        ACCESS:          0 HIT:          0 MISS:          0 MSHR_MERGE:          0
cpu0->cpu0_DTLB TRANSLATION  ACCESS:          0 HIT:          0 MISS:          0 MSHR_MERGE:          0
cpu0->cpu0_DTLB PREFETCH REQUESTED:          0 ISSUED:          0 USEFUL:          0 USELESS:          0
cpu0->cpu0_DTLB AVERAGE MISS LATENCY: 2490 cycles
cpu0->LLC TOTAL        ACCESS:   57571113 HIT:   16528562 MISS:   41042551 MSHR_MERGE:          0
cpu0->LLC LOAD         ACCESS:   53576352 HIT:   12553512 MISS:   41022840 MSHR_MERGE:          0
cpu0->LLC RFO          ACCESS:      60171 HIT:      41695 MISS:      18476 MSHR_MERGE:          0
cpu0->LLC PREFETCH     ACCESS:          0 HIT:          0 MISS:          0 MSHR_MERGE:          0
cpu0->LLC WRITE        ACCESS:    3934590 HIT:    3933355 MISS:       1235 MSHR_MERGE:          0
cpu0->LLC TRANSLATION  ACCESS:          0 HIT:          0 MISS:          0 MSHR_MERGE:          0
cpu0->LLC PREFETCH REQUESTED:          0 ISSUED:          0 USEFUL:          0 USELESS:          0
cpu0->LLC AVERAGE MISS LATENCY: 104.8 cycles

DRAM Statistics

Channel 0 RQ ROW_BUFFER_HIT:     271661
  ROW_BUFFER_MISS:   20256928
  AVG DBUS CONGESTED CYCLE: 9.308
Channel 0 WQ ROW_BUFFER_HIT:     329107
  ROW_BUFFER_MISS:    1238711
  FULL:          0
Channel 0 REFRESHES ISSUED:    1559003

Channel 1 RQ ROW_BUFFER_HIT:     271772
  ROW_BUFFER_MISS:   20252783
  AVG DBUS CONGESTED CYCLE: 9.306
Channel 1 WQ ROW_BUFFER_HIT:     329100
  ROW_BUFFER_MISS:    1238726
  FULL:          0
Channel 1 REFRESHES ISSUED:    1559003
