
*** ChampSim Multicore Out-of-Order Simulator ***
Warmup Instructions: 0
Simulation Instructions: 9223372036854775807
Number of CPUs: 1
Page size: 2097152

Off-chip DRAM Size: 128 GiB Channels: 2 Width: 32-bit Data Rate: 4807 MT/s
[ERROR_PAGE_MANAGER] Error latency: 1990500 
[ERROR_PAGE_MANAGER] Random seed: 54321 (fixed for preload reproducibility)
[ERROR_PAGE_MANAGER] Cycle-based error modeling enabled
[ERROR_PAGE_MANAGER] Errors per interval: 1
[ERROR_PAGE_MANAGER] Error cycle interval: 25763047 cycles

=== ERROR PAGE STATISTICS ===
Mode: CYCLE
Error Cycle Interval: 25763047 CPU cycles
Total Error Accesses: 0
==============================
Warmup finished CPU 0 instructions: 0 cycles: 1 cumulative IPC: 0 (Simulation time: 00 hr 00 min 00 sec)
Warmup complete CPU 0 instructions: 0 cycles: 1 cumulative IPC: 0 (Simulation time: 00 hr 00 min 00 sec)
Heartbeat CPU 0 instructions: 10000002 cycles: 4932183 heartbeat IPC: 2.028 cumulative IPC: 2.028 (Simulation time: 00 hr 01 min 01 sec)
Heartbeat CPU 0 instructions: 20000002 cycles: 9813832 heartbeat IPC: 2.048 cumulative IPC: 2.038 (Simulation time: 00 hr 02 min 02 sec)
Heartbeat CPU 0 instructions: 30000006 cycles: 14668737 heartbeat IPC: 2.06 cumulative IPC: 2.045 (Simulation time: 00 hr 03 min 01 sec)
Heartbeat CPU 0 instructions: 40000007 cycles: 19531568 heartbeat IPC: 2.056 cumulative IPC: 2.048 (Simulation time: 00 hr 04 min 00 sec)
Heartbeat CPU 0 instructions: 50000007 cycles: 24405159 heartbeat IPC: 2.052 cumulative IPC: 2.049 (Simulation time: 00 hr 04 min 59 sec)
[ERROR_CYCLE] Error added at CPU cycle 25763048, interval 1, pending count: 1
[DRAM_CYCLE_ERROR] Cycle-based error applied! address=0xa470cc680 additional_latency=1990500 cycles
Heartbeat CPU 0 instructions: 60000008 cycles: 30776273 heartbeat IPC: 1.57 cumulative IPC: 1.95 (Simulation time: 00 hr 06 min 08 sec)
Heartbeat CPU 0 instructions: 70000012 cycles: 36979592 heartbeat IPC: 1.612 cumulative IPC: 1.893 (Simulation time: 00 hr 07 min 15 sec)
Heartbeat CPU 0 instructions: 80000013 cycles: 43178499 heartbeat IPC: 1.613 cumulative IPC: 1.853 (Simulation time: 00 hr 08 min 22 sec)
Heartbeat CPU 0 instructions: 90000014 cycles: 49410521 heartbeat IPC: 1.605 cumulative IPC: 1.821 (Simulation time: 00 hr 09 min 30 sec)
[ERROR_CYCLE] Error added at CPU cycle 51526094, interval 2, pending count: 1
[DRAM_CYCLE_ERROR] Cycle-based error applied! address=0x13833b3180 additional_latency=1990500 cycles
Heartbeat CPU 0 instructions: 100000018 cycles: 55639610 heartbeat IPC: 1.605 cumulative IPC: 1.797 (Simulation time: 00 hr 10 min 36 sec)
Heartbeat CPU 0 instructions: 110000019 cycles: 61851541 heartbeat IPC: 1.61 cumulative IPC: 1.778 (Simulation time: 00 hr 11 min 44 sec)
Heartbeat CPU 0 instructions: 120000020 cycles: 68059293 heartbeat IPC: 1.611 cumulative IPC: 1.763 (Simulation time: 00 hr 12 min 53 sec)
Heartbeat CPU 0 instructions: 130000020 cycles: 74281452 heartbeat IPC: 1.607 cumulative IPC: 1.75 (Simulation time: 00 hr 13 min 53 sec)
[ERROR_CYCLE] Error added at CPU cycle 77289142, interval 3, pending count: 1
[DRAM_CYCLE_ERROR] Cycle-based error applied! address=0x13833cbd80 additional_latency=1990500 cycles
Heartbeat CPU 0 instructions: 140000022 cycles: 80536231 heartbeat IPC: 1.599 cumulative IPC: 1.738 (Simulation time: 00 hr 14 min 48 sec)
Heartbeat CPU 0 instructions: 150000024 cycles: 86847872 heartbeat IPC: 1.584 cumulative IPC: 1.727 (Simulation time: 00 hr 15 min 54 sec)
Heartbeat CPU 0 instructions: 160000024 cycles: 93101345 heartbeat IPC: 1.599 cumulative IPC: 1.719 (Simulation time: 00 hr 17 min 04 sec)
Heartbeat CPU 0 instructions: 170000025 cycles: 99360221 heartbeat IPC: 1.598 cumulative IPC: 1.711 (Simulation time: 00 hr 18 min 14 sec)
[ERROR_CYCLE] Error added at CPU cycle 103052188, interval 4, pending count: 1
[DRAM_CYCLE_ERROR] Cycle-based error applied! address=0xc39ffe600 additional_latency=1990500 cycles
Heartbeat CPU 0 instructions: 180000026 cycles: 105642521 heartbeat IPC: 1.592 cumulative IPC: 1.704 (Simulation time: 00 hr 19 min 03 sec)
Heartbeat CPU 0 instructions: 190000027 cycles: 111925661 heartbeat IPC: 1.592 cumulative IPC: 1.698 (Simulation time: 00 hr 20 min 02 sec)
Heartbeat CPU 0 instructions: 200000029 cycles: 118207616 heartbeat IPC: 1.592 cumulative IPC: 1.692 (Simulation time: 00 hr 21 min 12 sec)
Heartbeat CPU 0 instructions: 210000030 cycles: 124460179 heartbeat IPC: 1.599 cumulative IPC: 1.687 (Simulation time: 00 hr 22 min 11 sec)
[ERROR_CYCLE] Error added at CPU cycle 128815235, interval 5, pending count: 1
[DRAM_CYCLE_ERROR] Cycle-based error applied! address=0x106e41ae80 additional_latency=1990500 cycles
Heartbeat CPU 0 instructions: 220000031 cycles: 130720393 heartbeat IPC: 1.597 cumulative IPC: 1.683 (Simulation time: 00 hr 22 min 56 sec)
Heartbeat CPU 0 instructions: 230000034 cycles: 136996447 heartbeat IPC: 1.593 cumulative IPC: 1.679 (Simulation time: 00 hr 23 min 42 sec)
Heartbeat CPU 0 instructions: 240000034 cycles: 143410679 heartbeat IPC: 1.559 cumulative IPC: 1.674 (Simulation time: 00 hr 24 min 42 sec)
Heartbeat CPU 0 instructions: 250000034 cycles: 149722274 heartbeat IPC: 1.584 cumulative IPC: 1.67 (Simulation time: 00 hr 25 min 39 sec)
[ERROR_CYCLE] Error added at CPU cycle 154578283, interval 6, pending count: 1
[DRAM_CYCLE_ERROR] Cycle-based error applied! address=0xcb2b43400 additional_latency=1990500 cycles
Heartbeat CPU 0 instructions: 260000038 cycles: 156035552 heartbeat IPC: 1.584 cumulative IPC: 1.666 (Simulation time: 00 hr 26 min 31 sec)
Heartbeat CPU 0 instructions: 270000041 cycles: 162337818 heartbeat IPC: 1.587 cumulative IPC: 1.663 (Simulation time: 00 hr 27 min 17 sec)
Heartbeat CPU 0 instructions: 280000042 cycles: 168640794 heartbeat IPC: 1.587 cumulative IPC: 1.66 (Simulation time: 00 hr 28 min 03 sec)
Heartbeat CPU 0 instructions: 290000042 cycles: 174933317 heartbeat IPC: 1.589 cumulative IPC: 1.658 (Simulation time: 00 hr 29 min 13 sec)
[ERROR_CYCLE] Error added at CPU cycle 180341329, interval 7, pending count: 1
[DRAM_CYCLE_ERROR] Cycle-based error applied! address=0xd1fb92ac0 additional_latency=1990500 cycles
Heartbeat CPU 0 instructions: 300000044 cycles: 181230398 heartbeat IPC: 1.588 cumulative IPC: 1.655 (Simulation time: 00 hr 30 min 20 sec)
Heartbeat CPU 0 instructions: 310000045 cycles: 187498092 heartbeat IPC: 1.595 cumulative IPC: 1.653 (Simulation time: 00 hr 31 min 29 sec)
Heartbeat CPU 0 instructions: 320000048 cycles: 193782864 heartbeat IPC: 1.591 cumulative IPC: 1.651 (Simulation time: 00 hr 32 min 39 sec)
Heartbeat CPU 0 instructions: 330000049 cycles: 200074645 heartbeat IPC: 1.589 cumulative IPC: 1.649 (Simulation time: 00 hr 33 min 48 sec)
[ERROR_CYCLE] Error added at CPU cycle 206104376, interval 8, pending count: 1
[DRAM_CYCLE_ERROR] Cycle-based error applied! address=0xd1fbad128 additional_latency=1990500 cycles
Heartbeat CPU 0 instructions: 340000053 cycles: 206482499 heartbeat IPC: 1.561 cumulative IPC: 1.647 (Simulation time: 00 hr 34 min 58 sec)
Heartbeat CPU 0 instructions: 350000057 cycles: 212829445 heartbeat IPC: 1.576 cumulative IPC: 1.645 (Simulation time: 00 hr 36 min 08 sec)
Heartbeat CPU 0 instructions: 360000061 cycles: 219188951 heartbeat IPC: 1.572 cumulative IPC: 1.642 (Simulation time: 00 hr 36 min 59 sec)
Heartbeat CPU 0 instructions: 370000061 cycles: 225542511 heartbeat IPC: 1.574 cumulative IPC: 1.64 (Simulation time: 00 hr 38 min 00 sec)
[ERROR_CYCLE] Error added at CPU cycle 231867424, interval 9, pending count: 1
[DRAM_CYCLE_ERROR] Cycle-based error applied! address=0xd1fbc5440 additional_latency=1990500 cycles
Heartbeat CPU 0 instructions: 380000061 cycles: 231919236 heartbeat IPC: 1.568 cumulative IPC: 1.639 (Simulation time: 00 hr 38 min 47 sec)
Heartbeat CPU 0 instructions: 390000062 cycles: 238229192 heartbeat IPC: 1.585 cumulative IPC: 1.637 (Simulation time: 00 hr 39 min 48 sec)
Heartbeat CPU 0 instructions: 400000062 cycles: 244499405 heartbeat IPC: 1.595 cumulative IPC: 1.636 (Simulation time: 00 hr 40 min 57 sec)
Heartbeat CPU 0 instructions: 410000062 cycles: 250749126 heartbeat IPC: 1.6 cumulative IPC: 1.635 (Simulation time: 00 hr 42 min 05 sec)
Heartbeat CPU 0 instructions: 420000065 cycles: 257002639 heartbeat IPC: 1.599 cumulative IPC: 1.634 (Simulation time: 00 hr 43 min 14 sec)
[ERROR_CYCLE] Error added at CPU cycle 257630470, interval 10, pending count: 1
[DRAM_CYCLE_ERROR] Cycle-based error applied! address=0x17ae037cc0 additional_latency=1990500 cycles
Heartbeat CPU 0 instructions: 430000069 cycles: 263374503 heartbeat IPC: 1.569 cumulative IPC: 1.633 (Simulation time: 00 hr 44 min 23 sec)
Heartbeat CPU 0 instructions: 440000069 cycles: 269692700 heartbeat IPC: 1.583 cumulative IPC: 1.631 (Simulation time: 00 hr 45 min 32 sec)
Heartbeat CPU 0 instructions: 450000070 cycles: 276009085 heartbeat IPC: 1.583 cumulative IPC: 1.63 (Simulation time: 00 hr 46 min 41 sec)
Heartbeat CPU 0 instructions: 460000072 cycles: 282296452 heartbeat IPC: 1.59 cumulative IPC: 1.629 (Simulation time: 00 hr 47 min 49 sec)
[ERROR_CYCLE] Error added at CPU cycle 283393517, interval 11, pending count: 1
[DRAM_CYCLE_ERROR] Cycle-based error applied! address=0x1c4bc6e5c0 additional_latency=1990500 cycles
Heartbeat CPU 0 instructions: 470000073 cycles: 288568136 heartbeat IPC: 1.594 cumulative IPC: 1.629 (Simulation time: 00 hr 48 min 58 sec)
Heartbeat CPU 0 instructions: 480000074 cycles: 294828400 heartbeat IPC: 1.597 cumulative IPC: 1.628 (Simulation time: 00 hr 49 min 47 sec)
Heartbeat CPU 0 instructions: 490000074 cycles: 301066914 heartbeat IPC: 1.603 cumulative IPC: 1.628 (Simulation time: 00 hr 50 min 31 sec)
Heartbeat CPU 0 instructions: 500000076 cycles: 307294249 heartbeat IPC: 1.606 cumulative IPC: 1.627 (Simulation time: 00 hr 51 min 20 sec)
[ERROR_CYCLE] Error added at CPU cycle 309156565, interval 12, pending count: 1
[DRAM_CYCLE_ERROR] Cycle-based error applied! address=0x1828a6380 additional_latency=1990500 cycles
Heartbeat CPU 0 instructions: 510000076 cycles: 313486650 heartbeat IPC: 1.615 cumulative IPC: 1.627 (Simulation time: 00 hr 52 min 12 sec)
Heartbeat CPU 0 instructions: 520000078 cycles: 319760275 heartbeat IPC: 1.594 cumulative IPC: 1.626 (Simulation time: 00 hr 53 min 21 sec)
Heartbeat CPU 0 instructions: 530000079 cycles: 325999529 heartbeat IPC: 1.603 cumulative IPC: 1.626 (Simulation time: 00 hr 54 min 30 sec)
Heartbeat CPU 0 instructions: 540000081 cycles: 332222690 heartbeat IPC: 1.607 cumulative IPC: 1.625 (Simulation time: 00 hr 55 min 40 sec)
[ERROR_CYCLE] Error added at CPU cycle 334919611, interval 13, pending count: 1
[DRAM_CYCLE_ERROR] Cycle-based error applied! address=0xcb2bf47c0 additional_latency=1990500 cycles
Heartbeat CPU 0 instructions: 550000081 cycles: 338473615 heartbeat IPC: 1.6 cumulative IPC: 1.625 (Simulation time: 00 hr 56 min 49 sec)
Heartbeat CPU 0 instructions: 560000081 cycles: 344733158 heartbeat IPC: 1.598 cumulative IPC: 1.624 (Simulation time: 00 hr 57 min 51 sec)
Heartbeat CPU 0 instructions: 570000085 cycles: 351017455 heartbeat IPC: 1.591 cumulative IPC: 1.624 (Simulation time: 00 hr 58 min 54 sec)
Heartbeat CPU 0 instructions: 580000086 cycles: 357382240 heartbeat IPC: 1.571 cumulative IPC: 1.623 (Simulation time: 00 hr 59 min 59 sec)
[ERROR_CYCLE] Error added at CPU cycle 360682659, interval 14, pending count: 1
[DRAM_CYCLE_ERROR] Cycle-based error applied! address=0x14184041c0 additional_latency=1990500 cycles
Heartbeat CPU 0 instructions: 590000089 cycles: 363703066 heartbeat IPC: 1.582 cumulative IPC: 1.622 (Simulation time: 01 hr 01 min 06 sec)
Heartbeat CPU 0 instructions: 600000092 cycles: 370026378 heartbeat IPC: 1.581 cumulative IPC: 1.622 (Simulation time: 01 hr 02 min 17 sec)
Heartbeat CPU 0 instructions: 610000096 cycles: 376359035 heartbeat IPC: 1.579 cumulative IPC: 1.621 (Simulation time: 01 hr 03 min 27 sec)
Heartbeat CPU 0 instructions: 620000098 cycles: 382789637 heartbeat IPC: 1.555 cumulative IPC: 1.62 (Simulation time: 01 hr 04 min 24 sec)
[ERROR_CYCLE] Error added at CPU cycle 386445705, interval 15, pending count: 1
[DRAM_CYCLE_ERROR] Cycle-based error applied! address=0x12bf45e200 additional_latency=1990500 cycles
Heartbeat CPU 0 instructions: 630000101 cycles: 389171673 heartbeat IPC: 1.567 cumulative IPC: 1.619 (Simulation time: 01 hr 05 min 16 sec)
Heartbeat CPU 0 instructions: 640000105 cycles: 395526590 heartbeat IPC: 1.574 cumulative IPC: 1.618 (Simulation time: 01 hr 06 min 15 sec)
Heartbeat CPU 0 instructions: 650000105 cycles: 401843450 heartbeat IPC: 1.583 cumulative IPC: 1.618 (Simulation time: 01 hr 07 min 09 sec)
Heartbeat CPU 0 instructions: 660000105 cycles: 408145966 heartbeat IPC: 1.587 cumulative IPC: 1.617 (Simulation time: 01 hr 07 min 55 sec)
[ERROR_CYCLE] Error added at CPU cycle 412208752, interval 16, pending count: 1
[DRAM_CYCLE_ERROR] Cycle-based error applied! address=0x157a92a680 additional_latency=1990500 cycles
Heartbeat CPU 0 instructions: 670000107 cycles: 414490412 heartbeat IPC: 1.576 cumulative IPC: 1.616 (Simulation time: 01 hr 08 min 46 sec)
Heartbeat CPU 0 instructions: 680000110 cycles: 420841270 heartbeat IPC: 1.575 cumulative IPC: 1.616 (Simulation time: 01 hr 09 min 38 sec)
Heartbeat CPU 0 instructions: 690000111 cycles: 427107854 heartbeat IPC: 1.596 cumulative IPC: 1.616 (Simulation time: 01 hr 10 min 36 sec)
Heartbeat CPU 0 instructions: 700000113 cycles: 433343856 heartbeat IPC: 1.604 cumulative IPC: 1.615 (Simulation time: 01 hr 11 min 28 sec)
[ERROR_CYCLE] Error added at CPU cycle 437971800, interval 17, pending count: 1
[DRAM_CYCLE_ERROR] Cycle-based error applied! address=0x19cbb9ddc0 additional_latency=1990500 cycles
Heartbeat CPU 0 instructions: 710000114 cycles: 439649638 heartbeat IPC: 1.586 cumulative IPC: 1.615 (Simulation time: 01 hr 12 min 28 sec)
Heartbeat CPU 0 instructions: 720000116 cycles: 445921410 heartbeat IPC: 1.594 cumulative IPC: 1.615 (Simulation time: 01 hr 13 min 36 sec)
Heartbeat CPU 0 instructions: 730000120 cycles: 452183345 heartbeat IPC: 1.597 cumulative IPC: 1.614 (Simulation time: 01 hr 14 min 45 sec)
Heartbeat CPU 0 instructions: 740000124 cycles: 458433729 heartbeat IPC: 1.6 cumulative IPC: 1.614 (Simulation time: 01 hr 15 min 53 sec)
[ERROR_CYCLE] Error added at CPU cycle 463734846, interval 18, pending count: 1
[DRAM_CYCLE_ERROR] Cycle-based error applied! address=0x1b2d48740 additional_latency=1990500 cycles
Heartbeat CPU 0 instructions: 750000124 cycles: 464685520 heartbeat IPC: 1.6 cumulative IPC: 1.614 (Simulation time: 01 hr 17 min 01 sec)
Heartbeat CPU 0 instructions: 760000127 cycles: 470929710 heartbeat IPC: 1.601 cumulative IPC: 1.614 (Simulation time: 01 hr 18 min 09 sec)
Heartbeat CPU 0 instructions: 770000129 cycles: 477194573 heartbeat IPC: 1.596 cumulative IPC: 1.614 (Simulation time: 01 hr 19 min 13 sec)
Heartbeat CPU 0 instructions: 780000129 cycles: 483460002 heartbeat IPC: 1.596 cumulative IPC: 1.613 (Simulation time: 01 hr 20 min 21 sec)
[ERROR_CYCLE] Error added at CPU cycle 489497893, interval 19, pending count: 1
[DRAM_CYCLE_ERROR] Cycle-based error applied! address=0x1c4bd38380 additional_latency=1990500 cycles
Heartbeat CPU 0 instructions: 790000131 cycles: 489745698 heartbeat IPC: 1.591 cumulative IPC: 1.613 (Simulation time: 01 hr 21 min 30 sec)
Heartbeat CPU 0 instructions: 800000131 cycles: 496101309 heartbeat IPC: 1.573 cumulative IPC: 1.613 (Simulation time: 01 hr 22 min 27 sec)
Heartbeat CPU 0 instructions: 810000133 cycles: 502419004 heartbeat IPC: 1.583 cumulative IPC: 1.612 (Simulation time: 01 hr 23 min 35 sec)
Heartbeat CPU 0 instructions: 820000136 cycles: 508797058 heartbeat IPC: 1.568 cumulative IPC: 1.612 (Simulation time: 01 hr 24 min 43 sec)
Heartbeat CPU 0 instructions: 830000140 cycles: 515158890 heartbeat IPC: 1.572 cumulative IPC: 1.611 (Simulation time: 01 hr 25 min 31 sec)
[ERROR_CYCLE] Error added at CPU cycle 515260941, interval 20, pending count: 1
[DRAM_CYCLE_ERROR] Cycle-based error applied! address=0xf4a990e40 additional_latency=1990500 cycles
Heartbeat CPU 0 instructions: 840000142 cycles: 521475410 heartbeat IPC: 1.583 cumulative IPC: 1.611 (Simulation time: 01 hr 26 min 37 sec)
Heartbeat CPU 0 instructions: 850000144 cycles: 527804903 heartbeat IPC: 1.58 cumulative IPC: 1.61 (Simulation time: 01 hr 27 min 26 sec)
Heartbeat CPU 0 instructions: 860000148 cycles: 534149208 heartbeat IPC: 1.576 cumulative IPC: 1.61 (Simulation time: 01 hr 28 min 18 sec)
Heartbeat CPU 0 instructions: 870000149 cycles: 540497472 heartbeat IPC: 1.575 cumulative IPC: 1.61 (Simulation time: 01 hr 29 min 17 sec)
[ERROR_CYCLE] Error added at CPU cycle 541023987, interval 21, pending count: 1
[DRAM_CYCLE_ERROR] Cycle-based error applied! address=0x179bde1880 additional_latency=1990500 cycles
Heartbeat CPU 0 instructions: 880000150 cycles: 546805085 heartbeat IPC: 1.585 cumulative IPC: 1.609 (Simulation time: 01 hr 30 min 26 sec)
Heartbeat CPU 0 instructions: 890000153 cycles: 553075380 heartbeat IPC: 1.595 cumulative IPC: 1.609 (Simulation time: 01 hr 31 min 35 sec)
Heartbeat CPU 0 instructions: 900000153 cycles: 559386911 heartbeat IPC: 1.584 cumulative IPC: 1.609 (Simulation time: 01 hr 32 min 44 sec)
Heartbeat CPU 0 instructions: 910000155 cycles: 565646333 heartbeat IPC: 1.598 cumulative IPC: 1.609 (Simulation time: 01 hr 33 min 52 sec)
[ERROR_CYCLE] Error added at CPU cycle 566787034, interval 22, pending count: 1
[DRAM_CYCLE_ERROR] Cycle-based error applied! address=0x11d14b2940 additional_latency=1990500 cycles
Heartbeat CPU 0 instructions: 920000157 cycles: 571925781 heartbeat IPC: 1.592 cumulative IPC: 1.609 (Simulation time: 01 hr 34 min 45 sec)
Heartbeat CPU 0 instructions: 930000158 cycles: 578176160 heartbeat IPC: 1.6 cumulative IPC: 1.609 (Simulation time: 01 hr 35 min 51 sec)
Heartbeat CPU 0 instructions: 940000158 cycles: 584429695 heartbeat IPC: 1.599 cumulative IPC: 1.608 (Simulation time: 01 hr 36 min 53 sec)
Heartbeat CPU 0 instructions: 950000161 cycles: 590693496 heartbeat IPC: 1.596 cumulative IPC: 1.608 (Simulation time: 01 hr 37 min 42 sec)
[ERROR_CYCLE] Error added at CPU cycle 592550082, interval 23, pending count: 1
[DRAM_CYCLE_ERROR] Cycle-based error applied! address=0x149dab9600 additional_latency=1990500 cycles
Heartbeat CPU 0 instructions: 960000165 cycles: 596953132 heartbeat IPC: 1.598 cumulative IPC: 1.608 (Simulation time: 01 hr 38 min 51 sec)
Heartbeat CPU 0 instructions: 970000167 cycles: 603242291 heartbeat IPC: 1.59 cumulative IPC: 1.608 (Simulation time: 01 hr 40 min 00 sec)
Heartbeat CPU 0 instructions: 980000168 cycles: 609537364 heartbeat IPC: 1.589 cumulative IPC: 1.608 (Simulation time: 01 hr 41 min 04 sec)
Heartbeat CPU 0 instructions: 990000168 cycles: 615866827 heartbeat IPC: 1.58 cumulative IPC: 1.607 (Simulation time: 01 hr 42 min 14 sec)
[ERROR_CYCLE] Error added at CPU cycle 618313128, interval 24, pending count: 1
[DRAM_CYCLE_ERROR] Cycle-based error applied! address=0x1b2de1140 additional_latency=1990500 cycles
Heartbeat CPU 0 instructions: 1000000168 cycles: 622126512 heartbeat IPC: 1.598 cumulative IPC: 1.607 (Simulation time: 01 hr 43 min 23 sec)
Heartbeat CPU 0 instructions: 1010000168 cycles: 628425110 heartbeat IPC: 1.588 cumulative IPC: 1.607 (Simulation time: 01 hr 44 min 31 sec)
Heartbeat CPU 0 instructions: 1020000168 cycles: 634723888 heartbeat IPC: 1.588 cumulative IPC: 1.607 (Simulation time: 01 hr 45 min 40 sec)
Heartbeat CPU 0 instructions: 1030000170 cycles: 640992811 heartbeat IPC: 1.595 cumulative IPC: 1.607 (Simulation time: 01 hr 46 min 49 sec)
[ERROR_CYCLE] Error added at CPU cycle 644076176, interval 25, pending count: 1
[DRAM_CYCLE_ERROR] Cycle-based error applied! address=0x1b2df9940 additional_latency=1990500 cycles
Heartbeat CPU 0 instructions: 1040000170 cycles: 647245867 heartbeat IPC: 1.599 cumulative IPC: 1.607 (Simulation time: 01 hr 47 min 57 sec)
Heartbeat CPU 0 instructions: 1050000170 cycles: 653497249 heartbeat IPC: 1.6 cumulative IPC: 1.607 (Simulation time: 01 hr 49 min 05 sec)
Heartbeat CPU 0 instructions: 1060000172 cycles: 659783731 heartbeat IPC: 1.591 cumulative IPC: 1.607 (Simulation time: 01 hr 50 min 14 sec)
Heartbeat CPU 0 instructions: 1070000172 cycles: 666086324 heartbeat IPC: 1.587 cumulative IPC: 1.606 (Simulation time: 01 hr 51 min 23 sec)
[ERROR_CYCLE] Error added at CPU cycle 669839223, interval 26, pending count: 1
[DRAM_CYCLE_ERROR] Cycle-based error applied! address=0xf62212180 additional_latency=1990500 cycles
Heartbeat CPU 0 instructions: 1080000172 cycles: 672422787 heartbeat IPC: 1.578 cumulative IPC: 1.606 (Simulation time: 01 hr 52 min 32 sec)
Heartbeat CPU 0 instructions: 1090000173 cycles: 678700606 heartbeat IPC: 1.593 cumulative IPC: 1.606 (Simulation time: 01 hr 53 min 40 sec)
Heartbeat CPU 0 instructions: 1100000174 cycles: 684994248 heartbeat IPC: 1.589 cumulative IPC: 1.606 (Simulation time: 01 hr 54 min 49 sec)
Heartbeat CPU 0 instructions: 1110000176 cycles: 691314149 heartbeat IPC: 1.582 cumulative IPC: 1.606 (Simulation time: 01 hr 55 min 47 sec)
[ERROR_CYCLE] Error added at CPU cycle 695602269, interval 27, pending count: 1
[DRAM_CYCLE_ERROR] Cycle-based error applied! address=0xf6222c7c0 additional_latency=1990500 cycles
Heartbeat CPU 0 instructions: 1120000177 cycles: 697630773 heartbeat IPC: 1.583 cumulative IPC: 1.605 (Simulation time: 01 hr 56 min 38 sec)
Heartbeat CPU 0 instructions: 1130000179 cycles: 703918997 heartbeat IPC: 1.59 cumulative IPC: 1.605 (Simulation time: 01 hr 57 min 36 sec)
Heartbeat CPU 0 instructions: 1140000179 cycles: 710181352 heartbeat IPC: 1.597 cumulative IPC: 1.605 (Simulation time: 01 hr 58 min 44 sec)
Heartbeat CPU 0 instructions: 1150000180 cycles: 716451810 heartbeat IPC: 1.595 cumulative IPC: 1.605 (Simulation time: 01 hr 59 min 53 sec)
[ERROR_CYCLE] Error added at CPU cycle 721365317, interval 28, pending count: 1
[DRAM_CYCLE_ERROR] Cycle-based error applied! address=0xb3188c348 additional_latency=1990500 cycles
Heartbeat CPU 0 instructions: 1160000181 cycles: 722751634 heartbeat IPC: 1.587 cumulative IPC: 1.605 (Simulation time: 02 hr 00 min 58 sec)
Heartbeat CPU 0 instructions: 1170000183 cycles: 729075426 heartbeat IPC: 1.581 cumulative IPC: 1.605 (Simulation time: 02 hr 01 min 51 sec)
Heartbeat CPU 0 instructions: 1180000184 cycles: 735415920 heartbeat IPC: 1.577 cumulative IPC: 1.605 (Simulation time: 02 hr 02 min 50 sec)
Heartbeat CPU 0 instructions: 1190000184 cycles: 741699990 heartbeat IPC: 1.591 cumulative IPC: 1.604 (Simulation time: 02 hr 03 min 40 sec)
[ERROR_CYCLE] Error added at CPU cycle 747128363, interval 29, pending count: 1
[DRAM_CYCLE_ERROR] Cycle-based error applied! address=0x1e73ffe600 additional_latency=1990500 cycles
Heartbeat CPU 0 instructions: 1200000186 cycles: 747986286 heartbeat IPC: 1.591 cumulative IPC: 1.604 (Simulation time: 02 hr 04 min 45 sec)
Heartbeat CPU 0 instructions: 1210000190 cycles: 754347910 heartbeat IPC: 1.572 cumulative IPC: 1.604 (Simulation time: 02 hr 05 min 42 sec)
Heartbeat CPU 0 instructions: 1220000192 cycles: 760678032 heartbeat IPC: 1.58 cumulative IPC: 1.604 (Simulation time: 02 hr 06 min 41 sec)
Heartbeat CPU 0 instructions: 1230000192 cycles: 766973087 heartbeat IPC: 1.589 cumulative IPC: 1.604 (Simulation time: 02 hr 07 min 34 sec)
[ERROR_CYCLE] Error added at CPU cycle 772891410, interval 30, pending count: 1
[DRAM_CYCLE_ERROR] Cycle-based error applied! address=0x12bf5d8c00 additional_latency=1990500 cycles
Heartbeat CPU 0 instructions: 1240000192 cycles: 773247941 heartbeat IPC: 1.594 cumulative IPC: 1.604 (Simulation time: 02 hr 08 min 43 sec)
Heartbeat CPU 0 instructions: 1250000193 cycles: 779526048 heartbeat IPC: 1.593 cumulative IPC: 1.604 (Simulation time: 02 hr 09 min 45 sec)
Heartbeat CPU 0 instructions: 1260000194 cycles: 785868468 heartbeat IPC: 1.577 cumulative IPC: 1.603 (Simulation time: 02 hr 10 min 40 sec)
Heartbeat CPU 0 instructions: 1270000195 cycles: 792277624 heartbeat IPC: 1.56 cumulative IPC: 1.603 (Simulation time: 02 hr 11 min 49 sec)
Heartbeat CPU 0 instructions: 1280000195 cycles: 798612321 heartbeat IPC: 1.579 cumulative IPC: 1.603 (Simulation time: 02 hr 12 min 53 sec)
[ERROR_CYCLE] Error added at CPU cycle 798654458, interval 31, pending count: 1
[DRAM_CYCLE_ERROR] Cycle-based error applied! address=0xf62292080 additional_latency=1990500 cycles
Heartbeat CPU 0 instructions: 1290000197 cycles: 804927412 heartbeat IPC: 1.584 cumulative IPC: 1.603 (Simulation time: 02 hr 13 min 52 sec)
Heartbeat CPU 0 instructions: 1300000200 cycles: 811264761 heartbeat IPC: 1.578 cumulative IPC: 1.602 (Simulation time: 02 hr 14 min 57 sec)
Heartbeat CPU 0 instructions: 1310000203 cycles: 817597925 heartbeat IPC: 1.579 cumulative IPC: 1.602 (Simulation time: 02 hr 15 min 53 sec)
Heartbeat CPU 0 instructions: 1320000204 cycles: 823901132 heartbeat IPC: 1.586 cumulative IPC: 1.602 (Simulation time: 02 hr 17 min 01 sec)
[ERROR_CYCLE] Error added at CPU cycle 824417504, interval 32, pending count: 1
[DRAM_CYCLE_ERROR] Cycle-based error applied! address=0xe03dd05c0 additional_latency=1990500 cycles
Heartbeat CPU 0 instructions: 1330000204 cycles: 830186579 heartbeat IPC: 1.591 cumulative IPC: 1.602 (Simulation time: 02 hr 18 min 09 sec)
Heartbeat CPU 0 instructions: 1340000207 cycles: 836442061 heartbeat IPC: 1.599 cumulative IPC: 1.602 (Simulation time: 02 hr 19 min 16 sec)
Heartbeat CPU 0 instructions: 1350000211 cycles: 842711434 heartbeat IPC: 1.595 cumulative IPC: 1.602 (Simulation time: 02 hr 20 min 24 sec)
Heartbeat CPU 0 instructions: 1360000211 cycles: 849080273 heartbeat IPC: 1.57 cumulative IPC: 1.602 (Simulation time: 02 hr 21 min 33 sec)
[ERROR_CYCLE] Error added at CPU cycle 850180551, interval 33, pending count: 1
[DRAM_CYCLE_ERROR] Cycle-based error applied! address=0x17e43a1080 additional_latency=1990500 cycles
Heartbeat CPU 0 instructions: 1370000214 cycles: 855390991 heartbeat IPC: 1.585 cumulative IPC: 1.602 (Simulation time: 02 hr 22 min 41 sec)
Heartbeat CPU 0 instructions: 1380000216 cycles: 861695297 heartbeat IPC: 1.586 cumulative IPC: 1.601 (Simulation time: 02 hr 23 min 49 sec)
Heartbeat CPU 0 instructions: 1390000217 cycles: 868016206 heartbeat IPC: 1.582 cumulative IPC: 1.601 (Simulation time: 02 hr 24 min 57 sec)
Heartbeat CPU 0 instructions: 1400000219 cycles: 874360561 heartbeat IPC: 1.576 cumulative IPC: 1.601 (Simulation time: 02 hr 26 min 05 sec)
[ERROR_CYCLE] Error added at CPU cycle 875943599, interval 34, pending count: 1
[DRAM_CYCLE_ERROR] Cycle-based error applied! address=0x17e43f4240 additional_latency=1990500 cycles
Heartbeat CPU 0 instructions: 1410000223 cycles: 880726379 heartbeat IPC: 1.571 cumulative IPC: 1.601 (Simulation time: 02 hr 27 min 01 sec)
Heartbeat CPU 0 instructions: 1420000225 cycles: 887061326 heartbeat IPC: 1.579 cumulative IPC: 1.601 (Simulation time: 02 hr 27 min 49 sec)
Heartbeat CPU 0 instructions: 1430000228 cycles: 893377607 heartbeat IPC: 1.583 cumulative IPC: 1.601 (Simulation time: 02 hr 28 min 39 sec)
Heartbeat CPU 0 instructions: 1440000232 cycles: 899702349 heartbeat IPC: 1.581 cumulative IPC: 1.601 (Simulation time: 02 hr 29 min 26 sec)
[ERROR_CYCLE] Error added at CPU cycle 901706645, interval 35, pending count: 1
[DRAM_CYCLE_ERROR] Cycle-based error applied! address=0x1c4521f740 additional_latency=1990500 cycles
Heartbeat CPU 0 instructions: 1450000235 cycles: 906067066 heartbeat IPC: 1.571 cumulative IPC: 1.6 (Simulation time: 02 hr 30 min 16 sec)
Heartbeat CPU 0 instructions: 1460000238 cycles: 912487976 heartbeat IPC: 1.557 cumulative IPC: 1.6 (Simulation time: 02 hr 31 min 10 sec)
Heartbeat CPU 0 instructions: 1470000241 cycles: 918799436 heartbeat IPC: 1.584 cumulative IPC: 1.6 (Simulation time: 02 hr 32 min 19 sec)
Heartbeat CPU 0 instructions: 1480000244 cycles: 925080490 heartbeat IPC: 1.592 cumulative IPC: 1.6 (Simulation time: 02 hr 33 min 27 sec)
[ERROR_CYCLE] Error added at CPU cycle 927469692, interval 36, pending count: 1
[DRAM_CYCLE_ERROR] Cycle-based error applied! address=0xf6230fc00 additional_latency=1990500 cycles
Heartbeat CPU 0 instructions: 1490000247 cycles: 931352171 heartbeat IPC: 1.594 cumulative IPC: 1.6 (Simulation time: 02 hr 34 min 35 sec)
Heartbeat CPU 0 instructions: 1500000248 cycles: 937651715 heartbeat IPC: 1.587 cumulative IPC: 1.6 (Simulation time: 02 hr 35 min 43 sec)
Heartbeat CPU 0 instructions: 1510000250 cycles: 943937925 heartbeat IPC: 1.591 cumulative IPC: 1.6 (Simulation time: 02 hr 36 min 52 sec)
Heartbeat CPU 0 instructions: 1520000253 cycles: 950185696 heartbeat IPC: 1.601 cumulative IPC: 1.6 (Simulation time: 02 hr 38 min 01 sec)
[ERROR_CYCLE] Error added at CPU cycle 953232740, interval 37, pending count: 1
[DRAM_CYCLE_ERROR] Cycle-based error applied! address=0x1ee4e89440 additional_latency=1990500 cycles
Heartbeat CPU 0 instructions: 1530000253 cycles: 956429616 heartbeat IPC: 1.602 cumulative IPC: 1.6 (Simulation time: 02 hr 39 min 09 sec)
Heartbeat CPU 0 instructions: 1540000255 cycles: 962671610 heartbeat IPC: 1.602 cumulative IPC: 1.6 (Simulation time: 02 hr 40 min 17 sec)
Heartbeat CPU 0 instructions: 1550000259 cycles: 969010156 heartbeat IPC: 1.578 cumulative IPC: 1.6 (Simulation time: 02 hr 41 min 26 sec)
Heartbeat CPU 0 instructions: 1560000260 cycles: 975280090 heartbeat IPC: 1.595 cumulative IPC: 1.6 (Simulation time: 02 hr 42 min 35 sec)
[ERROR_CYCLE] Error added at CPU cycle 978995786, interval 38, pending count: 1
[DRAM_CYCLE_ERROR] Cycle-based error applied! address=0x961790cc0 additional_latency=1990500 cycles
Heartbeat CPU 0 instructions: 1570000263 cycles: 981550380 heartbeat IPC: 1.595 cumulative IPC: 1.6 (Simulation time: 02 hr 43 min 43 sec)
Heartbeat CPU 0 instructions: 1580000263 cycles: 987811471 heartbeat IPC: 1.597 cumulative IPC: 1.599 (Simulation time: 02 hr 44 min 51 sec)
Heartbeat CPU 0 instructions: 1590000264 cycles: 994061436 heartbeat IPC: 1.6 cumulative IPC: 1.599 (Simulation time: 02 hr 45 min 59 sec)
Heartbeat CPU 0 instructions: 1600000266 cycles: 1000364101 heartbeat IPC: 1.587 cumulative IPC: 1.599 (Simulation time: 02 hr 47 min 08 sec)
[ERROR_CYCLE] Error added at CPU cycle 1004758834, interval 39, pending count: 1
[DRAM_CYCLE_ERROR] Cycle-based error applied! address=0xf6235b500 additional_latency=1990500 cycles
Heartbeat CPU 0 instructions: 1610000267 cycles: 1006683970 heartbeat IPC: 1.582 cumulative IPC: 1.599 (Simulation time: 02 hr 48 min 17 sec)
Heartbeat CPU 0 instructions: 1620000268 cycles: 1012996449 heartbeat IPC: 1.584 cumulative IPC: 1.599 (Simulation time: 02 hr 49 min 25 sec)
Heartbeat CPU 0 instructions: 1630000270 cycles: 1019307349 heartbeat IPC: 1.585 cumulative IPC: 1.599 (Simulation time: 02 hr 50 min 33 sec)
Heartbeat CPU 0 instructions: 1640000272 cycles: 1025680133 heartbeat IPC: 1.569 cumulative IPC: 1.599 (Simulation time: 02 hr 51 min 43 sec)
[ERROR_CYCLE] Error added at CPU cycle 1030521880, interval 40, pending count: 1
[DRAM_CYCLE_ERROR] Cycle-based error applied! address=0x1ee4ed69c0 additional_latency=1990500 cycles
Heartbeat CPU 0 instructions: 1650000273 cycles: 1032027570 heartbeat IPC: 1.575 cumulative IPC: 1.599 (Simulation time: 02 hr 52 min 51 sec)
Heartbeat CPU 0 instructions: 1660000277 cycles: 1038349207 heartbeat IPC: 1.582 cumulative IPC: 1.599 (Simulation time: 02 hr 54 min 00 sec)
Heartbeat CPU 0 instructions: 1670000280 cycles: 1044674125 heartbeat IPC: 1.581 cumulative IPC: 1.599 (Simulation time: 02 hr 55 min 08 sec)
Heartbeat CPU 0 instructions: 1680000280 cycles: 1050986300 heartbeat IPC: 1.584 cumulative IPC: 1.598 (Simulation time: 02 hr 56 min 16 sec)
[ERROR_CYCLE] Error added at CPU cycle 1056284927, interval 41, pending count: 1
[DRAM_CYCLE_ERROR] Cycle-based error applied! address=0x8f6765280 additional_latency=1990500 cycles
Heartbeat CPU 0 instructions: 1690000283 cycles: 1057329789 heartbeat IPC: 1.576 cumulative IPC: 1.598 (Simulation time: 02 hr 57 min 19 sec)
Heartbeat CPU 0 instructions: 1700000285 cycles: 1063683581 heartbeat IPC: 1.574 cumulative IPC: 1.598 (Simulation time: 02 hr 58 min 12 sec)
Heartbeat CPU 0 instructions: 1710000288 cycles: 1070000593 heartbeat IPC: 1.583 cumulative IPC: 1.598 (Simulation time: 02 hr 59 min 18 sec)
Heartbeat CPU 0 instructions: 1720000290 cycles: 1076274199 heartbeat IPC: 1.594 cumulative IPC: 1.598 (Simulation time: 03 hr 00 min 26 sec)
[ERROR_CYCLE] Error added at CPU cycle 1082047975, interval 42, pending count: 1
[DRAM_CYCLE_ERROR] Cycle-based error applied! address=0xa58345540 additional_latency=1990500 cycles
Heartbeat CPU 0 instructions: 1730000293 cycles: 1082550932 heartbeat IPC: 1.593 cumulative IPC: 1.598 (Simulation time: 03 hr 01 min 33 sec)
Heartbeat CPU 0 instructions: 1740000296 cycles: 1088890811 heartbeat IPC: 1.577 cumulative IPC: 1.598 (Simulation time: 03 hr 02 min 39 sec)
Heartbeat CPU 0 instructions: 1750000296 cycles: 1095156862 heartbeat IPC: 1.596 cumulative IPC: 1.598 (Simulation time: 03 hr 03 min 39 sec)
Heartbeat CPU 0 instructions: 1760000296 cycles: 1101408952 heartbeat IPC: 1.599 cumulative IPC: 1.598 (Simulation time: 03 hr 04 min 47 sec)
Heartbeat CPU 0 instructions: 1770000297 cycles: 1107671460 heartbeat IPC: 1.597 cumulative IPC: 1.598 (Simulation time: 03 hr 05 min 55 sec)
[ERROR_CYCLE] Error added at CPU cycle 1107811021, interval 43, pending count: 1
[DRAM_CYCLE_ERROR] Cycle-based error applied! address=0xb3ca42d80 additional_latency=1990500 cycles
Heartbeat CPU 0 instructions: 1780000300 cycles: 1113940402 heartbeat IPC: 1.595 cumulative IPC: 1.598 (Simulation time: 03 hr 07 min 03 sec)
Heartbeat CPU 0 instructions: 1790000301 cycles: 1120204269 heartbeat IPC: 1.596 cumulative IPC: 1.598 (Simulation time: 03 hr 08 min 11 sec)
Heartbeat CPU 0 instructions: 1800000304 cycles: 1126544985 heartbeat IPC: 1.577 cumulative IPC: 1.598 (Simulation time: 03 hr 09 min 19 sec)
Heartbeat CPU 0 instructions: 1810000304 cycles: 1132880436 heartbeat IPC: 1.578 cumulative IPC: 1.598 (Simulation time: 03 hr 10 min 28 sec)
[ERROR_CYCLE] Error added at CPU cycle 1133574068, interval 44, pending count: 1
[DRAM_CYCLE_ERROR] Cycle-based error applied! address=0xf623d9440 additional_latency=1990500 cycles
Heartbeat CPU 0 instructions: 1820000306 cycles: 1139172858 heartbeat IPC: 1.589 cumulative IPC: 1.598 (Simulation time: 03 hr 11 min 36 sec)
Heartbeat CPU 0 instructions: 1830000306 cycles: 1145502703 heartbeat IPC: 1.58 cumulative IPC: 1.598 (Simulation time: 03 hr 12 min 38 sec)
Heartbeat CPU 0 instructions: 1840000308 cycles: 1151800702 heartbeat IPC: 1.588 cumulative IPC: 1.597 (Simulation time: 03 hr 13 min 35 sec)
Heartbeat CPU 0 instructions: 1850000311 cycles: 1158072977 heartbeat IPC: 1.594 cumulative IPC: 1.597 (Simulation time: 03 hr 14 min 38 sec)
[ERROR_CYCLE] Error added at CPU cycle 1159337116, interval 45, pending count: 1
[DRAM_CYCLE_ERROR] Cycle-based error applied! address=0x1f54e39240 additional_latency=1990500 cycles
Heartbeat CPU 0 instructions: 1860000312 cycles: 1164350547 heartbeat IPC: 1.593 cumulative IPC: 1.597 (Simulation time: 03 hr 15 min 32 sec)
Heartbeat CPU 0 instructions: 1870000313 cycles: 1170619579 heartbeat IPC: 1.595 cumulative IPC: 1.597 (Simulation time: 03 hr 16 min 36 sec)
Heartbeat CPU 0 instructions: 1880000314 cycles: 1176891924 heartbeat IPC: 1.594 cumulative IPC: 1.597 (Simulation time: 03 hr 17 min 44 sec)
Heartbeat CPU 0 instructions: 1890000314 cycles: 1183240272 heartbeat IPC: 1.575 cumulative IPC: 1.597 (Simulation time: 03 hr 18 min 51 sec)
[ERROR_CYCLE] Error added at CPU cycle 1185100162, interval 46, pending count: 1
[DRAM_CYCLE_ERROR] Cycle-based error applied! address=0x7244bdec0 additional_latency=1990500 cycles
Heartbeat CPU 0 instructions: 1900000314 cycles: 1189593078 heartbeat IPC: 1.574 cumulative IPC: 1.597 (Simulation time: 03 hr 19 min 45 sec)
Heartbeat CPU 0 instructions: 1910000315 cycles: 1195889684 heartbeat IPC: 1.588 cumulative IPC: 1.597 (Simulation time: 03 hr 20 min 49 sec)
Heartbeat CPU 0 instructions: 1920000315 cycles: 1202222157 heartbeat IPC: 1.579 cumulative IPC: 1.597 (Simulation time: 03 hr 21 min 57 sec)
Heartbeat CPU 0 instructions: 1930000317 cycles: 1208475939 heartbeat IPC: 1.599 cumulative IPC: 1.597 (Simulation time: 03 hr 23 min 06 sec)
[ERROR_CYCLE] Error added at CPU cycle 1210863209, interval 47, pending count: 1
[DRAM_CYCLE_ERROR] Cycle-based error applied! address=0x1112826940 additional_latency=1990500 cycles
Heartbeat CPU 0 instructions: 1940000317 cycles: 1214755936 heartbeat IPC: 1.592 cumulative IPC: 1.597 (Simulation time: 03 hr 24 min 14 sec)
Heartbeat CPU 0 instructions: 1950000318 cycles: 1221009387 heartbeat IPC: 1.599 cumulative IPC: 1.597 (Simulation time: 03 hr 25 min 23 sec)
Heartbeat CPU 0 instructions: 1960000319 cycles: 1227277879 heartbeat IPC: 1.595 cumulative IPC: 1.597 (Simulation time: 03 hr 26 min 32 sec)
Heartbeat CPU 0 instructions: 1970000321 cycles: 1233529888 heartbeat IPC: 1.599 cumulative IPC: 1.597 (Simulation time: 03 hr 27 min 40 sec)
[ERROR_CYCLE] Error added at CPU cycle 1236626257, interval 48, pending count: 1
[DRAM_CYCLE_ERROR] Cycle-based error applied! address=0x1ee4fa0240 additional_latency=1990500 cycles
Heartbeat CPU 0 instructions: 1980000325 cycles: 1239795273 heartbeat IPC: 1.596 cumulative IPC: 1.597 (Simulation time: 03 hr 28 min 49 sec)
Heartbeat CPU 0 instructions: 1990000326 cycles: 1246097416 heartbeat IPC: 1.587 cumulative IPC: 1.597 (Simulation time: 03 hr 29 min 58 sec)

=== ERROR PAGE STATISTICS ===
Mode: CYCLE
Error Cycle Interval: 25763047 CPU cycles
Total Error Accesses: 48
==============================
Simulation finished CPU 0 instructions: 1999999510 cycles: 1252428461 cumulative IPC: 1.597 (Simulation time: 03 hr 31 min 08 sec)
Simulation complete CPU 0 instructions: 1999999510 cycles: 1252428461 cumulative IPC: 1.597 (Simulation time: 03 hr 31 min 08 sec)

ChampSim completed all CPUs

=== Simulation ===
CPU 0 runs test_traces/607.cactuBSSN_s-2421B.champsimtrace.xz

Region of Interest Statistics

CPU 0 cumulative IPC: 1.597 instructions: 1999999510 cycles: 1252428461
CPU 0 Branch Prediction Accuracy: 98.41% MPKI: 0.0223 Average ROB Occupancy at Mispredict: 322.1
Branch type MPKI
BRANCH_DIRECT_JUMP: 3.4e-05
BRANCH_INDIRECT: 4.45e-05
BRANCH_CONDITIONAL: 0.0122
BRANCH_DIRECT_CALL: 0.000332
BRANCH_INDIRECT_CALL: 1.5e-06
BRANCH_RETURN: 0.009687

cpu0->cpu0_STLB TOTAL        ACCESS:   18065821 HIT:   18065578 MISS:        243 MSHR_MERGE:          0
cpu0->cpu0_STLB LOAD         ACCESS:   18065821 HIT:   18065578 MISS:        243 MSHR_MERGE:          0
cpu0->cpu0_STLB RFO          ACCESS:          0 HIT:          0 MISS:          0 MSHR_MERGE:          0
cpu0->cpu0_STLB PREFETCH     ACCESS:          0 HIT:          0 MISS:          0 MSHR_MERGE:          0
cpu0->cpu0_STLB WRITE        ACCESS:          0 HIT:          0 MISS:          0 MSHR_MERGE:          0
cpu0->cpu0_STLB TRANSLATION  ACCESS:          0 HIT:          0 MISS:          0 MSHR_MERGE:          0
cpu0->cpu0_STLB PREFETCH REQUESTED:          0 ISSUED:          0 USEFUL:          0 USELESS:          0
cpu0->cpu0_STLB AVERAGE MISS LATENCY: 9087 cycles
cpu0->cpu0_L2C TOTAL        ACCESS:  251087939 HIT:  230705213 MISS:   20382726 MSHR_MERGE:          0
cpu0->cpu0_L2C LOAD         ACCESS:  217006660 HIT:  196654560 MISS:   20352100 MSHR_MERGE:          0
cpu0->cpu0_L2C RFO          ACCESS:   16173558 HIT:   16142950 MISS:      30608 MSHR_MERGE:          0
cpu0->cpu0_L2C PREFETCH     ACCESS:          0 HIT:          0 MISS:          0 MSHR_MERGE:          0
cpu0->cpu0_L2C WRITE        ACCESS:   17907721 HIT:   17907703 MISS:         18 MSHR_MERGE:          0
cpu0->cpu0_L2C TRANSLATION  ACCESS:          0 HIT:          0 MISS:          0 MSHR_MERGE:          0
cpu0->cpu0_L2C PREFETCH REQUESTED:          0 ISSUED:          0 USEFUL:          0 USELESS:          0
cpu0->cpu0_L2C AVERAGE MISS LATENCY: 98.6 cycles
cpu0->cpu0_L1I TOTAL        ACCESS:  392726061 HIT:  390068391 MISS:    2657670 MSHR_MERGE:    1307527
cpu0->cpu0_L1I LOAD         ACCESS:  392726061 HIT:  390068391 MISS:    2657670 MSHR_MERGE:    1307527
cpu0->cpu0_L1I RFO          ACCESS:          0 HIT:          0 MISS:          0 MSHR_MERGE:          0
cpu0->cpu0_L1I PREFETCH     ACCESS:          0 HIT:          0 MISS:          0 MSHR_MERGE:          0
cpu0->cpu0_L1I WRITE        ACCESS:          0 HIT:          0 MISS:          0 MSHR_MERGE:          0
cpu0->cpu0_L1I TRANSLATION  ACCESS:          0 HIT:          0 MISS:          0 MSHR_MERGE:          0
cpu0->cpu0_L1I PREFETCH REQUESTED:          0 ISSUED:          0 USEFUL:          0 USELESS:          0
cpu0->cpu0_L1I AVERAGE MISS LATENCY: 7.272 cycles
cpu0->cpu0_L1D TOTAL        ACCESS:  651075574 HIT:  376369458 MISS:  274706116 MSHR_MERGE:   42206875
cpu0->cpu0_L1D LOAD         ACCESS:  424325532 HIT:  167544873 MISS:  256780659 MSHR_MERGE:   40461980
cpu0->cpu0_L1D RFO          ACCESS:          0 HIT:          0 MISS:          0 MSHR_MERGE:          0
cpu0->cpu0_L1D PREFETCH     ACCESS:          0 HIT:          0 MISS:          0 MSHR_MERGE:          0
cpu0->cpu0_L1D WRITE        ACCESS:  226750042 HIT:  208824585 MISS:   17925457 MSHR_MERGE:    1744895
cpu0->cpu0_L1D TRANSLATION  ACCESS:          0 HIT:          0 MISS:          0 MSHR_MERGE:          0
cpu0->cpu0_L1D PREFETCH REQUESTED:          0 ISSUED:          0 USEFUL:          0 USELESS:          0
cpu0->cpu0_L1D AVERAGE MISS LATENCY: 17.81 cycles
cpu0->cpu0_ITLB TOTAL        ACCESS:  319371414 HIT:  319371401 MISS:         13 MSHR_MERGE:         10
cpu0->cpu0_ITLB LOAD         ACCESS:  319371414 HIT:  319371401 MISS:         13 MSHR_MERGE:         10
cpu0->cpu0_ITLB RFO          ACCESS:          0 HIT:          0 MISS:          0 MSHR_MERGE:          0
cpu0->cpu0_ITLB PREFETCH     ACCESS:          0 HIT:          0 MISS:          0 MSHR_MERGE:          0
cpu0->cpu0_ITLB WRITE        ACCESS:          0 HIT:          0 MISS:          0 MSHR_MERGE:          0
cpu0->cpu0_ITLB TRANSLATION  ACCESS:          0 HIT:          0 MISS:          0 MSHR_MERGE:          0
cpu0->cpu0_ITLB PREFETCH REQUESTED:          0 ISSUED:          0 USEFUL:          0 USELESS:          0
cpu0->cpu0_ITLB AVERAGE MISS LATENCY: 8735 cycles
cpu0->cpu0_DTLB TOTAL        ACCESS:  491456597 HIT:  454368064 MISS:   37088533 MSHR_MERGE:   19022715
cpu0->cpu0_DTLB LOAD         ACCESS:  491456597 HIT:  454368064 MISS:   37088533 MSHR_MERGE:   19022715
cpu0->cpu0_DTLB RFO          ACCESS:          0 HIT:          0 MISS:          0 MSHR_MERGE:          0
cpu0->cpu0_DTLB PREFETCH     ACCESS:          0 HIT:          0 MISS:          0 MSHR_MERGE:          0
cpu0->cpu0_DTLB WRITE        ACCESS:          0 HIT:          0 MISS:          0 MSHR_MERGE:          0
cpu0->cpu0_DTLB TRANSLATION  ACCESS:          0 HIT:          0 MISS:          0 MSHR_MERGE:          0
cpu0->cpu0_DTLB PREFETCH REQUESTED:          0 ISSUED:          0 USEFUL:          0 USELESS:          0
cpu0->cpu0_DTLB AVERAGE MISS LATENCY: 5.143 cycles
cpu0->LLC TOTAL        ACCESS:   22275847 HIT:    7173040 MISS:   15102807 MSHR_MERGE:          0
cpu0->LLC LOAD         ACCESS:   20352100 HIT:    5279949 MISS:   15072151 MSHR_MERGE:          0
cpu0->LLC RFO          ACCESS:      30608 HIT:          0 MISS:      30608 MSHR_MERGE:          0
cpu0->LLC PREFETCH     ACCESS:          0 HIT:          0 MISS:          0 MSHR_MERGE:          0
cpu0->LLC WRITE        ACCESS:    1893139 HIT:    1893091 MISS:         48 MSHR_MERGE:          0
cpu0->LLC TRANSLATION  ACCESS:          0 HIT:          0 MISS:          0 MSHR_MERGE:          0
cpu0->LLC PREFETCH REQUESTED:          0 ISSUED:          0 USEFUL:          0 USELESS:          0
cpu0->LLC AVERAGE MISS LATENCY: 111.8 cycles

DRAM Statistics

Channel 0 RQ ROW_BUFFER_HIT:      33913
  ROW_BUFFER_MISS:    7517689
  AVG DBUS CONGESTED CYCLE: 10.06
Channel 0 WQ ROW_BUFFER_HIT:     255128
  ROW_BUFFER_MISS:     689036
  FULL:          0
Channel 0 REFRESHES ISSUED:     104362

Channel 1 RQ ROW_BUFFER_HIT:      33752
  ROW_BUFFER_MISS:    7517884
  AVG DBUS CONGESTED CYCLE: 10.06
Channel 1 WQ ROW_BUFFER_HIT:     254573
  ROW_BUFFER_MISS:     689610
  FULL:          0
Channel 1 REFRESHES ISSUED:     104362
