
*** ChampSim Multicore Out-of-Order Simulator ***
Warmup Instructions: 0
Simulation Instructions: 9223372036854775807
Number of CPUs: 1
Page size: 1048576

Off-chip DRAM Size: 32 GiB Channels: 2 Width: 32-bit Data Rate: 4807 MT/s
[ERROR_PAGE_MANAGER] Error latency: 2459910500 
[ERROR_PAGE_MANAGER] Random seed: 54321 (fixed for preload reproducibility)
[ERROR_PAGE_MANAGER] Cycle-based error modeling enabled
[ERROR_PAGE_MANAGER] Errors per interval: 1
[ERROR_PAGE_MANAGER] Error cycle interval: 705324015 cycles

=== ERROR PAGE STATISTICS ===
Mode: CYCLE
Error Cycle Interval: 705324015 CPU cycles
Total Error Accesses: 0
==============================
Warmup finished CPU 0 instructions: 0 cycles: 1 cumulative IPC: 0 (Simulation time: 00 hr 00 min 00 sec)
Warmup complete CPU 0 instructions: 0 cycles: 1 cumulative IPC: 0 (Simulation time: 00 hr 00 min 00 sec)
Simulation CPU 0 panic: IPC 0 < 0.01
Simulation CPU 0 panic: IPC 2e-06 < 0.01
Simulation CPU 0 panic: IPC 0 < 0.01
Simulation CPU 0 panic: IPC 2.52e-05 < 0.01
Simulation CPU 0 panic: IPC 0.000543 < 0.01
Simulation CPU 0 panic: IPC 0.0003794 < 0.01
Simulation CPU 0 panic: IPC 7.5e-06 < 0.01
Simulation CPU 0 panic: IPC 2.1e-06 < 0.01
Simulation CPU 0 panic: IPC 1.7e-06 < 0.01
Simulation CPU 0 panic: IPC 1.11e-05 < 0.01
Simulation CPU 0 panic: IPC 1e-07 < 0.01
Simulation CPU 0 panic: IPC 4e-07 < 0.01
Simulation CPU 0 panic: IPC 4e-06 < 0.01
Simulation CPU 0 panic: IPC 8e-06 < 0.01
Simulation CPU 0 panic: IPC 0.0030956 < 0.01
Simulation CPU 0 critical: IPC 0.018621 < 0.02
Simulation CPU 0 critical: IPC 0.015891 < 0.02
Simulation CPU 0 panic: IPC 0.0027506 < 0.01
Simulation CPU 0 warning: IPC 0.021759 < 0.05
Simulation CPU 0 warning: IPC 0.024809 < 0.05
Simulation CPU 0 warning: IPC 0.037198 < 0.05
Simulation CPU 0 panic: IPC 7.2e-06 < 0.01
Simulation CPU 0 panic: IPC 8e-06 < 0.01
Simulation CPU 0 panic: IPC 0.0061778 < 0.01
Simulation CPU 0 panic: IPC 0.0061606 < 0.01
Simulation CPU 0 panic: IPC 0.0093766 < 0.01
Simulation CPU 0 panic: IPC 0.0059319 < 0.01
Simulation CPU 0 critical: IPC 0.012699 < 0.02
Simulation CPU 0 critical: IPC 0.012403 < 0.02
Simulation CPU 0 critical: IPC 0.018633 < 0.02
Simulation CPU 0 panic: IPC 0.009306 < 0.01
Simulation CPU 0 panic: IPC 8e-06 < 0.01
Simulation CPU 0 panic: IPC 0.0030944 < 0.01
Simulation CPU 0 panic: IPC 0.0084984 < 0.01
Simulation CPU 0 critical: IPC 0.010128 < 0.02
Simulation CPU 0 panic: IPC 0.0030958 < 0.01
Simulation CPU 0 critical: IPC 0.018635 < 0.02
Simulation CPU 0 critical: IPC 0.015525 < 0.02
Simulation CPU 0 panic: IPC 0.003084 < 0.01
Simulation CPU 0 panic: IPC 0.0093209 < 0.01
Simulation CPU 0 warning: IPC 0.040334 < 0.05
Simulation CPU 0 panic: IPC 0.0003344 < 0.01
Simulation CPU 0 panic: IPC 0.0001264 < 0.01
Simulation CPU 0 panic: IPC 8e-07 < 0.01
Simulation CPU 0 panic: IPC 1.6e-06 < 0.01
Simulation CPU 0 panic: IPC 8e-07 < 0.01
Simulation CPU 0 panic: IPC 8e-07 < 0.01
Simulation CPU 0 panic: IPC 8.8e-06 < 0.01
Simulation CPU 0 panic: IPC 8e-07 < 0.01
Simulation CPU 0 panic: IPC 0.0010825 < 0.01
Simulation CPU 0 critical: IPC 0.012459 < 0.02
Simulation CPU 0 critical: IPC 0.010631 < 0.02
Simulation CPU 0 critical: IPC 0.011066 < 0.02
Simulation CPU 0 panic: IPC 7.2e-06 < 0.01
Simulation CPU 0 panic: IPC 0.003121 < 0.01
Simulation CPU 0 panic: IPC 0.0030986 < 0.01
Simulation CPU 0 warning: IPC 0.036728 < 0.05
Simulation CPU 0 warning: IPC 0.029702 < 0.05
Heartbeat CPU 0 instructions: 10000002 cycles: 658288758 heartbeat IPC: 0.01519 cumulative IPC: 0.01519 (Simulation time: 00 hr 52 min 22 sec)
Simulation CPU 0 warning: IPC 0.02925 < 0.05
Simulation CPU 0 warning: IPC 0.04774 < 0.05
Simulation CPU 0 panic: IPC 0.0062037 < 0.01
Simulation CPU 0 panic: IPC 0.0039995 < 0.01
[ERROR_CYCLE] Error added at CPU cycle 705324016, interval 1, pending count: 1
[DRAM_CYCLE_ERROR] Cycle-based error applied! address=0x146f00020 additional_latency=2459910500 cycles
Simulation CPU 0 panic: IPC 0 < 0.01
Simulation CPU 0 warning: IPC 0.02399 < 0.05
Simulation CPU 0 warning: IPC 0.03414 < 0.05
Simulation CPU 0 warning: IPC 0.022203 < 0.05
Simulation CPU 0 panic: IPC 0.0084508 < 0.01
Simulation CPU 0 critical: IPC 0.012076 < 0.02
Simulation CPU 0 panic: IPC 0.0071009 < 0.01
Simulation CPU 0 critical: IPC 0.018628 < 0.02
Simulation CPU 0 panic: IPC 8e-06 < 0.01
Simulation CPU 0 panic: IPC 0.0062191 < 0.01
Simulation CPU 0 panic: IPC 0.000472 < 0.01
Simulation CPU 0 warning: IPC 0.046519 < 0.05
Simulation CPU 0 warning: IPC 0.027922 < 0.05
Simulation CPU 0 warning: IPC 0.028193 < 0.05
Simulation CPU 0 panic: IPC 0.000504 < 0.01
Simulation CPU 0 panic: IPC 8e-06 < 0.01
Simulation CPU 0 critical: IPC 0.014575 < 0.02
Simulation CPU 0 panic: IPC 0.003084 < 0.01
Simulation CPU 0 warning: IPC 0.021741 < 0.05
Simulation CPU 0 critical: IPC 0.018644 < 0.02
Simulation CPU 0 critical: IPC 0.013816 < 0.02
Simulation CPU 0 warning: IPC 0.038149 < 0.05
Heartbeat CPU 0 instructions: 20000002 cycles: 980053488 heartbeat IPC: 0.03108 cumulative IPC: 0.02041 (Simulation time: 01 hr 20 min 19 sec)
Simulation CPU 0 warning: IPC 0.021011 < 0.05
Simulation CPU 0 critical: IPC 0.010936 < 0.02
Simulation CPU 0 warning: IPC 0.029881 < 0.05
Simulation CPU 0 warning: IPC 0.030367 < 0.05
Simulation CPU 0 critical: IPC 0.015526 < 0.02
Simulation CPU 0 warning: IPC 0.021714 < 0.05
Simulation CPU 0 critical: IPC 0.01551 < 0.02
Simulation CPU 0 critical: IPC 0.018613 < 0.02
Simulation CPU 0 critical: IPC 0.012392 < 0.02
Simulation CPU 0 panic: IPC 0.0093017 < 0.01
Simulation CPU 0 critical: IPC 0.015508 < 0.02
Simulation CPU 0 warning: IPC 0.034145 < 0.05
Simulation CPU 0 critical: IPC 0.012406 < 0.02
Simulation CPU 0 warning: IPC 0.037298 < 0.05
Simulation CPU 0 panic: IPC 0.0031301 < 0.01
Simulation CPU 0 critical: IPC 0.015537 < 0.02
Simulation CPU 0 panic: IPC 0.000472 < 0.01
Simulation CPU 0 critical: IPC 0.015048 < 0.02
Simulation CPU 0 critical: IPC 0.012423 < 0.02
Simulation CPU 0 panic: IPC 0.000472 < 0.01
Simulation CPU 0 warning: IPC 0.036737 < 0.05
Simulation CPU 0 warning: IPC 0.024809 < 0.05
Simulation CPU 0 panic: IPC 0.0062005 < 0.01
Simulation CPU 0 warning: IPC 0.049616 < 0.05
Simulation CPU 0 panic: IPC 0.009301 < 0.01
Simulation CPU 0 critical: IPC 0.018046 < 0.02
Simulation CPU 0 warning: IPC 0.030149 < 0.05
Heartbeat CPU 0 instructions: 30000004 cycles: 1319657408 heartbeat IPC: 0.02945 cumulative IPC: 0.02273 (Simulation time: 01 hr 48 min 16 sec)
Simulation CPU 0 warning: IPC 0.030134 < 0.05
Simulation CPU 0 warning: IPC 0.024047 < 0.05
Simulation CPU 0 panic: IPC 0.0031018 < 0.01
Simulation CPU 0 panic: IPC 0 < 0.01
Simulation CPU 0 panic: IPC 0.0062108 < 0.01
Simulation CPU 0 panic: IPC 0.0048863 < 0.01
Simulation CPU 0 panic: IPC 0.0093111 < 0.01
Simulation CPU 0 critical: IPC 0.012394 < 0.02
Simulation CPU 0 panic: IPC 1.59e-05 < 0.01
[ERROR_CYCLE] Error added at CPU cycle 1410648031, interval 2, pending count: 1
[DRAM_CYCLE_ERROR] Cycle-based error applied! address=0x5ca0f22a8 additional_latency=2459910500 cycles
Simulation CPU 0 panic: IPC 0 < 0.01
Simulation CPU 0 critical: IPC 0.015504 < 0.02
Simulation CPU 0 warning: IPC 0.023921 < 0.05
Simulation CPU 0 critical: IPC 0.015076 < 0.02
Simulation CPU 0 panic: IPC 8.4e-05 < 0.01
Simulation CPU 0 panic: IPC 5.6e-06 < 0.01
Simulation CPU 0 warning: IPC 0.022949 < 0.05
Simulation CPU 0 critical: IPC 0.016396 < 0.02
Simulation CPU 0 warning: IPC 0.039447 < 0.05
Simulation CPU 0 panic: IPC 0.006212 < 0.01
Simulation CPU 0 panic: IPC 0.0031088 < 0.01
Simulation CPU 0 warning: IPC 0.024504 < 0.05
Simulation CPU 0 warning: IPC 0.043736 < 0.05
Simulation CPU 0 panic: IPC 0.0085768 < 0.01
Simulation CPU 0 warning: IPC 0.021453 < 0.05
Simulation CPU 0 panic: IPC 0.0041138 < 0.01
Simulation CPU 0 warning: IPC 0.020862 < 0.05
Simulation CPU 0 warning: IPC 0.038062 < 0.05
Simulation CPU 0 panic: IPC 0.0062027 < 0.01
Simulation CPU 0 panic: IPC 0.0031156 < 0.01
Simulation CPU 0 warning: IPC 0.037205 < 0.05
Simulation CPU 0 panic: IPC 0.0078495 < 0.01
Simulation CPU 0 critical: IPC 0.01385 < 0.02
Simulation CPU 0 warning: IPC 0.035432 < 0.05
Simulation CPU 0 panic: IPC 0.0062091 < 0.01
Simulation CPU 0 panic: IPC 0.0031298 < 0.01
Simulation CPU 0 panic: IPC 0.0062028 < 0.01
Simulation CPU 0 critical: IPC 0.018643 < 0.02
Simulation CPU 0 critical: IPC 0.018628 < 0.02
Simulation CPU 0 panic: IPC 0.000472 < 0.01
Simulation CPU 0 critical: IPC 0.011207 < 0.02
Simulation CPU 0 warning: IPC 0.025583 < 0.05
Simulation CPU 0 critical: IPC 0.012362 < 0.02
Simulation CPU 0 warning: IPC 0.029829 < 0.05
Simulation CPU 0 critical: IPC 0.011128 < 0.02
Simulation CPU 0 critical: IPC 0.013677 < 0.02
Simulation CPU 0 warning: IPC 0.025025 < 0.05
Simulation CPU 0 panic: IPC 0.0031006 < 0.01
Heartbeat CPU 0 instructions: 40000005 cycles: 1821565706 heartbeat IPC: 0.01992 cumulative IPC: 0.02196 (Simulation time: 02 hr 28 min 57 sec)
Simulation CPU 0 warning: IPC 0.034142 < 0.05
Simulation CPU 0 warning: IPC 0.040305 < 0.05
Simulation CPU 0 warning: IPC 0.030423 < 0.05
Simulation CPU 0 warning: IPC 0.047096 < 0.05
Simulation CPU 0 warning: IPC 0.027917 < 0.05
Simulation CPU 0 panic: IPC 0.0093076 < 0.01
Simulation CPU 0 panic: IPC 0.0066835 < 0.01
Simulation CPU 0 critical: IPC 0.013914 < 0.02
Simulation CPU 0 warning: IPC 0.042126 < 0.05
Simulation CPU 0 warning: IPC 0.044396 < 0.05
Simulation CPU 0 warning: IPC 0.03002 < 0.05
Simulation CPU 0 warning: IPC 0.046924 < 0.05
Simulation CPU 0 warning: IPC 0.024422 < 0.05
Simulation CPU 0 critical: IPC 0.012422 < 0.02
Simulation CPU 0 critical: IPC 0.012448 < 0.02
Simulation CPU 0 panic: IPC 0.0093099 < 0.01
Simulation CPU 0 panic: IPC 0.0093221 < 0.01
Simulation CPU 0 warning: IPC 0.046528 < 0.05
Simulation CPU 0 warning: IPC 0.044912 < 0.05
Simulation CPU 0 warning: IPC 0.032624 < 0.05
Simulation CPU 0 warning: IPC 0.04032 < 0.05
Heartbeat CPU 0 instructions: 50000009 cycles: 2087281193 heartbeat IPC: 0.03763 cumulative IPC: 0.02395 (Simulation time: 02 hr 49 min 57 sec)
Simulation CPU 0 warning: IPC 0.035837 < 0.05
Simulation CPU 0 warning: IPC 0.029294 < 0.05
Simulation CPU 0 warning: IPC 0.027913 < 0.05
[ERROR_CYCLE] Error added at CPU cycle 2115972045, interval 3, pending count: 1
[DRAM_CYCLE_ERROR] Cycle-based error applied! address=0x72ea85d30 additional_latency=2459910500 cycles
Simulation CPU 0 panic: IPC 0 < 0.01
Simulation CPU 0 critical: IPC 0.012347 < 0.02
Simulation CPU 0 panic: IPC 0.0062664 < 0.01
Simulation CPU 0 warning: IPC 0.046498 < 0.05
Simulation CPU 0 panic: IPC 0.0031165 < 0.01
Simulation CPU 0 warning: IPC 0.024802 < 0.05
Simulation CPU 0 panic: IPC 0.0057332 < 0.01
Simulation CPU 0 warning: IPC 0.025781 < 0.05
Simulation CPU 0 warning: IPC 0.035779 < 0.05
Simulation CPU 0 panic: IPC 0.0094624 < 0.01
Simulation CPU 0 warning: IPC 0.021707 < 0.05
Simulation CPU 0 warning: IPC 0.042239 < 0.05
Simulation CPU 0 warning: IPC 0.031905 < 0.05
Simulation CPU 0 panic: IPC 0.0084106 < 0.01
Simulation CPU 0 warning: IPC 0.04377 < 0.05
Simulation CPU 0 panic: IPC 0.0049182 < 0.01
Simulation CPU 0 panic: IPC 0.0002752 < 0.01
Simulation CPU 0 panic: IPC 0.0004992 < 0.01
Simulation CPU 0 warning: IPC 0.037378 < 0.05
Simulation CPU 0 critical: IPC 0.012407 < 0.02
Simulation CPU 0 critical: IPC 0.016256 < 0.02
Simulation CPU 0 warning: IPC 0.047494 < 0.05
Simulation CPU 0 critical: IPC 0.010089 < 0.02
Heartbeat CPU 0 instructions: 60000012 cycles: 2418279736 heartbeat IPC: 0.03021 cumulative IPC: 0.02481 (Simulation time: 03 hr 17 min 07 sec)
Simulation CPU 0 warning: IPC 0.030063 < 0.05
Simulation CPU 0 panic: IPC 0.0071695 < 0.01
Simulation CPU 0 panic: IPC 0.0062084 < 0.01
Simulation CPU 0 critical: IPC 0.018601 < 0.02
Simulation CPU 0 panic: IPC 0.0031085 < 0.01
Simulation CPU 0 warning: IPC 0.024266 < 0.05
Simulation CPU 0 critical: IPC 0.015975 < 0.02
Simulation CPU 0 critical: IPC 0.016903 < 0.02
Simulation CPU 0 panic: IPC 0.004106 < 0.01
Simulation CPU 0 panic: IPC 0.0095409 < 0.01
Simulation CPU 0 panic: IPC 0.009328 < 0.01
Simulation CPU 0 panic: IPC 0.0031036 < 0.01
Simulation CPU 0 critical: IPC 0.012432 < 0.02
Simulation CPU 0 panic: IPC 0.003084 < 0.01
Simulation CPU 0 panic: IPC 0.0031205 < 0.01
Simulation CPU 0 panic: IPC 0.0031204 < 0.01
Simulation CPU 0 critical: IPC 0.015519 < 0.02
Simulation CPU 0 warning: IPC 0.037201 < 0.05
Simulation CPU 0 critical: IPC 0.014661 < 0.02
Simulation CPU 0 warning: IPC 0.029945 < 0.05
Simulation CPU 0 warning: IPC 0.024639 < 0.05
Simulation CPU 0 warning: IPC 0.034921 < 0.05
Simulation CPU 0 warning: IPC 0.023031 < 0.05
Simulation CPU 0 critical: IPC 0.015526 < 0.02
Simulation CPU 0 warning: IPC 0.049332 < 0.05
Simulation CPU 0 warning: IPC 0.031114 < 0.05
Simulation CPU 0 warning: IPC 0.029938 < 0.05
Simulation CPU 0 warning: IPC 0.03149 < 0.05
Simulation CPU 0 warning: IPC 0.02866 < 0.05
Simulation CPU 0 warning: IPC 0.026848 < 0.05
Simulation CPU 0 warning: IPC 0.032378 < 0.05
Simulation CPU 0 warning: IPC 0.033445 < 0.05
Simulation CPU 0 warning: IPC 0.026898 < 0.05
Simulation CPU 0 panic: IPC 0.0031046 < 0.01
Simulation CPU 0 critical: IPC 0.018627 < 0.02
Simulation CPU 0 critical: IPC 0.010371 < 0.02
Simulation CPU 0 warning: IPC 0.039628 < 0.05
[ERROR_CYCLE] Error added at CPU cycle 2821296060, interval 4, pending count: 1
[DRAM_CYCLE_ERROR] Cycle-based error applied! address=0x2d9700018 additional_latency=2459910500 cycles
Simulation CPU 0 panic: IPC 0 < 0.01
Heartbeat CPU 0 instructions: 70000012 cycles: 2832431224 heartbeat IPC: 0.02415 cumulative IPC: 0.02471 (Simulation time: 03 hr 48 min 53 sec)
Simulation CPU 0 panic: IPC 0.0001504 < 0.01
Simulation CPU 0 panic: IPC 0.0005464 < 0.01
Simulation CPU 0 warning: IPC 0.047184 < 0.05
Simulation CPU 0 panic: IPC 0.0093234 < 0.01
Simulation CPU 0 panic: IPC 0.0030368 < 0.01
Simulation CPU 0 panic: IPC 0.0031966 < 0.01
Simulation CPU 0 critical: IPC 0.015536 < 0.02
Simulation CPU 0 warning: IPC 0.03103 < 0.05
Simulation CPU 0 critical: IPC 0.019101 < 0.02
Simulation CPU 0 warning: IPC 0.028828 < 0.05
Simulation CPU 0 panic: IPC 0.0048377 < 0.01
Simulation CPU 0 panic: IPC 0.0062376 < 0.01
Simulation CPU 0 panic: IPC 0.000472 < 0.01
Simulation CPU 0 panic: IPC 0.0026286 < 0.01
Simulation CPU 0 critical: IPC 0.018433 < 0.02
Simulation CPU 0 warning: IPC 0.040478 < 0.05
Simulation CPU 0 panic: IPC 0.0006496 < 0.01
Simulation CPU 0 panic: IPC 0.0023128 < 0.01
Simulation CPU 0 panic: IPC 4.24e-05 < 0.01
Simulation CPU 0 panic: IPC 6.08e-05 < 0.01
Simulation CPU 0 warning: IPC 0.024836 < 0.05
Simulation CPU 0 panic: IPC 0.003113 < 0.01
Simulation CPU 0 panic: IPC 0.0062012 < 0.01
Simulation CPU 0 warning: IPC 0.030199 < 0.05
Simulation CPU 0 panic: IPC 0.0031052 < 0.01
Simulation CPU 0 panic: IPC 0.0031162 < 0.01
Simulation CPU 0 warning: IPC 0.031277 < 0.05
Simulation CPU 0 panic: IPC 0.0002752 < 0.01
Simulation CPU 0 panic: IPC 8.32e-05 < 0.01
Simulation CPU 0 warning: IPC 0.023593 < 0.05
Simulation CPU 0 panic: IPC 0.0052251 < 0.01
Simulation CPU 0 warning: IPC 0.021098 < 0.05
Simulation CPU 0 critical: IPC 0.018616 < 0.02
Simulation CPU 0 warning: IPC 0.021708 < 0.05
Simulation CPU 0 panic: IPC 0.000472 < 0.01
Simulation CPU 0 warning: IPC 0.045463 < 0.05
Simulation CPU 0 panic: IPC 0.0044782 < 0.01
Simulation CPU 0 panic: IPC 1.56e-05 < 0.01
Simulation CPU 0 panic: IPC 0.003104 < 0.01
Simulation CPU 0 panic: IPC 0.0093379 < 0.01
Simulation CPU 0 critical: IPC 0.015509 < 0.02
Simulation CPU 0 panic: IPC 0.0093226 < 0.01
Simulation CPU 0 panic: IPC 0.0030953 < 0.01
Simulation CPU 0 warning: IPC 0.024829 < 0.05
Heartbeat CPU 0 instructions: 80000016 cycles: 3342995463 heartbeat IPC: 0.01959 cumulative IPC: 0.02393 (Simulation time: 04 hr 31 min 30 sec)
Simulation CPU 0 critical: IPC 0.019239 < 0.02
Simulation CPU 0 critical: IPC 0.018027 < 0.02
Simulation CPU 0 critical: IPC 0.01551 < 0.02
Simulation CPU 0 panic: IPC 0.0062118 < 0.01
Simulation CPU 0 panic: IPC 0.0031086 < 0.01
Simulation CPU 0 warning: IPC 0.021707 < 0.05
Simulation CPU 0 panic: IPC 0.0031162 < 0.01
Simulation CPU 0 warning: IPC 0.031003 < 0.05
Simulation CPU 0 critical: IPC 0.015517 < 0.02
Simulation CPU 0 critical: IPC 0.011644 < 0.02
Simulation CPU 0 critical: IPC 0.019609 < 0.02
Simulation CPU 0 panic: IPC 0.0093115 < 0.01
Simulation CPU 0 critical: IPC 0.015503 < 0.02
Simulation CPU 0 panic: IPC 7.2e-06 < 0.01
Simulation CPU 0 panic: IPC 0.0030999 < 0.01
Simulation CPU 0 critical: IPC 0.014887 < 0.02
[ERROR_CYCLE] Error added at CPU cycle 3526620075, interval 5, pending count: 1
[DRAM_CYCLE_ERROR] Cycle-based error applied! address=0x7d726ebc8 additional_latency=2459910500 cycles
Simulation CPU 0 panic: IPC 0 < 0.01
Simulation CPU 0 critical: IPC 0.014667 < 0.02
Simulation CPU 0 warning: IPC 0.035802 < 0.05
Simulation CPU 0 warning: IPC 0.03195 < 0.05
Simulation CPU 0 warning: IPC 0.049273 < 0.05
Simulation CPU 0 warning: IPC 0.03064 < 0.05
Simulation CPU 0 warning: IPC 0.030469 < 0.05
Heartbeat CPU 0 instructions: 90000018 cycles: 3660136780 heartbeat IPC: 0.03153 cumulative IPC: 0.02459 (Simulation time: 04 hr 56 min 59 sec)
Simulation CPU 0 warning: IPC 0.044167 < 0.05
Simulation CPU 0 critical: IPC 0.015484 < 0.02
Simulation CPU 0 warning: IPC 0.039333 < 0.05
Simulation CPU 0 panic: IPC 0.0015448 < 0.01
Simulation CPU 0 panic: IPC 0.0078785 < 0.01
Simulation CPU 0 panic: IPC 0.0031066 < 0.01
Simulation CPU 0 panic: IPC 0.000472 < 0.01
Simulation CPU 0 warning: IPC 0.049164 < 0.05
Simulation CPU 0 warning: IPC 0.024824 < 0.05
Simulation CPU 0 critical: IPC 0.01241 < 0.02
Simulation CPU 0 panic: IPC 0.0093118 < 0.01
Simulation CPU 0 warning: IPC 0.02434 < 0.05
Simulation CPU 0 panic: IPC 0.0097679 < 0.01
Simulation CPU 0 warning: IPC 0.020319 < 0.05
Heartbeat CPU 0 instructions: 100000020 cycles: 3888906768 heartbeat IPC: 0.04371 cumulative IPC: 0.02571 (Simulation time: 05 hr 16 min 36 sec)
Simulation CPU 0 critical: IPC 0.017163 < 0.02
Simulation CPU 0 warning: IPC 0.021101 < 0.05
Simulation CPU 0 panic: IPC 0.0099377 < 0.01
Simulation CPU 0 panic: IPC 0.009306 < 0.01
Simulation CPU 0 warning: IPC 0.037221 < 0.05
Simulation CPU 0 warning: IPC 0.027908 < 0.05
Simulation CPU 0 warning: IPC 0.033023 < 0.05
Simulation CPU 0 warning: IPC 0.025897 < 0.05
Simulation CPU 0 panic: IPC 0.0030953 < 0.01
Simulation CPU 0 critical: IPC 0.01553 < 0.02
Simulation CPU 0 critical: IPC 0.012412 < 0.02
Simulation CPU 0 panic: IPC 0.0047915 < 0.01
Simulation CPU 0 critical: IPC 0.015513 < 0.02
Simulation CPU 0 panic: IPC 0.0031276 < 0.01
Simulation CPU 0 critical: IPC 0.0193 < 0.02
Simulation CPU 0 warning: IPC 0.027771 < 0.05
Simulation CPU 0 panic: IPC 0.0001359 < 0.01
Simulation CPU 0 panic: IPC 0.000472 < 0.01
Simulation CPU 0 panic: IPC 0.0026305 < 0.01
Simulation CPU 0 panic: IPC 0.0062024 < 0.01
Simulation CPU 0 panic: IPC 0.0031166 < 0.01
Simulation CPU 0 critical: IPC 0.016991 < 0.02
Simulation CPU 0 panic: IPC 0.0016255 < 0.01
Simulation CPU 0 panic: IPC 0.0062184 < 0.01
Simulation CPU 0 critical: IPC 0.012414 < 0.02
Simulation CPU 0 warning: IPC 0.027767 < 0.05
Simulation CPU 0 critical: IPC 0.018799 < 0.02
[ERROR_CYCLE] Error added at CPU cycle 4231944091, interval 6, pending count: 1
[DRAM_CYCLE_ERROR] Cycle-based error applied! address=0x497475ed8 additional_latency=2459910500 cycles
Simulation CPU 0 panic: IPC 0 < 0.01
Simulation CPU 0 panic: IPC 0.0062032 < 0.01
Simulation CPU 0 panic: IPC 0.0031018 < 0.01
Simulation CPU 0 panic: IPC 0.0062335 < 0.01
Simulation CPU 0 warning: IPC 0.032549 < 0.05
Simulation CPU 0 panic: IPC 0.0093185 < 0.01
Simulation CPU 0 panic: IPC 0.0062274 < 0.01
Heartbeat CPU 0 instructions: 110000020 cycles: 4312309506 heartbeat IPC: 0.02362 cumulative IPC: 0.02551 (Simulation time: 05 hr 49 min 43 sec)
Simulation CPU 0 warning: IPC 0.027736 < 0.05
Simulation CPU 0 warning: IPC 0.044337 < 0.05
Simulation CPU 0 critical: IPC 0.018666 < 0.02
Simulation CPU 0 critical: IPC 0.016531 < 0.02
Simulation CPU 0 panic: IPC 0.0051826 < 0.01
Simulation CPU 0 warning: IPC 0.040354 < 0.05
Simulation CPU 0 warning: IPC 0.049623 < 0.05
Simulation CPU 0 panic: IPC 0.0031006 < 0.01
Simulation CPU 0 warning: IPC 0.039765 < 0.05
Simulation CPU 0 warning: IPC 0.042094 < 0.05
Simulation CPU 0 panic: IPC 0.0050182 < 0.01
Simulation CPU 0 panic: IPC 0.0031061 < 0.01
Simulation CPU 0 warning: IPC 0.027917 < 0.05
Simulation CPU 0 warning: IPC 0.027928 < 0.05
Simulation CPU 0 warning: IPC 0.02941 < 0.05
Simulation CPU 0 panic: IPC 0.0015956 < 0.01
Simulation CPU 0 warning: IPC 0.040336 < 0.05
Simulation CPU 0 panic: IPC 0.0031022 < 0.01
Simulation CPU 0 warning: IPC 0.034124 < 0.05
Simulation CPU 0 warning: IPC 0.033681 < 0.05
Simulation CPU 0 warning: IPC 0.03104 < 0.05
Simulation CPU 0 panic: IPC 0.009315 < 0.01
Simulation CPU 0 panic: IPC 0.0030953 < 0.01
Simulation CPU 0 critical: IPC 0.012429 < 0.02
Simulation CPU 0 panic: IPC 0.000472 < 0.01
Simulation CPU 0 panic: IPC 0.0026337 < 0.01
Simulation CPU 0 panic: IPC 0.0062042 < 0.01
Simulation CPU 0 warning: IPC 0.022955 < 0.05
Simulation CPU 0 warning: IPC 0.03108 < 0.05
Simulation CPU 0 critical: IPC 0.017309 < 0.02
Simulation CPU 0 warning: IPC 0.021712 < 0.05
Simulation CPU 0 panic: IPC 0.0031102 < 0.01
Simulation CPU 0 panic: IPC 0.0031226 < 0.01
Simulation CPU 0 critical: IPC 0.0124 < 0.02
Simulation CPU 0 warning: IPC 0.040328 < 0.05
Simulation CPU 0 panic: IPC 0.0031012 < 0.01
Heartbeat CPU 0 instructions: 120000024 cycles: 4716622909 heartbeat IPC: 0.02473 cumulative IPC: 0.02544 (Simulation time: 06 hr 19 min 52 sec)
Simulation CPU 0 warning: IPC 0.031003 < 0.05
Simulation CPU 0 warning: IPC 0.021715 < 0.05
Simulation CPU 0 warning: IPC 0.021711 < 0.05
Simulation CPU 0 critical: IPC 0.012397 < 0.02
Simulation CPU 0 warning: IPC 0.024816 < 0.05
Simulation CPU 0 panic: IPC 0.0083047 < 0.01
Simulation CPU 0 warning: IPC 0.044415 < 0.05
Simulation CPU 0 warning: IPC 0.042085 < 0.05
Simulation CPU 0 warning: IPC 0.026159 < 0.05
Simulation CPU 0 panic: IPC 0.0062047 < 0.01
Simulation CPU 0 critical: IPC 0.011248 < 0.02
Simulation CPU 0 panic: IPC 0.0061998 < 0.01
Simulation CPU 0 warning: IPC 0.043409 < 0.05
Simulation CPU 0 critical: IPC 0.015508 < 0.02
Simulation CPU 0 critical: IPC 0.012404 < 0.02
Simulation CPU 0 panic: IPC 0.0031006 < 0.01
Simulation CPU 0 warning: IPC 0.027915 < 0.05
Simulation CPU 0 critical: IPC 0.015503 < 0.02
Simulation CPU 0 panic: IPC 0.0062005 < 0.01
Simulation CPU 0 panic: IPC 0.0092958 < 0.01
[ERROR_CYCLE] Error added at CPU cycle 4937268106, interval 7, pending count: 1
[DRAM_CYCLE_ERROR] Cycle-based error applied! address=0x7d72f9870 additional_latency=2459910500 cycles
Simulation CPU 0 warning: IPC 0.040332 < 0.05
Simulation CPU 0 panic: IPC 0 < 0.01
Simulation CPU 0 panic: IPC 0.0031058 < 0.01
Simulation CPU 0 warning: IPC 0.031006 < 0.05
Simulation CPU 0 warning: IPC 0.032863 < 0.05
Simulation CPU 0 critical: IPC 0.015512 < 0.02
Simulation CPU 0 warning: IPC 0.034125 < 0.05
Simulation CPU 0 critical: IPC 0.015505 < 0.02
Simulation CPU 0 panic: IPC 0.0062091 < 0.01
Simulation CPU 0 panic: IPC 0.0035924 < 0.01
Simulation CPU 0 panic: IPC 0.0026332 < 0.01
Simulation CPU 0 warning: IPC 0.027907 < 0.05
Simulation CPU 0 warning: IPC 0.021717 < 0.05
Simulation CPU 0 critical: IPC 0.012402 < 0.02
Simulation CPU 0 critical: IPC 0.01855 < 0.02
Simulation CPU 0 critical: IPC 0.012459 < 0.02
Simulation CPU 0 critical: IPC 0.018447 < 0.02
Simulation CPU 0 critical: IPC 0.018766 < 0.02
Simulation CPU 0 panic: IPC 2.22e-05 < 0.01
Simulation CPU 0 warning: IPC 0.044861 < 0.05
Heartbeat CPU 0 instructions: 130000024 cycles: 5149256968 heartbeat IPC: 0.02311 cumulative IPC: 0.02525 (Simulation time: 06 hr 56 min 36 sec)
Simulation CPU 0 warning: IPC 0.03994 < 0.05
Simulation CPU 0 warning: IPC 0.024808 < 0.05
Simulation CPU 0 warning: IPC 0.021711 < 0.05
Simulation CPU 0 critical: IPC 0.016107 < 0.02
Simulation CPU 0 warning: IPC 0.038343 < 0.05
Simulation CPU 0 warning: IPC 0.023094 < 0.05
Simulation CPU 0 warning: IPC 0.021711 < 0.05
Simulation CPU 0 critical: IPC 0.01242 < 0.02
Simulation CPU 0 panic: IPC 1.8e-05 < 0.01
Simulation CPU 0 panic: IPC 0.0062084 < 0.01
Simulation CPU 0 panic: IPC 0.0096442 < 0.01
Simulation CPU 0 critical: IPC 0.017865 < 0.02
Simulation CPU 0 warning: IPC 0.046515 < 0.05
Simulation CPU 0 panic: IPC 0.0031112 < 0.01
Simulation CPU 0 warning: IPC 0.038429 < 0.05
Heartbeat CPU 0 instructions: 140000027 cycles: 5387255835 heartbeat IPC: 0.04202 cumulative IPC: 0.02599 (Simulation time: 07 hr 16 min 26 sec)
Simulation CPU 0 warning: IPC 0.043766 < 0.05
Simulation CPU 0 critical: IPC 0.012422 < 0.02
Simulation CPU 0 panic: IPC 0.003115 < 0.01
Simulation CPU 0 warning: IPC 0.027918 < 0.05
Simulation CPU 0 critical: IPC 0.017531 < 0.02
Simulation CPU 0 warning: IPC 0.046932 < 0.05
Simulation CPU 0 warning: IPC 0.033252 < 0.05
Simulation CPU 0 critical: IPC 0.013859 < 0.02
Simulation CPU 0 critical: IPC 0.015247 < 0.02
Simulation CPU 0 warning: IPC 0.038104 < 0.05
Simulation CPU 0 warning: IPC 0.039079 < 0.05
Heartbeat CPU 0 instructions: 150000029 cycles: 5597549793 heartbeat IPC: 0.04755 cumulative IPC: 0.0268 (Simulation time: 07 hr 34 min 56 sec)
Simulation CPU 0 panic: IPC 0.0046596 < 0.01
Simulation CPU 0 warning: IPC 0.035377 < 0.05
Simulation CPU 0 panic: IPC 0.001886 < 0.01
Simulation CPU 0 warning: IPC 0.037245 < 0.05
Simulation CPU 0 panic: IPC 0.0047864 < 0.01
[ERROR_CYCLE] Error added at CPU cycle 5642592121, interval 8, pending count: 1
[DRAM_CYCLE_ERROR] Cycle-based error applied! address=0x27211d018 additional_latency=2459910500 cycles
Simulation CPU 0 panic: IPC 0 < 0.01
Simulation CPU 0 critical: IPC 0.010732 < 0.02
Simulation CPU 0 panic: IPC 0.0062005 < 0.01
Simulation CPU 0 warning: IPC 0.031666 < 0.05
Simulation CPU 0 panic: IPC 0.0037618 < 0.01
Simulation CPU 0 warning: IPC 0.023191 < 0.05
Simulation CPU 0 panic: IPC 0.0001776 < 0.01
Simulation CPU 0 panic: IPC 6.32e-05 < 0.01
Simulation CPU 0 panic: IPC 1.28e-05 < 0.01
Simulation CPU 0 panic: IPC 9.12e-05 < 0.01
Simulation CPU 0 panic: IPC 8.8e-05 < 0.01
Simulation CPU 0 panic: IPC 0.0070581 < 0.01
Simulation CPU 0 panic: IPC 0.0082158 < 0.01
Simulation CPU 0 critical: IPC 0.015516 < 0.02
Simulation CPU 0 critical: IPC 0.012422 < 0.02
Simulation CPU 0 panic: IPC 0.0062005 < 0.01
Simulation CPU 0 panic: IPC 0.0031178 < 0.01
Simulation CPU 0 warning: IPC 0.041114 < 0.05
Simulation CPU 0 panic: IPC 0.0053959 < 0.01
Simulation CPU 0 panic: IPC 0.0093168 < 0.01
Simulation CPU 0 critical: IPC 0.012403 < 0.02
Simulation CPU 0 warning: IPC 0.046508 < 0.05
Simulation CPU 0 warning: IPC 0.026223 < 0.05
Heartbeat CPU 0 instructions: 160000031 cycles: 5965504506 heartbeat IPC: 0.02718 cumulative IPC: 0.02682 (Simulation time: 08 hr 02 min 53 sec)
Simulation CPU 0 warning: IPC 0.021376 < 0.05
Simulation CPU 0 warning: IPC 0.024333 < 0.05
Simulation CPU 0 warning: IPC 0.037209 < 0.05
Simulation CPU 0 critical: IPC 0.018651 < 0.02
Simulation CPU 0 warning: IPC 0.041396 < 0.05
Simulation CPU 0 warning: IPC 0.029491 < 0.05
Simulation CPU 0 warning: IPC 0.040967 < 0.05
Simulation CPU 0 critical: IPC 0.012197 < 0.02
Simulation CPU 0 critical: IPC 0.018609 < 0.02
Simulation CPU 0 warning: IPC 0.04773 < 0.05
Simulation CPU 0 warning: IPC 0.02361 < 0.05
Simulation CPU 0 warning: IPC 0.034133 < 0.05
Simulation CPU 0 warning: IPC 0.024823 < 0.05
Simulation CPU 0 critical: IPC 0.013086 < 0.02
Simulation CPU 0 critical: IPC 0.017248 < 0.02
Simulation CPU 0 warning: IPC 0.033606 < 0.05
Simulation CPU 0 critical: IPC 0.012934 < 0.02
Simulation CPU 0 panic: IPC 0.0062036 < 0.01
Simulation CPU 0 warning: IPC 0.049602 < 0.05
Simulation CPU 0 panic: IPC 0.0054266 < 0.01
Simulation CPU 0 warning: IPC 0.030006 < 0.05
Simulation CPU 0 warning: IPC 0.022714 < 0.05
Simulation CPU 0 warning: IPC 0.020408 < 0.05
Heartbeat CPU 0 instructions: 170000034 cycles: 6258927014 heartbeat IPC: 0.03408 cumulative IPC: 0.02716 (Simulation time: 08 hr 28 min 21 sec)
Simulation CPU 0 warning: IPC 0.042209 < 0.05
Simulation CPU 0 warning: IPC 0.029779 < 0.05
Simulation CPU 0 warning: IPC 0.030037 < 0.05
Simulation CPU 0 warning: IPC 0.029462 < 0.05
Simulation CPU 0 critical: IPC 0.019796 < 0.02
Simulation CPU 0 panic: IPC 0.0085148 < 0.01
Simulation CPU 0 warning: IPC 0.025589 < 0.05
[ERROR_CYCLE] Error added at CPU cycle 6347916135, interval 9, pending count: 1
[DRAM_CYCLE_ERROR] Cycle-based error applied! address=0x5d0456e08 additional_latency=2459910500 cycles
Simulation CPU 0 panic: IPC 0 < 0.01
Simulation CPU 0 critical: IPC 0.012358 < 0.02
Simulation CPU 0 panic: IPC 0.0093019 < 0.01
Simulation CPU 0 panic: IPC 0.0031014 < 0.01
Simulation CPU 0 critical: IPC 0.01244 < 0.02
Simulation CPU 0 panic: IPC 0.0093023 < 0.01
Simulation CPU 0 panic: IPC 0.0039242 < 0.01
Simulation CPU 0 warning: IPC 0.031004 < 0.05
Simulation CPU 0 critical: IPC 0.012398 < 0.02
Simulation CPU 0 panic: IPC 0.0093252 < 0.01
Simulation CPU 0 warning: IPC 0.040326 < 0.05
Simulation CPU 0 warning: IPC 0.023187 < 0.05
Simulation CPU 0 critical: IPC 0.017137 < 0.02
Simulation CPU 0 panic: IPC 0.0062122 < 0.01
Simulation CPU 0 warning: IPC 0.025978 < 0.05
Simulation CPU 0 critical: IPC 0.014341 < 0.02
Simulation CPU 0 critical: IPC 0.012879 < 0.02
Simulation CPU 0 warning: IPC 0.042943 < 0.05
Simulation CPU 0 critical: IPC 0.012407 < 0.02
Simulation CPU 0 warning: IPC 0.02269 < 0.05
Simulation CPU 0 panic: IPC 0.0031042 < 0.01
Simulation CPU 0 critical: IPC 0.012418 < 0.02
Heartbeat CPU 0 instructions: 180000036 cycles: 6617613674 heartbeat IPC: 0.02788 cumulative IPC: 0.0272 (Simulation time: 08 hr 56 min 34 sec)
Simulation CPU 0 warning: IPC 0.020462 < 0.05
Simulation CPU 0 critical: IPC 0.015522 < 0.02
Simulation CPU 0 warning: IPC 0.043406 < 0.05
Simulation CPU 0 warning: IPC 0.021745 < 0.05
Simulation CPU 0 warning: IPC 0.032056 < 0.05
Simulation CPU 0 warning: IPC 0.029995 < 0.05
Simulation CPU 0 critical: IPC 0.016025 < 0.02
Simulation CPU 0 critical: IPC 0.012168 < 0.02
Simulation CPU 0 critical: IPC 0.015751 < 0.02
Simulation CPU 0 warning: IPC 0.029716 < 0.05
Simulation CPU 0 warning: IPC 0.029944 < 0.05
Simulation CPU 0 warning: IPC 0.025005 < 0.05
Simulation CPU 0 warning: IPC 0.025705 < 0.05
Simulation CPU 0 warning: IPC 0.031024 < 0.05
Simulation CPU 0 panic: IPC 0.0031006 < 0.01
Simulation CPU 0 warning: IPC 0.048184 < 0.05
Simulation CPU 0 critical: IPC 0.016987 < 0.02
Simulation CPU 0 warning: IPC 0.027915 < 0.05
Simulation CPU 0 warning: IPC 0.021723 < 0.05
Simulation CPU 0 warning: IPC 0.023849 < 0.05
Simulation CPU 0 panic: IPC 0.0062432 < 0.01
Simulation CPU 0 panic: IPC 0.0031058 < 0.01
Simulation CPU 0 panic: IPC 0.000472 < 0.01
Simulation CPU 0 warning: IPC 0.021234 < 0.05
Simulation CPU 0 critical: IPC 0.012413 < 0.02
Simulation CPU 0 critical: IPC 0.012408 < 0.02
Simulation CPU 0 critical: IPC 0.012414 < 0.02
Simulation CPU 0 panic: IPC 0.003106 < 0.01
Simulation CPU 0 panic: IPC 0.0062046 < 0.01
Simulation CPU 0 panic: IPC 0.0093342 < 0.01
Simulation CPU 0 critical: IPC 0.018628 < 0.02
Simulation CPU 0 panic: IPC 0.0016322 < 0.01
Simulation CPU 0 panic: IPC 0.00122 < 0.01
Simulation CPU 0 panic: IPC 1.76e-05 < 0.01
Simulation CPU 0 panic: IPC 3.44e-05 < 0.01
Simulation CPU 0 panic: IPC 1.68e-05 < 0.01
Simulation CPU 0 panic: IPC 1.6e-05 < 0.01
Simulation CPU 0 panic: IPC 1.6e-06 < 0.01
Simulation CPU 0 panic: IPC 8.8e-06 < 0.01
Simulation CPU 0 panic: IPC 1.76e-05 < 0.01
[ERROR_CYCLE] Error added at CPU cycle 7053240150, interval 10, pending count: 1
[DRAM_CYCLE_ERROR] Cycle-based error applied! address=0x68c8f0d88 additional_latency=2459910500 cycles
Simulation CPU 0 panic: IPC 0 < 0.01
Simulation CPU 0 panic: IPC 1.04e-05 < 0.01
Simulation CPU 0 panic: IPC 8e-06 < 0.01
Simulation CPU 0 panic: IPC 3.2e-05 < 0.01
Simulation CPU 0 panic: IPC 2.4e-05 < 0.01
Simulation CPU 0 panic: IPC 1.6e-05 < 0.01
Simulation CPU 0 panic: IPC 1.6e-06 < 0.01
Simulation CPU 0 panic: IPC 1.04e-05 < 0.01
Simulation CPU 0 panic: IPC 0.0062608 < 0.01
Simulation CPU 0 warning: IPC 0.021714 < 0.05
Simulation CPU 0 warning: IPC 0.038769 < 0.05
Heartbeat CPU 0 instructions: 190000039 cycles: 7170361633 heartbeat IPC: 0.01809 cumulative IPC: 0.0265 (Simulation time: 09 hr 40 min 04 sec)
Simulation CPU 0 warning: IPC 0.020721 < 0.05
Simulation CPU 0 warning: IPC 0.022173 < 0.05
Simulation CPU 0 panic: IPC 0.0062151 < 0.01
Simulation CPU 0 panic: IPC 0.0031012 < 0.01
Simulation CPU 0 critical: IPC 0.0186 < 0.02
Simulation CPU 0 warning: IPC 0.032853 < 0.05
Simulation CPU 0 warning: IPC 0.049316 < 0.05
Simulation CPU 0 critical: IPC 0.010886 < 0.02
Simulation CPU 0 warning: IPC 0.043639 < 0.05
Simulation CPU 0 warning: IPC 0.02171 < 0.05
Simulation CPU 0 warning: IPC 0.031028 < 0.05
Heartbeat CPU 0 instructions: 200000040 cycles: 7389899605 heartbeat IPC: 0.04555 cumulative IPC: 0.02706 (Simulation time: 09 hr 58 min 34 sec)
Simulation CPU 0 warning: IPC 0.03 < 0.05
Simulation CPU 0 critical: IPC 0.013999 < 0.02
Simulation CPU 0 critical: IPC 0.010344 < 0.02
Simulation CPU 0 warning: IPC 0.029773 < 0.05
Simulation CPU 0 warning: IPC 0.030195 < 0.05
Simulation CPU 0 warning: IPC 0.026736 < 0.05
Simulation CPU 0 warning: IPC 0.032709 < 0.05
Simulation CPU 0 critical: IPC 0.01915 < 0.02
Simulation CPU 0 critical: IPC 0.012413 < 0.02
Simulation CPU 0 panic: IPC 0.0031006 < 0.01
Simulation CPU 0 critical: IPC 0.018607 < 0.02
Simulation CPU 0 warning: IPC 0.027901 < 0.05
Simulation CPU 0 panic: IPC 0.0079078 < 0.01
Simulation CPU 0 critical: IPC 0.019532 < 0.02
Simulation CPU 0 warning: IPC 0.037749 < 0.05
Simulation CPU 0 warning: IPC 0.02996 < 0.05
Simulation CPU 0 warning: IPC 0.03003 < 0.05
Simulation CPU 0 warning: IPC 0.027979 < 0.05
Simulation CPU 0 warning: IPC 0.031694 < 0.05
Simulation CPU 0 warning: IPC 0.029609 < 0.05
Simulation CPU 0 warning: IPC 0.030044 < 0.05
Simulation CPU 0 warning: IPC 0.02968 < 0.05
Simulation CPU 0 warning: IPC 0.024807 < 0.05
Simulation CPU 0 warning: IPC 0.041678 < 0.05
Heartbeat CPU 0 instructions: 210000042 cycles: 7683327612 heartbeat IPC: 0.03408 cumulative IPC: 0.02733 (Simulation time: 10 hr 23 min 03 sec)
Simulation CPU 0 warning: IPC 0.02102 < 0.05
Simulation CPU 0 warning: IPC 0.031015 < 0.05
Simulation CPU 0 warning: IPC 0.027771 < 0.05
Simulation CPU 0 warning: IPC 0.037359 < 0.05
Simulation CPU 0 warning: IPC 0.027927 < 0.05
Simulation CPU 0 warning: IPC 0.029891 < 0.05
[ERROR_CYCLE] Error added at CPU cycle 7758564165, interval 11, pending count: 1
[DRAM_CYCLE_ERROR] Cycle-based error applied! address=0x25460f3e8 additional_latency=2459910500 cycles
Simulation CPU 0 warning: IPC 0.038322 < 0.05
Simulation CPU 0 panic: IPC 0 < 0.01
Simulation CPU 0 panic: IPC 0.0031024 < 0.01
Simulation CPU 0 warning: IPC 0.024819 < 0.05
Simulation CPU 0 panic: IPC 0.0062096 < 0.01
Simulation CPU 0 warning: IPC 0.03103 < 0.05
Simulation CPU 0 panic: IPC 0.0093087 < 0.01
Simulation CPU 0 critical: IPC 0.012407 < 0.02
Simulation CPU 0 warning: IPC 0.024806 < 0.05
Simulation CPU 0 critical: IPC 0.012416 < 0.02
Simulation CPU 0 panic: IPC 0.0062276 < 0.01
Simulation CPU 0 panic: IPC 2.7e-06 < 0.01
Simulation CPU 0 panic: IPC 0.000472 < 0.01
Simulation CPU 0 panic: IPC 0.0088333 < 0.01
Simulation CPU 0 warning: IPC 0.037207 < 0.05
Simulation CPU 0 panic: IPC 0.0093097 < 0.01
Simulation CPU 0 panic: IPC 0.0030744 < 0.01
Simulation CPU 0 warning: IPC 0.021711 < 0.05
Simulation CPU 0 warning: IPC 0.024807 < 0.05
Simulation CPU 0 warning: IPC 0.033071 < 0.05
Simulation CPU 0 panic: IPC 0.0072431 < 0.01
Simulation CPU 0 warning: IPC 0.049637 < 0.05
Simulation CPU 0 panic: IPC 0.0031006 < 0.01
Simulation CPU 0 warning: IPC 0.046519 < 0.05
Simulation CPU 0 warning: IPC 0.020039 < 0.05
Simulation CPU 0 warning: IPC 0.03578 < 0.05
Simulation CPU 0 warning: IPC 0.032173 < 0.05
Simulation CPU 0 panic: IPC 0.0019584 < 0.01
Heartbeat CPU 0 instructions: 220000045 cycles: 8088244032 heartbeat IPC: 0.0247 cumulative IPC: 0.0272 (Simulation time: 10 hr 58 min 19 sec)
Simulation CPU 0 warning: IPC 0.040317 < 0.05
Simulation CPU 0 critical: IPC 0.015509 < 0.02
Simulation CPU 0 warning: IPC 0.021716 < 0.05
Simulation CPU 0 panic: IPC 0.0062024 < 0.01
Simulation CPU 0 warning: IPC 0.046521 < 0.05
Simulation CPU 0 critical: IPC 0.018612 < 0.02
Simulation CPU 0 panic: IPC 0.0093055 < 0.01
Simulation CPU 0 warning: IPC 0.02481 < 0.05
Simulation CPU 0 warning: IPC 0.034115 < 0.05
Simulation CPU 0 panic: IPC 0.0071916 < 0.01
Simulation CPU 0 critical: IPC 0.014521 < 0.02
Simulation CPU 0 critical: IPC 0.01241 < 0.02
Simulation CPU 0 panic: IPC 0.0093049 < 0.01
Simulation CPU 0 warning: IPC 0.049609 < 0.05
Simulation CPU 0 warning: IPC 0.029949 < 0.05
Simulation CPU 0 critical: IPC 0.019662 < 0.02
Simulation CPU 0 warning: IPC 0.048249 < 0.05
Simulation CPU 0 panic: IPC 0.0013614 < 0.01
Simulation CPU 0 panic: IPC 0.0062116 < 0.01
Simulation CPU 0 panic: IPC 0.0017374 < 0.01
Simulation CPU 0 panic: IPC 0.0031024 < 0.01
Simulation CPU 0 warning: IPC 0.025456 < 0.05
Simulation CPU 0 warning: IPC 0.021056 < 0.05
Simulation CPU 0 warning: IPC 0.031012 < 0.05
Simulation CPU 0 critical: IPC 0.018577 < 0.02
Simulation CPU 0 critical: IPC 0.012403 < 0.02
Simulation CPU 0 warning: IPC 0.02424 < 0.05
Simulation CPU 0 warning: IPC 0.030214 < 0.05
Simulation CPU 0 critical: IPC 0.016313 < 0.02
Simulation CPU 0 warning: IPC 0.046509 < 0.05
Simulation CPU 0 critical: IPC 0.01446 < 0.02
Heartbeat CPU 0 instructions: 230000046 cycles: 8446348397 heartbeat IPC: 0.02792 cumulative IPC: 0.02723 (Simulation time: 11 hr 30 min 01 sec)
[ERROR_CYCLE] Error added at CPU cycle 8463888181, interval 12, pending count: 1
[DRAM_CYCLE_ERROR] Cycle-based error applied! address=0x254655130 additional_latency=2459910500 cycles
Simulation CPU 0 panic: IPC 0 < 0.01
Simulation CPU 0 panic: IPC 0.00449 < 0.01
Simulation CPU 0 warning: IPC 0.029627 < 0.05
Simulation CPU 0 critical: IPC 0.019539 < 0.02
Simulation CPU 0 panic: IPC 1.84e-05 < 0.01
Simulation CPU 0 panic: IPC 3.36e-05 < 0.01
Simulation CPU 0 panic: IPC 1.92e-05 < 0.01
Simulation CPU 0 panic: IPC 9.84e-05 < 0.01
Simulation CPU 0 warning: IPC 0.024758 < 0.05
Simulation CPU 0 critical: IPC 0.011352 < 0.02
Simulation CPU 0 panic: IPC 0.0062084 < 0.01
Simulation CPU 0 warning: IPC 0.027942 < 0.05
Simulation CPU 0 warning: IPC 0.025469 < 0.05
Simulation CPU 0 critical: IPC 0.011708 < 0.02
Simulation CPU 0 warning: IPC 0.037204 < 0.05
Simulation CPU 0 panic: IPC 0.0055238 < 0.01
Simulation CPU 0 warning: IPC 0.040978 < 0.05
Simulation CPU 0 panic: IPC 0.0092978 < 0.01
Simulation CPU 0 warning: IPC 0.043417 < 0.05
Simulation CPU 0 critical: IPC 0.014659 < 0.02
Simulation CPU 0 critical: IPC 0.010479 < 0.02
Simulation CPU 0 panic: IPC 0.0062035 < 0.01
Simulation CPU 0 warning: IPC 0.049612 < 0.05
Simulation CPU 0 panic: IPC 0.0066738 < 0.01
Simulation CPU 0 panic: IPC 0.0088321 < 0.01
Simulation CPU 0 warning: IPC 0.024806 < 0.05
Simulation CPU 0 warning: IPC 0.044669 < 0.05
Simulation CPU 0 warning: IPC 0.048352 < 0.05
Simulation CPU 0 critical: IPC 0.012416 < 0.02
Simulation CPU 0 panic: IPC 0.0041046 < 0.01
Simulation CPU 0 warning: IPC 0.025281 < 0.05
Heartbeat CPU 0 instructions: 240000047 cycles: 8814321515 heartbeat IPC: 0.02718 cumulative IPC: 0.02723 (Simulation time: 12 hr 01 min 18 sec)
Simulation CPU 0 warning: IPC 0.025131 < 0.05
Simulation CPU 0 warning: IPC 0.037201 < 0.05
Simulation CPU 0 panic: IPC 0.0054607 < 0.01
Simulation CPU 0 warning: IPC 0.031004 < 0.05
Simulation CPU 0 critical: IPC 0.015507 < 0.02
Simulation CPU 0 warning: IPC 0.032864 < 0.05
Simulation CPU 0 warning: IPC 0.035344 < 0.05
Simulation CPU 0 warning: IPC 0.046509 < 0.05
Simulation CPU 0 warning: IPC 0.031009 < 0.05
Simulation CPU 0 warning: IPC 0.030065 < 0.05
Simulation CPU 0 critical: IPC 0.01955 < 0.02
Simulation CPU 0 warning: IPC 0.026013 < 0.05
Simulation CPU 0 critical: IPC 0.014593 < 0.02
Simulation CPU 0 warning: IPC 0.040309 < 0.05
Simulation CPU 0 warning: IPC 0.024827 < 0.05
Simulation CPU 0 panic: IPC 0.006203 < 0.01
Simulation CPU 0 warning: IPC 0.046264 < 0.05
Simulation CPU 0 warning: IPC 0.021967 < 0.05
Simulation CPU 0 warning: IPC 0.031003 < 0.05
Simulation CPU 0 critical: IPC 0.018623 < 0.02
Simulation CPU 0 critical: IPC 0.012405 < 0.02
Simulation CPU 0 warning: IPC 0.024798 < 0.05
Simulation CPU 0 warning: IPC 0.030136 < 0.05
Simulation CPU 0 panic: IPC 0.0070677 < 0.01
Simulation CPU 0 critical: IPC 0.011209 < 0.02
Simulation CPU 0 warning: IPC 0.041502 < 0.05
Simulation CPU 0 warning: IPC 0.032585 < 0.05
Heartbeat CPU 0 instructions: 250000047 cycles: 9126236895 heartbeat IPC: 0.03206 cumulative IPC: 0.02739 (Simulation time: 12 hr 26 min 36 sec)
Simulation CPU 0 panic: IPC 0.004311 < 0.01
Simulation CPU 0 warning: IPC 0.026698 < 0.05
Simulation CPU 0 critical: IPC 0.013317 < 0.02
[ERROR_CYCLE] Error added at CPU cycle 9169212196, interval 13, pending count: 1
[DRAM_CYCLE_ERROR] Cycle-based error applied! address=0x25469b008 additional_latency=2459910500 cycles
Simulation CPU 0 panic: IPC 0 < 0.01
Simulation CPU 0 panic: IPC 0.006206 < 0.01
Simulation CPU 0 warning: IPC 0.031326 < 0.05
Simulation CPU 0 critical: IPC 0.018605 < 0.02
Simulation CPU 0 panic: IPC 0 < 0.01
Simulation CPU 0 critical: IPC 0.018597 < 0.02
Simulation CPU 0 critical: IPC 0.012415 < 0.02
Simulation CPU 0 critical: IPC 0.011182 < 0.02
Simulation CPU 0 warning: IPC 0.030868 < 0.05
Simulation CPU 0 warning: IPC 0.028406 < 0.05
Simulation CPU 0 critical: IPC 0.013277 < 0.02
Simulation CPU 0 critical: IPC 0.012358 < 0.02
Simulation CPU 0 warning: IPC 0.037266 < 0.05
Simulation CPU 0 panic: IPC 0.0081045 < 0.01
Simulation CPU 0 warning: IPC 0.041818 < 0.05
Simulation CPU 0 warning: IPC 0.021708 < 0.05
Simulation CPU 0 critical: IPC 0.012406 < 0.02
Simulation CPU 0 warning: IPC 0.031516 < 0.05
Simulation CPU 0 critical: IPC 0.015005 < 0.02
Simulation CPU 0 warning: IPC 0.031014 < 0.05
Simulation CPU 0 warning: IPC 0.024551 < 0.05
Simulation CPU 0 warning: IPC 0.031277 < 0.05
Simulation CPU 0 warning: IPC 0.027174 < 0.05
Simulation CPU 0 panic: IPC 0.0007056 < 0.01
Simulation CPU 0 critical: IPC 0.010827 < 0.02
Simulation CPU 0 warning: IPC 0.036312 < 0.05
Heartbeat CPU 0 instructions: 260000051 cycles: 9480361504 heartbeat IPC: 0.02824 cumulative IPC: 0.02743 (Simulation time: 12 hr 54 min 10 sec)
Simulation CPU 0 warning: IPC 0.035884 < 0.05
Simulation CPU 0 warning: IPC 0.023785 < 0.05
Simulation CPU 0 warning: IPC 0.025842 < 0.05
Simulation CPU 0 warning: IPC 0.027916 < 0.05
Simulation CPU 0 warning: IPC 0.02171 < 0.05
Simulation CPU 0 warning: IPC 0.032315 < 0.05
Simulation CPU 0 critical: IPC 0.011111 < 0.02
Simulation CPU 0 critical: IPC 0.017601 < 0.02
Simulation CPU 0 warning: IPC 0.028514 < 0.05
Simulation CPU 0 panic: IPC 0.0086437 < 0.01
Simulation CPU 0 critical: IPC 0.018656 < 0.02
Simulation CPU 0 panic: IPC 0.0015792 < 0.01
Simulation CPU 0 warning: IPC 0.028092 < 0.05
Simulation CPU 0 critical: IPC 0.013081 < 0.02
Simulation CPU 0 warning: IPC 0.040326 < 0.05
Simulation CPU 0 critical: IPC 0.015504 < 0.02
Simulation CPU 0 warning: IPC 0.046515 < 0.05
Simulation CPU 0 warning: IPC 0.034121 < 0.05
Simulation CPU 0 warning: IPC 0.02791 < 0.05
Simulation CPU 0 panic: IPC 0.0031036 < 0.01
Simulation CPU 0 panic: IPC 0.0031006 < 0.01
Simulation CPU 0 panic: IPC 0.0072122 < 0.01
Simulation CPU 0 warning: IPC 0.020706 < 0.05
Simulation CPU 0 warning: IPC 0.043417 < 0.05
Simulation CPU 0 panic: IPC 0.008245 < 0.01
Simulation CPU 0 critical: IPC 0.013459 < 0.02
Simulation CPU 0 panic: IPC 0.006206 < 0.01
Simulation CPU 0 warning: IPC 0.048881 < 0.05
Simulation CPU 0 critical: IPC 0.013156 < 0.02
Simulation CPU 0 warning: IPC 0.049627 < 0.05
Heartbeat CPU 0 instructions: 270000051 cycles: 9838481570 heartbeat IPC: 0.02792 cumulative IPC: 0.02744 (Simulation time: 13 hr 21 min 16 sec)
Simulation CPU 0 warning: IPC 0.043412 < 0.05
Simulation CPU 0 warning: IPC 0.031003 < 0.05
Simulation CPU 0 warning: IPC 0.024805 < 0.05
[ERROR_CYCLE] Error added at CPU cycle 9874536211, interval 14, pending count: 1
[DRAM_CYCLE_ERROR] Cycle-based error applied! address=0x2546e16a8 additional_latency=2459910500 cycles
Simulation CPU 0 panic: IPC 0.0050084 < 0.01
Simulation CPU 0 warning: IPC 0.021702 < 0.05
Simulation CPU 0 critical: IPC 0.018609 < 0.02
Simulation CPU 0 critical: IPC 0.018602 < 0.02
Simulation CPU 0 warning: IPC 0.034122 < 0.05
Simulation CPU 0 warning: IPC 0.031906 < 0.05
Simulation CPU 0 warning: IPC 0.033213 < 0.05
Simulation CPU 0 warning: IPC 0.040531 < 0.05
Simulation CPU 0 warning: IPC 0.041289 < 0.05
Simulation CPU 0 warning: IPC 0.035545 < 0.05
Simulation CPU 0 warning: IPC 0.023962 < 0.05
Simulation CPU 0 warning: IPC 0.030075 < 0.05
Simulation CPU 0 warning: IPC 0.029403 < 0.05
Simulation CPU 0 warning: IPC 0.030126 < 0.05
Simulation CPU 0 warning: IPC 0.03782 < 0.05
Simulation CPU 0 warning: IPC 0.021766 < 0.05
Simulation CPU 0 warning: IPC 0.044394 < 0.05
Simulation CPU 0 warning: IPC 0.027919 < 0.05
Simulation CPU 0 critical: IPC 0.017375 < 0.02
Simulation CPU 0 warning: IPC 0.030049 < 0.05
Simulation CPU 0 warning: IPC 0.03427 < 0.05
Simulation CPU 0 panic: IPC 0.0038074 < 0.01
Simulation CPU 0 warning: IPC 0.021019 < 0.05
Simulation CPU 0 warning: IPC 0.027759 < 0.05
Simulation CPU 0 critical: IPC 0.012409 < 0.02
Simulation CPU 0 panic: IPC 0.0030999 < 0.01
Heartbeat CPU 0 instructions: 280000052 cycles: 10160241465 heartbeat IPC: 0.03108 cumulative IPC: 0.02756 (Simulation time: 13 hr 47 min 10 sec)
Simulation CPU 0 panic: IPC 0.0093067 < 0.01
Simulation CPU 0 warning: IPC 0.020863 < 0.05
Simulation CPU 0 warning: IPC 0.030406 < 0.05
Simulation CPU 0 critical: IPC 0.012402 < 0.02
Simulation CPU 0 critical: IPC 0.010544 < 0.02
Simulation CPU 0 panic: IPC 0.0093022 < 0.01
Simulation CPU 0 critical: IPC 0.016489 < 0.02
Simulation CPU 0 warning: IPC 0.039795 < 0.05
Simulation CPU 0 warning: IPC 0.046057 < 0.05
Simulation CPU 0 warning: IPC 0.036892 < 0.05
Simulation CPU 0 warning: IPC 0.037239 < 0.05
Simulation CPU 0 panic: IPC 0.0062005 < 0.01
Simulation CPU 0 panic: IPC 0.0031024 < 0.01
Simulation CPU 0 critical: IPC 0.018621 < 0.02
Simulation CPU 0 panic: IPC 0.0031006 < 0.01
Simulation CPU 0 panic: IPC 0.0031144 < 0.01
Simulation CPU 0 panic: IPC 0.0062078 < 0.01
Simulation CPU 0 critical: IPC 0.01465 < 0.02
Simulation CPU 0 warning: IPC 0.022769 < 0.05
Heartbeat CPU 0 instructions: 290000052 cycles: 10444433575 heartbeat IPC: 0.03519 cumulative IPC: 0.02777 (Simulation time: 14 hr 10 min 09 sec)
Simulation CPU 0 warning: IPC 0.027914 < 0.05
Simulation CPU 0 critical: IPC 0.017446 < 0.02
Simulation CPU 0 panic: IPC 0.0042734 < 0.01
Simulation CPU 0 warning: IPC 0.031002 < 0.05
Simulation CPU 0 warning: IPC 0.026294 < 0.05
Simulation CPU 0 warning: IPC 0.022178 < 0.05
Simulation CPU 0 critical: IPC 0.016244 < 0.02
Simulation CPU 0 warning: IPC 0.029799 < 0.05
Simulation CPU 0 warning: IPC 0.025777 < 0.05
Simulation CPU 0 panic: IPC 0.0058631 < 0.01
[ERROR_CYCLE] Error added at CPU cycle 10579860225, interval 15, pending count: 1
[DRAM_CYCLE_ERROR] Cycle-based error applied! address=0xe84267c8 additional_latency=2459910500 cycles
Simulation CPU 0 panic: IPC 0 < 0.01
Simulation CPU 0 warning: IPC 0.028653 < 0.05
Simulation CPU 0 critical: IPC 0.018606 < 0.02
Simulation CPU 0 critical: IPC 0.013996 < 0.02
Simulation CPU 0 warning: IPC 0.026311 < 0.05
Simulation CPU 0 panic: IPC 0.0031006 < 0.01
Simulation CPU 0 critical: IPC 0.014273 < 0.02
Simulation CPU 0 panic: IPC 0.0077244 < 0.01
Simulation CPU 0 warning: IPC 0.045354 < 0.05
Simulation CPU 0 critical: IPC 0.015516 < 0.02
Simulation CPU 0 panic: IPC 0.0031174 < 0.01
Simulation CPU 0 panic: IPC 0.003103 < 0.01
Simulation CPU 0 warning: IPC 0.030238 < 0.05
Heartbeat CPU 0 instructions: 300000056 cycles: 10756956508 heartbeat IPC: 0.032 cumulative IPC: 0.02789 (Simulation time: 14 hr 38 min 07 sec)
Simulation CPU 0 critical: IPC 0.014491 < 0.02
Simulation CPU 0 warning: IPC 0.041331 < 0.05
Simulation CPU 0 panic: IPC 0.0031184 < 0.01
Simulation CPU 0 critical: IPC 0.015503 < 0.02
Simulation CPU 0 warning: IPC 0.020087 < 0.05
Simulation CPU 0 warning: IPC 0.045019 < 0.05
Simulation CPU 0 panic: IPC 0.003127 < 0.01
Simulation CPU 0 critical: IPC 0.015525 < 0.02
Simulation CPU 0 critical: IPC 0.012423 < 0.02
Simulation CPU 0 panic: IPC 0.0062198 < 0.01
Simulation CPU 0 critical: IPC 0.012417 < 0.02
Simulation CPU 0 warning: IPC 0.024822 < 0.05
Simulation CPU 0 critical: IPC 0.015517 < 0.02
Simulation CPU 0 panic: IPC 0.006206 < 0.01
Simulation CPU 0 warning: IPC 0.034133 < 0.05
Simulation CPU 0 warning: IPC 0.031048 < 0.05
Simulation CPU 0 warning: IPC 0.026883 < 0.05
Simulation CPU 0 critical: IPC 0.01659 < 0.02
Simulation CPU 0 critical: IPC 0.010731 < 0.02
Simulation CPU 0 warning: IPC 0.026823 < 0.05
Simulation CPU 0 warning: IPC 0.020916 < 0.05
Simulation CPU 0 warning: IPC 0.031055 < 0.05
Simulation CPU 0 critical: IPC 0.013199 < 0.02
Simulation CPU 0 critical: IPC 0.014719 < 0.02
Simulation CPU 0 panic: IPC 0.0051695 < 0.01
Heartbeat CPU 0 instructions: 310000056 cycles: 11078100258 heartbeat IPC: 0.03114 cumulative IPC: 0.02798 (Simulation time: 15 hr 02 min 11 sec)
Simulation CPU 0 warning: IPC 0.049652 < 0.05
Simulation CPU 0 critical: IPC 0.018615 < 0.02
Simulation CPU 0 panic: IPC 0.0031119 < 0.01
Simulation CPU 0 warning: IPC 0.031018 < 0.05
Simulation CPU 0 warning: IPC 0.02171 < 0.05
Simulation CPU 0 panic: IPC 0.0031012 < 0.01
Simulation CPU 0 warning: IPC 0.031021 < 0.05
Simulation CPU 0 panic: IPC 0.0093126 < 0.01
Simulation CPU 0 critical: IPC 0.015522 < 0.02
Simulation CPU 0 panic: IPC 0.0062171 < 0.01
Simulation CPU 0 critical: IPC 0.013218 < 0.02
Simulation CPU 0 warning: IPC 0.024842 < 0.05
Simulation CPU 0 critical: IPC 0.01857 < 0.02
Simulation CPU 0 critical: IPC 0.018114 < 0.02
Simulation CPU 0 panic: IPC 0.0005063 < 0.01
Simulation CPU 0 warning: IPC 0.0279 < 0.05
Simulation CPU 0 warning: IPC 0.042356 < 0.05
Simulation CPU 0 warning: IPC 0.025866 < 0.05
Simulation CPU 0 panic: IPC 1.78e-05 < 0.01
[ERROR_CYCLE] Error added at CPU cycle 11285184240, interval 16, pending count: 1
[DRAM_CYCLE_ERROR] Cycle-based error applied! address=0xe846c8d8 additional_latency=2459910500 cycles
Simulation CPU 0 critical: IPC 0.015534 < 0.02
Simulation CPU 0 panic: IPC 0 < 0.01
Simulation CPU 0 warning: IPC 0.040309 < 0.05
Simulation CPU 0 critical: IPC 0.012405 < 0.02
Simulation CPU 0 panic: IPC 0.0093035 < 0.01
Simulation CPU 0 warning: IPC 0.040325 < 0.05
Simulation CPU 0 critical: IPC 0.01343 < 0.02
Simulation CPU 0 warning: IPC 0.039282 < 0.05
Simulation CPU 0 critical: IPC 0.015503 < 0.02
Simulation CPU 0 panic: IPC 0.0099674 < 0.01
Simulation CPU 0 critical: IPC 0.015308 < 0.02
Simulation CPU 0 warning: IPC 0.026457 < 0.05
Simulation CPU 0 warning: IPC 0.035748 < 0.05
Simulation CPU 0 critical: IPC 0.017912 < 0.02
Simulation CPU 0 panic: IPC 0.0070531 < 0.01
Simulation CPU 0 warning: IPC 0.039089 < 0.05
Simulation CPU 0 warning: IPC 0.041541 < 0.05
Heartbeat CPU 0 instructions: 320000059 cycles: 11473750398 heartbeat IPC: 0.02527 cumulative IPC: 0.02789 (Simulation time: 15 hr 34 min 50 sec)
Simulation CPU 0 warning: IPC 0.041508 < 0.05
Simulation CPU 0 warning: IPC 0.039129 < 0.05
Simulation CPU 0 warning: IPC 0.043557 < 0.05
Simulation CPU 0 warning: IPC 0.036633 < 0.05
Simulation CPU 0 critical: IPC 0.015948 < 0.02
Simulation CPU 0 warning: IPC 0.031019 < 0.05
Simulation CPU 0 warning: IPC 0.045734 < 0.05
Simulation CPU 0 critical: IPC 0.017598 < 0.02
Simulation CPU 0 warning: IPC 0.022717 < 0.05
Simulation CPU 0 warning: IPC 0.043413 < 0.05
Simulation CPU 0 panic: IPC 8e-06 < 0.01
Simulation CPU 0 panic: IPC 0.0030919 < 0.01
Simulation CPU 0 warning: IPC 0.020014 < 0.05
Simulation CPU 0 warning: IPC 0.045093 < 0.05
Simulation CPU 0 critical: IPC 0.013497 < 0.02
Simulation CPU 0 panic: IPC 0.0062005 < 0.01
Simulation CPU 0 critical: IPC 0.015511 < 0.02
Simulation CPU 0 warning: IPC 0.046371 < 0.05
Simulation CPU 0 warning: IPC 0.021705 < 0.05
Simulation CPU 0 panic: IPC 0.0093018 < 0.01
Simulation CPU 0 warning: IPC 0.045363 < 0.05
Simulation CPU 0 warning: IPC 0.032183 < 0.05
Simulation CPU 0 panic: IPC 0.0078857 < 0.01
Simulation CPU 0 critical: IPC 0.010701 < 0.02
Simulation CPU 0 warning: IPC 0.043418 < 0.05
Simulation CPU 0 warning: IPC 0.041584 < 0.05
Heartbeat CPU 0 instructions: 330000059 cycles: 11785670294 heartbeat IPC: 0.03206 cumulative IPC: 0.028 (Simulation time: 15 hr 58 min 17 sec)
Simulation CPU 0 panic: IPC 0.0026279 < 0.01
Simulation CPU 0 critical: IPC 0.019069 < 0.02
Simulation CPU 0 critical: IPC 0.011933 < 0.02
Simulation CPU 0 warning: IPC 0.037478 < 0.05
Simulation CPU 0 critical: IPC 0.015502 < 0.02
Simulation CPU 0 panic: IPC 0.0093068 < 0.01
Simulation CPU 0 warning: IPC 0.020461 < 0.05
Simulation CPU 0 panic: IPC 0.0072936 < 0.01
Simulation CPU 0 panic: IPC 0.0016288 < 0.01
Simulation CPU 0 panic: IPC 1.84e-05 < 0.01
Simulation CPU 0 panic: IPC 0.0001312 < 0.01
Simulation CPU 0 panic: IPC 3.2e-06 < 0.01
Simulation CPU 0 panic: IPC 1.36e-05 < 0.01
Simulation CPU 0 panic: IPC 0.0024919 < 0.01
[ERROR_CYCLE] Error added at CPU cycle 11990508255, interval 17, pending count: 1
[DRAM_CYCLE_ERROR] Cycle-based error applied! address=0x75bd00020 additional_latency=2459910500 cycles
Simulation CPU 0 panic: IPC 0 < 0.01
Simulation CPU 0 panic: IPC 0.0047004 < 0.01
Simulation CPU 0 critical: IPC 0.012413 < 0.02
Simulation CPU 0 warning: IPC 0.024817 < 0.05
Simulation CPU 0 panic: IPC 0.000472 < 0.01
Simulation CPU 0 warning: IPC 0.043807 < 0.05
Simulation CPU 0 warning: IPC 0.046168 < 0.05
Simulation CPU 0 panic: IPC 0.004067 < 0.01
Simulation CPU 0 warning: IPC 0.040332 < 0.05
Simulation CPU 0 warning: IPC 0.046509 < 0.05
Heartbeat CPU 0 instructions: 340000061 cycles: 12125918698 heartbeat IPC: 0.02939 cumulative IPC: 0.02804 (Simulation time: 16 hr 28 min 42 sec)
Simulation CPU 0 warning: IPC 0.029333 < 0.05
Simulation CPU 0 panic: IPC 0.0050973 < 0.01
Simulation CPU 0 warning: IPC 0.037208 < 0.05
Simulation CPU 0 warning: IPC 0.036471 < 0.05
Simulation CPU 0 warning: IPC 0.021722 < 0.05
Simulation CPU 0 critical: IPC 0.012396 < 0.02
Simulation CPU 0 panic: IPC 0.0007865 < 0.01
Simulation CPU 0 warning: IPC 0.035844 < 0.05
Simulation CPU 0 warning: IPC 0.049947 < 0.05
Simulation CPU 0 warning: IPC 0.045793 < 0.05
Simulation CPU 0 warning: IPC 0.020673 < 0.05
Simulation CPU 0 critical: IPC 0.016133 < 0.02
Simulation CPU 0 panic: IPC 0.0031009 < 0.01
Simulation CPU 0 warning: IPC 0.043416 < 0.05
Simulation CPU 0 warning: IPC 0.046522 < 0.05
Simulation CPU 0 panic: IPC 0.003109 < 0.01
Heartbeat CPU 0 instructions: 350000063 cycles: 12373169348 heartbeat IPC: 0.04044 cumulative IPC: 0.02829 (Simulation time: 16 hr 47 min 01 sec)
Simulation CPU 0 warning: IPC 0.048512 < 0.05
Simulation CPU 0 panic: IPC 0.0010976 < 0.01
Simulation CPU 0 warning: IPC 0.021709 < 0.05
Simulation CPU 0 warning: IPC 0.02002 < 0.05
Simulation CPU 0 warning: IPC 0.043431 < 0.05
Simulation CPU 0 critical: IPC 0.015498 < 0.02
Simulation CPU 0 panic: IPC 0.0030999 < 0.01
Simulation CPU 0 panic: IPC 0.0093041 < 0.01
Simulation CPU 0 panic: IPC 0.0093102 < 0.01
Simulation CPU 0 warning: IPC 0.045773 < 0.05
Simulation CPU 0 warning: IPC 0.02817 < 0.05
Simulation CPU 0 panic: IPC 0.009303 < 0.01
Simulation CPU 0 warning: IPC 0.044155 < 0.05
Simulation CPU 0 warning: IPC 0.04031 < 0.05
Simulation CPU 0 warning: IPC 0.027903 < 0.05
Simulation CPU 0 warning: IPC 0.043405 < 0.05
Simulation CPU 0 critical: IPC 0.018596 < 0.02
Simulation CPU 0 panic: IPC 0.0017278 < 0.01
Simulation CPU 0 warning: IPC 0.024677 < 0.05
Simulation CPU 0 panic: IPC 0.0031006 < 0.01
Simulation CPU 0 panic: IPC 0.0031022 < 0.01
Simulation CPU 0 panic: IPC 0.0062024 < 0.01
Simulation CPU 0 panic: IPC 0.0074109 < 0.01
Heartbeat CPU 0 instructions: 360000064 cycles: 12685086044 heartbeat IPC: 0.03206 cumulative IPC: 0.02838 (Simulation time: 17 hr 11 min 47 sec)
[ERROR_CYCLE] Error added at CPU cycle 12695832271, interval 18, pending count: 1
[DRAM_CYCLE_ERROR] Cycle-based error applied! address=0x206a1650 additional_latency=2459910500 cycles
Simulation CPU 0 warning: IPC 0.029329 < 0.05
Simulation CPU 0 warning: IPC 0.035029 < 0.05
Simulation CPU 0 critical: IPC 0.01737 < 0.02
Simulation CPU 0 panic: IPC 0.0062005 < 0.01
Simulation CPU 0 warning: IPC 0.044939 < 0.05
Simulation CPU 0 critical: IPC 0.014318 < 0.02
Simulation CPU 0 warning: IPC 0.029986 < 0.05
Simulation CPU 0 warning: IPC 0.043901 < 0.05
Simulation CPU 0 warning: IPC 0.038218 < 0.05
Simulation CPU 0 warning: IPC 0.024802 < 0.05
Simulation CPU 0 warning: IPC 0.040305 < 0.05
Simulation CPU 0 warning: IPC 0.031056 < 0.05
Simulation CPU 0 warning: IPC 0.027909 < 0.05
Heartbeat CPU 0 instructions: 370000067 cycles: 12905228785 heartbeat IPC: 0.04543 cumulative IPC: 0.02867 (Simulation time: 17 hr 30 min 06 sec)
Simulation CPU 0 panic: IPC 0.0093047 < 0.01
Simulation CPU 0 panic: IPC 0.0093327 < 0.01
Simulation CPU 0 panic: IPC 0.000472 < 0.01
Simulation CPU 0 panic: IPC 0.0057544 < 0.01
Simulation CPU 0 panic: IPC 0.0062129 < 0.01
Simulation CPU 0 panic: IPC 0.009303 < 0.01
Simulation CPU 0 warning: IPC 0.035923 < 0.05
Simulation CPU 0 panic: IPC 0.0016525 < 0.01
Simulation CPU 0 panic: IPC 0.0093033 < 0.01
Simulation CPU 0 warning: IPC 0.025746 < 0.05
Simulation CPU 0 warning: IPC 0.039368 < 0.05
Simulation CPU 0 critical: IPC 0.018599 < 0.02
Simulation CPU 0 panic: IPC 2.82e-05 < 0.01
Simulation CPU 0 warning: IPC 0.024489 < 0.05
Simulation CPU 0 warning: IPC 0.046847 < 0.05
Simulation CPU 0 critical: IPC 0.013095 < 0.02
Simulation CPU 0 warning: IPC 0.029482 < 0.05
Simulation CPU 0 warning: IPC 0.029961 < 0.05
Simulation CPU 0 warning: IPC 0.044527 < 0.05
Simulation CPU 0 critical: IPC 0.015529 < 0.02
Simulation CPU 0 critical: IPC 0.018605 < 0.02
Simulation CPU 0 panic: IPC 0.0075524 < 0.01
Simulation CPU 0 warning: IPC 0.042056 < 0.05
Simulation CPU 0 warning: IPC 0.027917 < 0.05
Simulation CPU 0 warning: IPC 0.03721 < 0.05
Simulation CPU 0 warning: IPC 0.037997 < 0.05
Simulation CPU 0 critical: IPC 0.014733 < 0.02
Simulation CPU 0 critical: IPC 0.01934 < 0.02
Simulation CPU 0 warning: IPC 0.029786 < 0.05
Simulation CPU 0 critical: IPC 0.019095 < 0.02
Simulation CPU 0 critical: IPC 0.015509 < 0.02
Simulation CPU 0 panic: IPC 0.0062018 < 0.01
Simulation CPU 0 warning: IPC 0.031004 < 0.05
Simulation CPU 0 panic: IPC 0.002347 < 0.01
Simulation CPU 0 panic: IPC 0.0069728 < 0.01
Simulation CPU 0 warning: IPC 0.043432 < 0.05
Simulation CPU 0 warning: IPC 0.043412 < 0.05
Simulation CPU 0 panic: IPC 0.0030953 < 0.01
Simulation CPU 0 critical: IPC 0.015512 < 0.02
Simulation CPU 0 critical: IPC 0.018611 < 0.02
Simulation CPU 0 panic: IPC 0.0031012 < 0.01
Heartbeat CPU 0 instructions: 380000068 cycles: 13346468414 heartbeat IPC: 0.02266 cumulative IPC: 0.02847 (Simulation time: 18 hr 05 min 13 sec)
Simulation CPU 0 warning: IPC 0.046507 < 0.05
Simulation CPU 0 warning: IPC 0.04342 < 0.05
Simulation CPU 0 panic: IPC 0.0062036 < 0.01
Simulation CPU 0 warning: IPC 0.026012 < 0.05
Simulation CPU 0 warning: IPC 0.029858 < 0.05
[ERROR_CYCLE] Error added at CPU cycle 13401156286, interval 19, pending count: 1
[DRAM_CYCLE_ERROR] Cycle-based error applied! address=0x56533bc30 additional_latency=2459910500 cycles
Simulation CPU 0 panic: IPC 0 < 0.01
Simulation CPU 0 warning: IPC 0.049948 < 0.05
Simulation CPU 0 panic: IPC 0.0031046 < 0.01
Simulation CPU 0 warning: IPC 0.040314 < 0.05
Simulation CPU 0 warning: IPC 0.025364 < 0.05
Simulation CPU 0 warning: IPC 0.0342 < 0.05
Simulation CPU 0 warning: IPC 0.039841 < 0.05
Simulation CPU 0 warning: IPC 0.033182 < 0.05
Simulation CPU 0 warning: IPC 0.021731 < 0.05
Simulation CPU 0 panic: IPC 0.0062024 < 0.01
Simulation CPU 0 warning: IPC 0.036877 < 0.05
Simulation CPU 0 warning: IPC 0.031352 < 0.05
Simulation CPU 0 warning: IPC 0.027164 < 0.05
Simulation CPU 0 critical: IPC 0.019518 < 0.02
Simulation CPU 0 warning: IPC 0.021549 < 0.05
Simulation CPU 0 warning: IPC 0.038282 < 0.05
Simulation CPU 0 critical: IPC 0.014457 < 0.02
Simulation CPU 0 panic: IPC 0.000472 < 0.01
Simulation CPU 0 panic: IPC 0.00574 < 0.01
Simulation CPU 0 panic: IPC 0.0093138 < 0.01
Simulation CPU 0 critical: IPC 0.018616 < 0.02
Simulation CPU 0 critical: IPC 0.01861 < 0.02
Simulation CPU 0 panic: IPC 0.0031048 < 0.01
Simulation CPU 0 panic: IPC 0.0062126 < 0.01
Simulation CPU 0 critical: IPC 0.012415 < 0.02
Simulation CPU 0 panic: IPC 0.0031042 < 0.01
Simulation CPU 0 panic: IPC 0.009321 < 0.01
Simulation CPU 0 critical: IPC 0.015963 < 0.02
Simulation CPU 0 panic: IPC 0.0002832 < 0.01
Simulation CPU 0 panic: IPC 0.0008984 < 0.01
Simulation CPU 0 panic: IPC 0.0045696 < 0.01
Simulation CPU 0 warning: IPC 0.040315 < 0.05
Heartbeat CPU 0 instructions: 390000071 cycles: 13751380974 heartbeat IPC: 0.0247 cumulative IPC: 0.02836 (Simulation time: 18 hr 38 min 56 sec)
Simulation CPU 0 critical: IPC 0.014718 < 0.02
Simulation CPU 0 warning: IPC 0.031814 < 0.05
Simulation CPU 0 warning: IPC 0.036148 < 0.05
Simulation CPU 0 critical: IPC 0.019944 < 0.02
Simulation CPU 0 warning: IPC 0.023459 < 0.05
Simulation CPU 0 warning: IPC 0.03102 < 0.05
Simulation CPU 0 panic: IPC 0.0092997 < 0.01
Simulation CPU 0 panic: IPC 8e-06 < 0.01
Simulation CPU 0 panic: IPC 5.68e-05 < 0.01
Simulation CPU 0 warning: IPC 0.021773 < 0.05
Simulation CPU 0 panic: IPC 0.0055141 < 0.01
Simulation CPU 0 warning: IPC 0.034124 < 0.05
Simulation CPU 0 critical: IPC 0.012256 < 0.02
Simulation CPU 0 warning: IPC 0.027422 < 0.05
Simulation CPU 0 warning: IPC 0.022564 < 0.05
Simulation CPU 0 panic: IPC 0.0031006 < 0.01
Simulation CPU 0 warning: IPC 0.035698 < 0.05
Simulation CPU 0 critical: IPC 0.01823 < 0.02
Simulation CPU 0 critical: IPC 0.017428 < 0.02
Simulation CPU 0 warning: IPC 0.031016 < 0.05
Simulation CPU 0 critical: IPC 0.012422 < 0.02
Simulation CPU 0 critical: IPC 0.01861 < 0.02
Simulation CPU 0 critical: IPC 0.015541 < 0.02
Simulation CPU 0 critical: IPC 0.01861 < 0.02
Simulation CPU 0 warning: IPC 0.034005 < 0.05
Simulation CPU 0 critical: IPC 0.012548 < 0.02
Simulation CPU 0 critical: IPC 0.0186 < 0.02
Simulation CPU 0 warning: IPC 0.046518 < 0.05
Simulation CPU 0 warning: IPC 0.021736 < 0.05
Simulation CPU 0 warning: IPC 0.027924 < 0.05
Simulation CPU 0 panic: IPC 0.0039776 < 0.01
[ERROR_CYCLE] Error added at CPU cycle 14106480301, interval 20, pending count: 1
[DRAM_CYCLE_ERROR] Cycle-based error applied! address=0x7d4400020 additional_latency=2459910500 cycles
Simulation CPU 0 panic: IPC 0 < 0.01
Simulation CPU 0 panic: IPC 0.0094057 < 0.01
Heartbeat CPU 0 instructions: 400000074 cycles: 14128582213 heartbeat IPC: 0.02651 cumulative IPC: 0.02831 (Simulation time: 19 hr 07 min 43 sec)
Simulation CPU 0 critical: IPC 0.018858 < 0.02
Simulation CPU 0 warning: IPC 0.030789 < 0.05
Simulation CPU 0 critical: IPC 0.018617 < 0.02
Simulation CPU 0 panic: IPC 0.0058215 < 0.01
Simulation CPU 0 critical: IPC 0.01241 < 0.02
Simulation CPU 0 panic: IPC 0.0061965 < 0.01
Simulation CPU 0 panic: IPC 1.02e-05 < 0.01
Simulation CPU 0 warning: IPC 0.024813 < 0.05
Simulation CPU 0 warning: IPC 0.037224 < 0.05
Simulation CPU 0 panic: IPC 0.009309 < 0.01
Simulation CPU 0 warning: IPC 0.040325 < 0.05
Simulation CPU 0 panic: IPC 0.0062011 < 0.01
Simulation CPU 0 panic: IPC 0.0031084 < 0.01
Simulation CPU 0 warning: IPC 0.027915 < 0.05
Simulation CPU 0 critical: IPC 0.013215 < 0.02
Simulation CPU 0 warning: IPC 0.040289 < 0.05
Simulation CPU 0 critical: IPC 0.012398 < 0.02
Simulation CPU 0 warning: IPC 0.030482 < 0.05
Simulation CPU 0 panic: IPC 0.0098672 < 0.01
Simulation CPU 0 panic: IPC 0.0031012 < 0.01
Simulation CPU 0 warning: IPC 0.040327 < 0.05
Simulation CPU 0 panic: IPC 0.0062005 < 0.01
Simulation CPU 0 panic: IPC 0.0031078 < 0.01
Simulation CPU 0 panic: IPC 0.0093333 < 0.01
Simulation CPU 0 panic: IPC 0.009336 < 0.01
Simulation CPU 0 panic: IPC 0.0093042 < 0.01
Simulation CPU 0 warning: IPC 0.031551 < 0.05
Simulation CPU 0 warning: IPC 0.049067 < 0.05
Simulation CPU 0 critical: IPC 0.015523 < 0.02
Heartbeat CPU 0 instructions: 410000076 cycles: 14495930035 heartbeat IPC: 0.02722 cumulative IPC: 0.02828 (Simulation time: 19 hr 36 min 56 sec)
Simulation CPU 0 critical: IPC 0.015525 < 0.02
Simulation CPU 0 panic: IPC 0.0062005 < 0.01
Simulation CPU 0 panic: IPC 0.0030996 < 0.01
Simulation CPU 0 panic: IPC 0.0093164 < 0.01
Simulation CPU 0 critical: IPC 0.012411 < 0.02
Simulation CPU 0 critical: IPC 0.012408 < 0.02
Simulation CPU 0 panic: IPC 8e-06 < 0.01
Simulation CPU 0 critical: IPC 0.012403 < 0.02
Simulation CPU 0 warning: IPC 0.027906 < 0.05
Simulation CPU 0 panic: IPC 0.0031114 < 0.01
Simulation CPU 0 warning: IPC 0.037229 < 0.05
Simulation CPU 0 warning: IPC 0.034128 < 0.05
Simulation CPU 0 panic: IPC 0.003084 < 0.01
Simulation CPU 0 critical: IPC 0.013947 < 0.02
Simulation CPU 0 warning: IPC 0.029816 < 0.05
Simulation CPU 0 warning: IPC 0.030686 < 0.05
Simulation CPU 0 warning: IPC 0.02914 < 0.05
Simulation CPU 0 warning: IPC 0.039101 < 0.05
Simulation CPU 0 warning: IPC 0.043385 < 0.05
Simulation CPU 0 critical: IPC 0.018619 < 0.02
Simulation CPU 0 warning: IPC 0.040398 < 0.05
Simulation CPU 0 warning: IPC 0.034016 < 0.05
Simulation CPU 0 warning: IPC 0.040307 < 0.05
Simulation CPU 0 warning: IPC 0.024816 < 0.05
Simulation CPU 0 critical: IPC 0.015561 < 0.02
Simulation CPU 0 warning: IPC 0.034143 < 0.05
Simulation CPU 0 warning: IPC 0.03633 < 0.05
Simulation CPU 0 panic: IPC 0.0070043 < 0.01
Simulation CPU 0 warning: IPC 0.027904 < 0.05
Simulation CPU 0 warning: IPC 0.025991 < 0.05
Simulation CPU 0 warning: IPC 0.029548 < 0.05
Simulation CPU 0 warning: IPC 0.030008 < 0.05
[ERROR_CYCLE] Error added at CPU cycle 14811804315, interval 21, pending count: 1
[DRAM_CYCLE_ERROR] Cycle-based error applied! address=0x5653c8e68 additional_latency=2459910500 cycles
Simulation CPU 0 warning: IPC 0.043334 < 0.05
Simulation CPU 0 panic: IPC 0 < 0.01
Simulation CPU 0 critical: IPC 0.016866 < 0.02
Simulation CPU 0 warning: IPC 0.035695 < 0.05
Simulation CPU 0 warning: IPC 0.029886 < 0.05
Simulation CPU 0 warning: IPC 0.029755 < 0.05
Simulation CPU 0 panic: IPC 0.0062023 < 0.01
Simulation CPU 0 warning: IPC 0.049613 < 0.05
Heartbeat CPU 0 instructions: 420000076 cycles: 14900820508 heartbeat IPC: 0.0247 cumulative IPC: 0.02819 (Simulation time: 20 hr 06 min 17 sec)
Simulation CPU 0 warning: IPC 0.021708 < 0.05
Simulation CPU 0 warning: IPC 0.046482 < 0.05
Simulation CPU 0 critical: IPC 0.015543 < 0.02
Simulation CPU 0 panic: IPC 0.0032104 < 0.01
Simulation CPU 0 panic: IPC 0.0092044 < 0.01
Simulation CPU 0 warning: IPC 0.039748 < 0.05
Simulation CPU 0 warning: IPC 0.025498 < 0.05
Simulation CPU 0 warning: IPC 0.034116 < 0.05
Simulation CPU 0 warning: IPC 0.03026 < 0.05
Simulation CPU 0 warning: IPC 0.025565 < 0.05
Simulation CPU 0 warning: IPC 0.034634 < 0.05
Simulation CPU 0 warning: IPC 0.029127 < 0.05
Simulation CPU 0 panic: IPC 0.0075633 < 0.01
Simulation CPU 0 critical: IPC 0.015718 < 0.02
Simulation CPU 0 warning: IPC 0.044346 < 0.05
Simulation CPU 0 warning: IPC 0.045578 < 0.05
Simulation CPU 0 warning: IPC 0.031015 < 0.05
Simulation CPU 0 warning: IPC 0.021714 < 0.05
Simulation CPU 0 warning: IPC 0.020951 < 0.05
Simulation CPU 0 warning: IPC 0.02715 < 0.05
Simulation CPU 0 warning: IPC 0.029421 < 0.05
Simulation CPU 0 warning: IPC 0.021712 < 0.05
Simulation CPU 0 critical: IPC 0.012407 < 0.02
Simulation CPU 0 warning: IPC 0.049062 < 0.05
Simulation CPU 0 warning: IPC 0.031577 < 0.05
Simulation CPU 0 critical: IPC 0.015505 < 0.02
Simulation CPU 0 critical: IPC 0.018629 < 0.02
Simulation CPU 0 warning: IPC 0.034101 < 0.05
Simulation CPU 0 warning: IPC 0.021716 < 0.05
Simulation CPU 0 warning: IPC 0.027914 < 0.05
Simulation CPU 0 warning: IPC 0.021709 < 0.05
Simulation CPU 0 critical: IPC 0.014137 < 0.02
Simulation CPU 0 panic: IPC 0.0093023 < 0.01
Heartbeat CPU 0 instructions: 430000076 cycles: 15268144768 heartbeat IPC: 0.02722 cumulative IPC: 0.02816 (Simulation time: 20 hr 32 min 08 sec)
Simulation CPU 0 panic: IPC 0.0072213 < 0.01
Simulation CPU 0 warning: IPC 0.020689 < 0.05
Simulation CPU 0 critical: IPC 0.015489 < 0.02
Simulation CPU 0 warning: IPC 0.040997 < 0.05
Simulation CPU 0 panic: IPC 0.0062046 < 0.01
Simulation CPU 0 panic: IPC 0.0031042 < 0.01
Simulation CPU 0 critical: IPC 0.015376 < 0.02
Simulation CPU 0 warning: IPC 0.028056 < 0.05
Simulation CPU 0 warning: IPC 0.043424 < 0.05
Simulation CPU 0 panic: IPC 0.0061952 < 0.01
Simulation CPU 0 panic: IPC 6.5e-06 < 0.01
Simulation CPU 0 panic: IPC 0.0062072 < 0.01
Simulation CPU 0 warning: IPC 0.046517 < 0.05
Simulation CPU 0 warning: IPC 0.045376 < 0.05
Simulation CPU 0 critical: IPC 0.018606 < 0.02
Simulation CPU 0 warning: IPC 0.031011 < 0.05
Simulation CPU 0 panic: IPC 0.0072144 < 0.01
Simulation CPU 0 warning: IPC 0.03312 < 0.05
Simulation CPU 0 warning: IPC 0.040863 < 0.05
Simulation CPU 0 warning: IPC 0.039821 < 0.05
[ERROR_CYCLE] Error added at CPU cycle 15517128330, interval 22, pending count: 1
[DRAM_CYCLE_ERROR] Cycle-based error applied! address=0x484d017a8 additional_latency=2459910500 cycles
Simulation CPU 0 panic: IPC 0 < 0.01
Simulation CPU 0 panic: IPC 2.6e-06 < 0.01
Simulation CPU 0 panic: IPC 0.005414 < 0.01
Simulation CPU 0 warning: IPC 0.02584 < 0.05
Simulation CPU 0 critical: IPC 0.015503 < 0.02
Simulation CPU 0 warning: IPC 0.043409 < 0.05
Simulation CPU 0 panic: IPC 0.0062015 < 0.01
Simulation CPU 0 warning: IPC 0.029427 < 0.05
Heartbeat CPU 0 instructions: 440000080 cycles: 15608380906 heartbeat IPC: 0.02939 cumulative IPC: 0.02819 (Simulation time: 20 hr 59 min 54 sec)
Simulation CPU 0 warning: IPC 0.027796 < 0.05
Simulation CPU 0 warning: IPC 0.049802 < 0.05
Simulation CPU 0 warning: IPC 0.023213 < 0.05
Simulation CPU 0 warning: IPC 0.04962 < 0.05
Simulation CPU 0 warning: IPC 0.042851 < 0.05
Simulation CPU 0 warning: IPC 0.034646 < 0.05
Simulation CPU 0 warning: IPC 0.040877 < 0.05
Simulation CPU 0 warning: IPC 0.033284 < 0.05
Simulation CPU 0 warning: IPC 0.029006 < 0.05
Simulation CPU 0 panic: IPC 0.006203 < 0.01
Simulation CPU 0 warning: IPC 0.027915 < 0.05
Simulation CPU 0 panic: IPC 0.0093029 < 0.01
Simulation CPU 0 panic: IPC 0.0031012 < 0.01
Simulation CPU 0 warning: IPC 0.021702 < 0.05
Simulation CPU 0 warning: IPC 0.034128 < 0.05
Simulation CPU 0 panic: IPC 0.0031151 < 0.01
Simulation CPU 0 warning: IPC 0.028689 < 0.05
Simulation CPU 0 warning: IPC 0.020958 < 0.05
Simulation CPU 0 panic: IPC 0.0030986 < 0.01
Simulation CPU 0 warning: IPC 0.027845 < 0.05
Simulation CPU 0 warning: IPC 0.024947 < 0.05
Simulation CPU 0 warning: IPC 0.034999 < 0.05
Simulation CPU 0 warning: IPC 0.029439 < 0.05
Simulation CPU 0 warning: IPC 0.034803 < 0.05
Simulation CPU 0 warning: IPC 0.049633 < 0.05
Simulation CPU 0 warning: IPC 0.02793 < 0.05
Simulation CPU 0 warning: IPC 0.031777 < 0.05
Simulation CPU 0 warning: IPC 0.03027 < 0.05
Simulation CPU 0 panic: IPC 0.0030999 < 0.01
Heartbeat CPU 0 instructions: 450000081 cycles: 15924906683 heartbeat IPC: 0.03159 cumulative IPC: 0.02826 (Simulation time: 21 hr 23 min 56 sec)
Simulation CPU 0 warning: IPC 0.03411 < 0.05
Simulation CPU 0 warning: IPC 0.031004 < 0.05
Simulation CPU 0 critical: IPC 0.018049 < 0.02
Simulation CPU 0 warning: IPC 0.038017 < 0.05
Simulation CPU 0 warning: IPC 0.033012 < 0.05
Simulation CPU 0 panic: IPC 0.0010496 < 0.01
Simulation CPU 0 warning: IPC 0.049375 < 0.05
Simulation CPU 0 warning: IPC 0.039356 < 0.05
Simulation CPU 0 warning: IPC 0.029399 < 0.05
Simulation CPU 0 panic: IPC 0.006206 < 0.01
Simulation CPU 0 warning: IPC 0.021699 < 0.05
Heartbeat CPU 0 instructions: 460000083 cycles: 16125965483 heartbeat IPC: 0.04974 cumulative IPC: 0.02853 (Simulation time: 21 hr 40 min 53 sec)
Simulation CPU 0 panic: IPC 0.0093073 < 0.01
Simulation CPU 0 warning: IPC 0.040528 < 0.05
Simulation CPU 0 warning: IPC 0.042986 < 0.05
[ERROR_CYCLE] Error added at CPU cycle 16222452345, interval 23, pending count: 1
[DRAM_CYCLE_ERROR] Cycle-based error applied! address=0x6c7d00020 additional_latency=2459910500 cycles
Simulation CPU 0 panic: IPC 0 < 0.01
Simulation CPU 0 critical: IPC 0.019389 < 0.02
Simulation CPU 0 warning: IPC 0.036186 < 0.05
Heartbeat CPU 0 instructions: 470000085 cycles: 16290652269 heartbeat IPC: 0.06072 cumulative IPC: 0.02885 (Simulation time: 21 hr 54 min 33 sec)
Simulation CPU 0 critical: IPC 0.01758 < 0.02
Simulation CPU 0 panic: IPC 0.0007367 < 0.01
Simulation CPU 0 warning: IPC 0.043484 < 0.05
Simulation CPU 0 warning: IPC 0.029869 < 0.05
Simulation CPU 0 warning: IPC 0.039108 < 0.05
Simulation CPU 0 warning: IPC 0.038182 < 0.05
Heartbeat CPU 0 instructions: 480000086 cycles: 16463997653 heartbeat IPC: 0.05769 cumulative IPC: 0.02915 (Simulation time: 22 hr 08 min 56 sec)
Simulation CPU 0 warning: IPC 0.045766 < 0.05
Simulation CPU 0 warning: IPC 0.035068 < 0.05
Simulation CPU 0 warning: IPC 0.048391 < 0.05
Simulation CPU 0 warning: IPC 0.029438 < 0.05
Simulation CPU 0 critical: IPC 0.016004 < 0.02
Simulation CPU 0 warning: IPC 0.027933 < 0.05
Heartbeat CPU 0 instructions: 490000086 cycles: 16628087477 heartbeat IPC: 0.06094 cumulative IPC: 0.02947 (Simulation time: 22 hr 22 min 35 sec)
Simulation CPU 0 warning: IPC 0.035792 < 0.05
Simulation CPU 0 warning: IPC 0.034457 < 0.05
Simulation CPU 0 warning: IPC 0.024804 < 0.05
Simulation CPU 0 warning: IPC 0.046508 < 0.05
Simulation CPU 0 panic: IPC 0.0093066 < 0.01
Simulation CPU 0 panic: IPC 0.0062005 < 0.01
Simulation CPU 0 warning: IPC 0.038937 < 0.05
Simulation CPU 0 panic: IPC 0.0044773 < 0.01
Simulation CPU 0 panic: IPC 0.00311 < 0.01
Simulation CPU 0 critical: IPC 0.015505 < 0.02
Simulation CPU 0 critical: IPC 0.01241 < 0.02
Simulation CPU 0 warning: IPC 0.0426 < 0.05
Simulation CPU 0 panic: IPC 0.0031031 < 0.01
Simulation CPU 0 warning: IPC 0.034128 < 0.05
Simulation CPU 0 warning: IPC 0.024813 < 0.05
Simulation CPU 0 panic: IPC 0.006206 < 0.01
Simulation CPU 0 warning: IPC 0.027904 < 0.05
Simulation CPU 0 panic: IPC 0.0083651 < 0.01
Simulation CPU 0 critical: IPC 0.016454 < 0.02
Simulation CPU 0 warning: IPC 0.043092 < 0.05
Simulation CPU 0 panic: IPC 0.0034591 < 0.01
Simulation CPU 0 warning: IPC 0.031037 < 0.05
[ERROR_CYCLE] Error added at CPU cycle 16927776361, interval 24, pending count: 1
[DRAM_CYCLE_ERROR] Cycle-based error applied! address=0x3953ea950 additional_latency=2459910500 cycles
Simulation CPU 0 panic: IPC 0 < 0.01
Simulation CPU 0 panic: IPC 0.0031036 < 0.01
Simulation CPU 0 critical: IPC 0.018612 < 0.02
Simulation CPU 0 critical: IPC 0.015505 < 0.02
Simulation CPU 0 panic: IPC 0.000472 < 0.01
Simulation CPU 0 warning: IPC 0.036742 < 0.05
Heartbeat CPU 0 instructions: 500000086 cycles: 16986809103 heartbeat IPC: 0.02788 cumulative IPC: 0.02943 (Simulation time: 22 hr 52 min 01 sec)
Simulation CPU 0 warning: IPC 0.025715 < 0.05
Simulation CPU 0 warning: IPC 0.023917 < 0.05
Simulation CPU 0 panic: IPC 0 < 0.01
Simulation CPU 0 warning: IPC 0.021717 < 0.05
Simulation CPU 0 warning: IPC 0.031016 < 0.05
Simulation CPU 0 panic: IPC 0.0031072 < 0.01
Simulation CPU 0 panic: IPC 0.0030873 < 0.01
Simulation CPU 0 critical: IPC 0.017309 < 0.02
Simulation CPU 0 critical: IPC 0.016835 < 0.02
Simulation CPU 0 warning: IPC 0.042797 < 0.05
Simulation CPU 0 panic: IPC 0.0099576 < 0.01
Simulation CPU 0 warning: IPC 0.029531 < 0.05
Simulation CPU 0 warning: IPC 0.0418 < 0.05
Simulation CPU 0 critical: IPC 0.018623 < 0.02
Simulation CPU 0 warning: IPC 0.044458 < 0.05
Simulation CPU 0 warning: IPC 0.034831 < 0.05
Simulation CPU 0 critical: IPC 0.010676 < 0.02
Simulation CPU 0 warning: IPC 0.024799 < 0.05
Simulation CPU 0 panic: IPC 0.0031179 < 0.01
Simulation CPU 0 critical: IPC 0.012416 < 0.02
Simulation CPU 0 critical: IPC 0.016063 < 0.02
Simulation CPU 0 warning: IPC 0.021708 < 0.05
Simulation CPU 0 warning: IPC 0.044849 < 0.05
Heartbeat CPU 0 instructions: 510000087 cycles: 17275617218 heartbeat IPC: 0.03463 cumulative IPC: 0.02952 (Simulation time: 23 hr 14 min 30 sec)
Simulation CPU 0 warning: IPC 0.048599 < 0.05
Simulation CPU 0 panic: IPC 0.0062253 < 0.01
Simulation CPU 0 critical: IPC 0.019365 < 0.02
Simulation CPU 0 warning: IPC 0.03502 < 0.05
Simulation CPU 0 warning: IPC 0.043278 < 0.05
Simulation CPU 0 warning: IPC 0.029941 < 0.05
Simulation CPU 0 warning: IPC 0.049596 < 0.05
Heartbeat CPU 0 instructions: 520000087 cycles: 17448933244 heartbeat IPC: 0.0577 cumulative IPC: 0.0298 (Simulation time: 23 hr 28 min 04 sec)
Simulation CPU 0 warning: IPC 0.036739 < 0.05
Simulation CPU 0 warning: IPC 0.03936 < 0.05
Simulation CPU 0 critical: IPC 0.018923 < 0.02
Simulation CPU 0 critical: IPC 0.014108 < 0.02
Simulation CPU 0 warning: IPC 0.037228 < 0.05
Simulation CPU 0 warning: IPC 0.038236 < 0.05
Simulation CPU 0 warning: IPC 0.029423 < 0.05
Simulation CPU 0 warning: IPC 0.03006 < 0.05
Simulation CPU 0 critical: IPC 0.017036 < 0.02
Simulation CPU 0 warning: IPC 0.041528 < 0.05
[ERROR_CYCLE] Error added at CPU cycle 17633100376, interval 25, pending count: 1
[DRAM_CYCLE_ERROR] Cycle-based error applied! address=0x2f06d7360 additional_latency=2459910500 cycles
Simulation CPU 0 panic: IPC 0 < 0.01
Simulation CPU 0 warning: IPC 0.037295 < 0.05
Heartbeat CPU 0 instructions: 530000091 cycles: 17659840946 heartbeat IPC: 0.04741 cumulative IPC: 0.03001 (Simulation time: 23 hr 45 min 44 sec)
Simulation CPU 0 warning: IPC 0.029564 < 0.05
Simulation CPU 0 warning: IPC 0.02994 < 0.05
Simulation CPU 0 warning: IPC 0.030036 < 0.05
Simulation CPU 0 warning: IPC 0.027023 < 0.05
Simulation CPU 0 warning: IPC 0.03253 < 0.05
Simulation CPU 0 warning: IPC 0.023314 < 0.05
Simulation CPU 0 panic: IPC 0.0031085 < 0.01
Simulation CPU 0 critical: IPC 0.015545 < 0.02
Simulation CPU 0 warning: IPC 0.024851 < 0.05
Simulation CPU 0 critical: IPC 0.018638 < 0.02
Simulation CPU 0 critical: IPC 0.010807 < 0.02
Simulation CPU 0 critical: IPC 0.010916 < 0.02
Simulation CPU 0 panic: IPC 0.0030953 < 0.01
Simulation CPU 0 critical: IPC 0.012413 < 0.02
Simulation CPU 0 warning: IPC 0.031029 < 0.05
Simulation CPU 0 panic: IPC 0.0093072 < 0.01
Simulation CPU 0 warning: IPC 0.03239 < 0.05
Simulation CPU 0 warning: IPC 0.043123 < 0.05
Simulation CPU 0 warning: IPC 0.021799 < 0.05
Simulation CPU 0 warning: IPC 0.043373 < 0.05
Simulation CPU 0 critical: IPC 0.018611 < 0.02
Simulation CPU 0 warning: IPC 0.040398 < 0.05
Simulation CPU 0 panic: IPC 0.0062111 < 0.01
Simulation CPU 0 warning: IPC 0.039381 < 0.05
Simulation CPU 0 warning: IPC 0.047565 < 0.05
Simulation CPU 0 warning: IPC 0.037259 < 0.05
Simulation CPU 0 warning: IPC 0.037231 < 0.05
Simulation CPU 0 panic: IPC 0.0031012 < 0.01
Simulation CPU 0 panic: IPC 0.008757 < 0.01
Simulation CPU 0 panic: IPC 0.0079102 < 0.01
Simulation CPU 0 critical: IPC 0.0133 < 0.02
Simulation CPU 0 warning: IPC 0.02085 < 0.05
Simulation CPU 0 warning: IPC 0.031037 < 0.05
Simulation CPU 0 critical: IPC 0.012439 < 0.02
Simulation CPU 0 panic: IPC 0.0062294 < 0.01
Simulation CPU 0 panic: IPC 0.0062046 < 0.01
Simulation CPU 0 panic: IPC 0.0093065 < 0.01
Simulation CPU 0 critical: IPC 0.012414 < 0.02
Heartbeat CPU 0 instructions: 540000093 cycles: 18064152051 heartbeat IPC: 0.02473 cumulative IPC: 0.02989 (Simulation time: 00 hr 20 min 07 sec)
Simulation CPU 0 warning: IPC 0.048105 < 0.05
Simulation CPU 0 panic: IPC 0.0046229 < 0.01
Simulation CPU 0 warning: IPC 0.043443 < 0.05
Simulation CPU 0 panic: IPC 3.42e-05 < 0.01
Simulation CPU 0 critical: IPC 0.012407 < 0.02
Simulation CPU 0 warning: IPC 0.027921 < 0.05
Simulation CPU 0 panic: IPC 0.0031054 < 0.01
Simulation CPU 0 warning: IPC 0.031014 < 0.05
Simulation CPU 0 warning: IPC 0.031042 < 0.05
Simulation CPU 0 panic: IPC 0.0031036 < 0.01
Simulation CPU 0 warning: IPC 0.021338 < 0.05
Simulation CPU 0 warning: IPC 0.037792 < 0.05
Simulation CPU 0 warning: IPC 0.034118 < 0.05
Simulation CPU 0 panic: IPC 0.0031018 < 0.01
Simulation CPU 0 warning: IPC 0.030572 < 0.05
Simulation CPU 0 critical: IPC 0.015792 < 0.02
[...]
[DRAM_CYCLE_ERROR] Cycle-based error applied! address=0x38ce0fbc8 additional_latency=2459910500 cycles
Simulation CPU 0 panic: IPC 0 < 0.01
Simulation CPU 0 warning: IPC 0.046346 < 0.05
Simulation CPU 0 panic: IPC 0.0068853 < 0.01
Simulation CPU 0 warning: IPC 0.040312 < 0.05
Simulation CPU 0 warning: IPC 0.049359 < 0.05
Simulation CPU 0 warning: IPC 0.042425 < 0.05
Simulation CPU 0 critical: IPC 0.014714 < 0.02
Heartbeat CPU 0 instructions: 1140000169 cycles: 34019411584 heartbeat IPC: 0.0546 cumulative IPC: 0.03351 (Simulation time: 22 hr 28 min 59 sec)
Simulation CPU 0 warning: IPC 0.044176 < 0.05
Simulation CPU 0 warning: IPC 0.029963 < 0.05
Simulation CPU 0 warning: IPC 0.03718 < 0.05
Simulation CPU 0 warning: IPC 0.02719 < 0.05
Simulation CPU 0 warning: IPC 0.026079 < 0.05
Simulation CPU 0 warning: IPC 0.024806 < 0.05
Simulation CPU 0 warning: IPC 0.046513 < 0.05
Simulation CPU 0 panic: IPC 0.0031006 < 0.01
Simulation CPU 0 warning: IPC 0.02791 < 0.05
Simulation CPU 0 warning: IPC 0.043416 < 0.05
Simulation CPU 0 warning: IPC 0.046524 < 0.05
Simulation CPU 0 warning: IPC 0.034127 < 0.05
Simulation CPU 0 panic: IPC 0.0031048 < 0.01
Simulation CPU 0 warning: IPC 0.020591 < 0.05
Simulation CPU 0 warning: IPC 0.043424 < 0.05
Simulation CPU 0 panic: IPC 0.0062283 < 0.01
Simulation CPU 0 warning: IPC 0.03101 < 0.05
Simulation CPU 0 panic: IPC 0.0062021 < 0.01
Heartbeat CPU 0 instructions: 1150000169 cycles: 34266668249 heartbeat IPC: 0.04044 cumulative IPC: 0.03356 (Simulation time: 22 hr 50 min 32 sec)
Simulation CPU 0 warning: IPC 0.029489 < 0.05
Simulation CPU 0 warning: IPC 0.030002 < 0.05
Simulation CPU 0 warning: IPC 0.029805 < 0.05
Simulation CPU 0 panic: IPC 0.0081681 < 0.01
Simulation CPU 0 warning: IPC 0.040317 < 0.05
Simulation CPU 0 warning: IPC 0.034088 < 0.05
Simulation CPU 0 warning: IPC 0.02484 < 0.05
Simulation CPU 0 panic: IPC 0.000472 < 0.01
Heartbeat CPU 0 instructions: 1160000171 cycles: 34458465594 heartbeat IPC: 0.05214 cumulative IPC: 0.03366 (Simulation time: 23 hr 05 min 32 sec)
Simulation CPU 0 warning: IPC 0.041891 < 0.05
Simulation CPU 0 warning: IPC 0.043438 < 0.05
Simulation CPU 0 warning: IPC 0.034117 < 0.05
Simulation CPU 0 warning: IPC 0.021707 < 0.05
Simulation CPU 0 warning: IPC 0.046532 < 0.05
Simulation CPU 0 panic: IPC 0.0031101 < 0.01
Simulation CPU 0 panic: IPC 0.0062036 < 0.01
Simulation CPU 0 warning: IPC 0.029849 < 0.05
[ERROR_CYCLE] Error added at CPU cycle 34560876736, interval 49, pending count: 1
[DRAM_CYCLE_ERROR] Cycle-based error applied! address=0x2f07154e0 additional_latency=2459910500 cycles
Simulation CPU 0 panic: IPC 0 < 0.01
Simulation CPU 0 critical: IPC 0.012419 < 0.02
Simulation CPU 0 critical: IPC 0.018616 < 0.02
Simulation CPU 0 warning: IPC 0.027908 < 0.05
Heartbeat CPU 0 instructions: 1170000172 cycles: 34659865429 heartbeat IPC: 0.04965 cumulative IPC: 0.03376 (Simulation time: 23 hr 20 min 39 sec)
Simulation CPU 0 warning: IPC 0.030232 < 0.05
Simulation CPU 0 warning: IPC 0.030228 < 0.05
Simulation CPU 0 warning: IPC 0.029826 < 0.05
Simulation CPU 0 warning: IPC 0.042129 < 0.05
Simulation CPU 0 warning: IPC 0.044917 < 0.05
Simulation CPU 0 warning: IPC 0.029767 < 0.05
Simulation CPU 0 warning: IPC 0.049626 < 0.05
Heartbeat CPU 0 instructions: 1180000173 cycles: 34833149305 heartbeat IPC: 0.05771 cumulative IPC: 0.03388 (Simulation time: 23 hr 35 min 22 sec)
Simulation CPU 0 critical: IPC 0.010762 < 0.02
Simulation CPU 0 warning: IPC 0.029621 < 0.05
Simulation CPU 0 warning: IPC 0.04577 < 0.05
Heartbeat CPU 0 instructions: 1190000173 cycles: 35006482614 heartbeat IPC: 0.05769 cumulative IPC: 0.03399 (Simulation time: 23 hr 49 min 03 sec)
Simulation CPU 0 warning: IPC 0.029849 < 0.05
Simulation CPU 0 warning: IPC 0.048461 < 0.05
Simulation CPU 0 warning: IPC 0.03607 < 0.05
Simulation CPU 0 warning: IPC 0.031388 < 0.05
Heartbeat CPU 0 instructions: 1200000173 cycles: 35161314286 heartbeat IPC: 0.06459 cumulative IPC: 0.03413 (Simulation time: 00 hr 01 min 20 sec)
Simulation CPU 0 critical: IPC 0.016295 < 0.02
[ERROR_CYCLE] Error added at CPU cycle 35266200750, interval 50, pending count: 1
[DRAM_CYCLE_ERROR] Cycle-based error applied! address=0x4d5c00000 additional_latency=2459910500 cycles
Simulation CPU 0 panic: IPC 0.0001808 < 0.01
Simulation CPU 0 warning: IPC 0.036075 < 0.05
Simulation CPU 0 warning: IPC 0.038099 < 0.05
Heartbeat CPU 0 instructions: 1210000174 cycles: 35335246811 heartbeat IPC: 0.05749 cumulative IPC: 0.03424 (Simulation time: 00 hr 15 min 47 sec)
Simulation CPU 0 warning: IPC 0.044985 < 0.05
Simulation CPU 0 warning: IPC 0.029931 < 0.05
Simulation CPU 0 warning: IPC 0.041383 < 0.05
Simulation CPU 0 warning: IPC 0.024544 < 0.05
Simulation CPU 0 warning: IPC 0.024812 < 0.05
Simulation CPU 0 warning: IPC 0.046529 < 0.05
Simulation CPU 0 warning: IPC 0.042024 < 0.05
Simulation CPU 0 warning: IPC 0.026248 < 0.05
Simulation CPU 0 critical: IPC 0.013713 < 0.02
Simulation CPU 0 warning: IPC 0.045268 < 0.05
Simulation CPU 0 warning: IPC 0.043475 < 0.05
Simulation CPU 0 panic: IPC 0.0072268 < 0.01
Simulation CPU 0 warning: IPC 0.029996 < 0.05
Heartbeat CPU 0 instructions: 1220000178 cycles: 35554734326 heartbeat IPC: 0.04556 cumulative IPC: 0.03431 (Simulation time: 00 hr 33 min 01 sec)
Simulation CPU 0 warning: IPC 0.021731 < 0.05
Simulation CPU 0 warning: IPC 0.043425 < 0.05
Simulation CPU 0 warning: IPC 0.024816 < 0.05
Simulation CPU 0 panic: IPC 0.0062035 < 0.01
Simulation CPU 0 warning: IPC 0.031018 < 0.05
Simulation CPU 0 warning: IPC 0.040328 < 0.05
Simulation CPU 0 critical: IPC 0.018612 < 0.02
Simulation CPU 0 warning: IPC 0.030274 < 0.05
Simulation CPU 0 panic: IPC 0.0062023 < 0.01
Simulation CPU 0 panic: IPC 0.0062023 < 0.01
Simulation CPU 0 panic: IPC 0.0062042 < 0.01
Simulation CPU 0 critical: IPC 0.012415 < 0.02
Simulation CPU 0 warning: IPC 0.025282 < 0.05
Heartbeat CPU 0 instructions: 1230000181 cycles: 35792589322 heartbeat IPC: 0.04204 cumulative IPC: 0.03436 (Simulation time: 00 hr 51 min 41 sec)
Simulation CPU 0 warning: IPC 0.036749 < 0.05
Simulation CPU 0 warning: IPC 0.031021 < 0.05
Simulation CPU 0 warning: IPC 0.043428 < 0.05
Simulation CPU 0 critical: IPC 0.013255 < 0.02
Simulation CPU 0 warning: IPC 0.029698 < 0.05
Simulation CPU 0 warning: IPC 0.021706 < 0.05
Simulation CPU 0 critical: IPC 0.015507 < 0.02
Simulation CPU 0 warning: IPC 0.020147 < 0.05
[ERROR_CYCLE] Error added at CPU cycle 35971524765, interval 51, pending count: 1
[DRAM_CYCLE_ERROR] Cycle-based error applied! address=0x7f8d00010 additional_latency=2459910500 cycles
Simulation CPU 0 panic: IPC 0 < 0.01
Heartbeat CPU 0 instructions: 1240000182 cycles: 35984940851 heartbeat IPC: 0.05199 cumulative IPC: 0.03446 (Simulation time: 01 hr 05 min 48 sec)
Simulation CPU 0 warning: IPC 0.029471 < 0.05
Simulation CPU 0 warning: IPC 0.029491 < 0.05
Simulation CPU 0 warning: IPC 0.040832 < 0.05
Simulation CPU 0 warning: IPC 0.020948 < 0.05
Simulation CPU 0 critical: IPC 0.012407 < 0.02
Simulation CPU 0 critical: IPC 0.01675 < 0.02
Simulation CPU 0 warning: IPC 0.034119 < 0.05
Simulation CPU 0 warning: IPC 0.038432 < 0.05
Simulation CPU 0 warning: IPC 0.03602 < 0.05
Simulation CPU 0 warning: IPC 0.037232 < 0.05
Simulation CPU 0 warning: IPC 0.031019 < 0.05
Simulation CPU 0 warning: IPC 0.024812 < 0.05
Simulation CPU 0 warning: IPC 0.046531 < 0.05
Simulation CPU 0 critical: IPC 0.01862 < 0.02
Heartbeat CPU 0 instructions: 1250000185 cycles: 36204421898 heartbeat IPC: 0.04556 cumulative IPC: 0.03453 (Simulation time: 01 hr 22 min 31 sec)
Simulation CPU 0 critical: IPC 0.014708 < 0.02
Simulation CPU 0 critical: IPC 0.01322 < 0.02
Simulation CPU 0 warning: IPC 0.030292 < 0.05
Simulation CPU 0 warning: IPC 0.030108 < 0.05
Simulation CPU 0 panic: IPC 0.0062047 < 0.01
Simulation CPU 0 warning: IPC 0.045857 < 0.05
Simulation CPU 0 critical: IPC 0.010666 < 0.02
Simulation CPU 0 warning: IPC 0.038898 < 0.05
Heartbeat CPU 0 instructions: 1260000185 cycles: 36405359746 heartbeat IPC: 0.04977 cumulative IPC: 0.03461 (Simulation time: 01 hr 38 min 38 sec)
Simulation CPU 0 warning: IPC 0.047673 < 0.05
Simulation CPU 0 warning: IPC 0.023666 < 0.05
Simulation CPU 0 warning: IPC 0.031017 < 0.05
Simulation CPU 0 warning: IPC 0.041197 < 0.05
Simulation CPU 0 panic: IPC 0.0095642 < 0.01
Simulation CPU 0 panic: IPC 0.00904 < 0.01
Simulation CPU 0 critical: IPC 0.012833 < 0.02
Simulation CPU 0 warning: IPC 0.027908 < 0.05
Simulation CPU 0 warning: IPC 0.036337 < 0.05
Simulation CPU 0 warning: IPC 0.029734 < 0.05
Simulation CPU 0 warning: IPC 0.047373 < 0.05
Simulation CPU 0 critical: IPC 0.01236 < 0.02
Simulation CPU 0 warning: IPC 0.024862 < 0.05
Simulation CPU 0 warning: IPC 0.035154 < 0.05
Simulation CPU 0 warning: IPC 0.029543 < 0.05
Simulation CPU 0 warning: IPC 0.029995 < 0.05
Simulation CPU 0 warning: IPC 0.031023 < 0.05
Simulation CPU 0 panic: IPC 0.0093124 < 0.01
Simulation CPU 0 critical: IPC 0.014757 < 0.02
Heartbeat CPU 0 instructions: 1270000185 cycles: 36661780359 heartbeat IPC: 0.039 cumulative IPC: 0.03464 (Simulation time: 02 hr 01 min 05 sec)
Simulation CPU 0 warning: IPC 0.02877 < 0.05
[ERROR_CYCLE] Error added at CPU cycle 36676848780, interval 52, pending count: 1
Simulation CPU 0 critical: IPC 0.018615 < 0.02
[DRAM_CYCLE_ERROR] Cycle-based error applied! address=0xa7605570 additional_latency=2459910500 cycles
Simulation CPU 0 panic: IPC 0 < 0.01
Simulation CPU 0 panic: IPC 0.0031048 < 0.01
Simulation CPU 0 panic: IPC 0.0093295 < 0.01
Simulation CPU 0 panic: IPC 0.003103 < 0.01
Simulation CPU 0 panic: IPC 0.009336 < 0.01
Simulation CPU 0 warning: IPC 0.02729 < 0.05
Simulation CPU 0 warning: IPC 0.022339 < 0.05
Simulation CPU 0 panic: IPC 0.0053631 < 0.01
Simulation CPU 0 warning: IPC 0.022543 < 0.05
Simulation CPU 0 critical: IPC 0.018436 < 0.02
Simulation CPU 0 warning: IPC 0.02811 < 0.05
Simulation CPU 0 warning: IPC 0.031822 < 0.05
Simulation CPU 0 warning: IPC 0.036392 < 0.05
Simulation CPU 0 warning: IPC 0.023085 < 0.05
Simulation CPU 0 panic: IPC 0.0071085 < 0.01
Simulation CPU 0 critical: IPC 0.011503 < 0.02
Simulation CPU 0 warning: IPC 0.033833 < 0.05
Simulation CPU 0 warning: IPC 0.046071 < 0.05
Simulation CPU 0 panic: IPC 0.0066397 < 0.01
Simulation CPU 0 warning: IPC 0.046519 < 0.05
Simulation CPU 0 warning: IPC 0.030957 < 0.05
Simulation CPU 0 critical: IPC 0.015595 < 0.02
Simulation CPU 0 panic: IPC 0.0062094 < 0.01
Simulation CPU 0 warning: IPC 0.027929 < 0.05
Simulation CPU 0 warning: IPC 0.027936 < 0.05
Simulation CPU 0 panic: IPC 0.0036386 < 0.01
Simulation CPU 0 warning: IPC 0.0296 < 0.05
Simulation CPU 0 warning: IPC 0.029962 < 0.05
Simulation CPU 0 warning: IPC 0.029529 < 0.05
Heartbeat CPU 0 instructions: 1280000186 cycles: 37020494710 heartbeat IPC: 0.02788 cumulative IPC: 0.03458 (Simulation time: 02 hr 29 min 59 sec)
Simulation CPU 0 warning: IPC 0.046844 < 0.05
Simulation CPU 0 warning: IPC 0.038122 < 0.05
Simulation CPU 0 panic: IPC 0.0044143 < 0.01
Simulation CPU 0 warning: IPC 0.029951 < 0.05
Simulation CPU 0 panic: IPC 0.0079376 < 0.01
Simulation CPU 0 warning: IPC 0.04477 < 0.05
Simulation CPU 0 warning: IPC 0.042983 < 0.05
Simulation CPU 0 panic: IPC 0.001777 < 0.01
Simulation CPU 0 panic: IPC 0.0007591 < 0.01
Simulation CPU 0 critical: IPC 0.018605 < 0.02
Simulation CPU 0 panic: IPC 0.0062047 < 0.01
Simulation CPU 0 panic: IPC 0.0043953 < 0.01
Simulation CPU 0 critical: IPC 0.018605 < 0.02
Simulation CPU 0 warning: IPC 0.040319 < 0.05
Simulation CPU 0 panic: IPC 0.006215 < 0.01
Simulation CPU 0 critical: IPC 0.012405 < 0.02
Simulation CPU 0 critical: IPC 0.017524 < 0.02
Simulation CPU 0 warning: IPC 0.039207 < 0.05
Simulation CPU 0 warning: IPC 0.020297 < 0.05
Simulation CPU 0 warning: IPC 0.029634 < 0.05
Simulation CPU 0 warning: IPC 0.029596 < 0.05
Simulation CPU 0 warning: IPC 0.049825 < 0.05
Simulation CPU 0 critical: IPC 0.015125 < 0.02
Simulation CPU 0 warning: IPC 0.034483 < 0.05
Simulation CPU 0 panic: IPC 0.0069572 < 0.01
Simulation CPU 0 warning: IPC 0.031006 < 0.05
Simulation CPU 0 critical: IPC 0.019899 < 0.02
Simulation CPU 0 warning: IPC 0.029712 < 0.05
Simulation CPU 0 warning: IPC 0.029907 < 0.05
Heartbeat CPU 0 instructions: 1290000186 cycles: 37360165264 heartbeat IPC: 0.02944 cumulative IPC: 0.03453 (Simulation time: 02 hr 55 min 29 sec)
Simulation CPU 0 warning: IPC 0.029032 < 0.05
Simulation CPU 0 warning: IPC 0.030502 < 0.05
[ERROR_CYCLE] Error added at CPU cycle 37382172795, interval 53, pending count: 1
[DRAM_CYCLE_ERROR] Cycle-based error applied! address=0x1a3a42958 additional_latency=2459910500 cycles
Simulation CPU 0 panic: IPC 0 < 0.01
Simulation CPU 0 panic: IPC 0.0061598 < 0.01
Simulation CPU 0 critical: IPC 0.018609 < 0.02
Simulation CPU 0 panic: IPC 0.0084972 < 0.01
Simulation CPU 0 warning: IPC 0.041113 < 0.05
Simulation CPU 0 warning: IPC 0.037213 < 0.05
Simulation CPU 0 panic: IPC 0.0013975 < 0.01
Simulation CPU 0 panic: IPC 0.0031006 < 0.01
Simulation CPU 0 warning: IPC 0.033122 < 0.05
Simulation CPU 0 critical: IPC 0.016181 < 0.02
Simulation CPU 0 warning: IPC 0.03653 < 0.05
Simulation CPU 0 warning: IPC 0.046356 < 0.05
Heartbeat CPU 0 instructions: 1300000190 cycles: 37608001043 heartbeat IPC: 0.04035 cumulative IPC: 0.03457 (Simulation time: 03 hr 14 min 46 sec)
Simulation CPU 0 critical: IPC 0.01798 < 0.02
Simulation CPU 0 critical: IPC 0.019229 < 0.02
Simulation CPU 0 critical: IPC 0.012417 < 0.02
Simulation CPU 0 warning: IPC 0.024813 < 0.05
Simulation CPU 0 warning: IPC 0.021705 < 0.05
Simulation CPU 0 panic: IPC 0.0093102 < 0.01
Simulation CPU 0 warning: IPC 0.022939 < 0.05
Simulation CPU 0 warning: IPC 0.032882 < 0.05
Simulation CPU 0 panic: IPC 0.0031042 < 0.01
Simulation CPU 0 warning: IPC 0.033745 < 0.05
Simulation CPU 0 panic: IPC 0.0062063 < 0.01
Simulation CPU 0 warning: IPC 0.027921 < 0.05
Simulation CPU 0 critical: IPC 0.014747 < 0.02
Simulation CPU 0 critical: IPC 0.013182 < 0.02
Simulation CPU 0 warning: IPC 0.02173 < 0.05
Simulation CPU 0 panic: IPC 0.0031054 < 0.01
Simulation CPU 0 warning: IPC 0.027915 < 0.05
Simulation CPU 0 warning: IPC 0.035925 < 0.05
Simulation CPU 0 critical: IPC 0.016786 < 0.02
Simulation CPU 0 critical: IPC 0.010416 < 0.02
Simulation CPU 0 panic: IPC 0.0093018 < 0.01
Simulation CPU 0 panic: IPC 0.0093018 < 0.01
Simulation CPU 0 warning: IPC 0.040316 < 0.05
Simulation CPU 0 panic: IPC 0.0093018 < 0.01
Simulation CPU 0 warning: IPC 0.034117 < 0.05
Simulation CPU 0 panic: IPC 0.0062042 < 0.01
Heartbeat CPU 0 instructions: 1310000190 cycles: 37947649071 heartbeat IPC: 0.02944 cumulative IPC: 0.03452 (Simulation time: 03 hr 36 min 36 sec)
Simulation CPU 0 warning: IPC 0.04862 < 0.05
Simulation CPU 0 panic: IPC 0.0040989 < 0.01
Simulation CPU 0 critical: IPC 0.014177 < 0.02
Simulation CPU 0 warning: IPC 0.038526 < 0.05
Simulation CPU 0 warning: IPC 0.044831 < 0.05
Simulation CPU 0 critical: IPC 0.014089 < 0.02
Simulation CPU 0 critical: IPC 0.017102 < 0.02
Simulation CPU 0 warning: IPC 0.022427 < 0.05
Simulation CPU 0 warning: IPC 0.04263 < 0.05
Simulation CPU 0 warning: IPC 0.024913 < 0.05
Simulation CPU 0 warning: IPC 0.027924 < 0.05
Simulation CPU 0 critical: IPC 0.015514 < 0.02
[ERROR_CYCLE] Error added at CPU cycle 38087496811, interval 54, pending count: 1
[DRAM_CYCLE_ERROR] Cycle-based error applied! address=0x469698780 additional_latency=2459910500 cycles
Simulation CPU 0 panic: IPC 0 < 0.01
Simulation CPU 0 panic: IPC 0.0031018 < 0.01
Simulation CPU 0 panic: IPC 0.0062078 < 0.01
Simulation CPU 0 warning: IPC 0.040312 < 0.05
Simulation CPU 0 critical: IPC 0.010557 < 0.02
Simulation CPU 0 critical: IPC 0.01115 < 0.02
Simulation CPU 0 warning: IPC 0.031019 < 0.05
Simulation CPU 0 panic: IPC 0.0031006 < 0.01
Simulation CPU 0 critical: IPC 0.012432 < 0.02
Simulation CPU 0 critical: IPC 0.012075 < 0.02
Simulation CPU 0 panic: IPC 0.0003356 < 0.01
Simulation CPU 0 critical: IPC 0.012406 < 0.02
Simulation CPU 0 critical: IPC 0.012386 < 0.02
Simulation CPU 0 warning: IPC 0.027932 < 0.05
Simulation CPU 0 critical: IPC 0.012408 < 0.02
Simulation CPU 0 warning: IPC 0.042489 < 0.05
Simulation CPU 0 warning: IPC 0.025733 < 0.05
Simulation CPU 0 warning: IPC 0.021719 < 0.05
Simulation CPU 0 warning: IPC 0.024811 < 0.05
Simulation CPU 0 panic: IPC 0.003111 < 0.01
Heartbeat CPU 0 instructions: 1320000190 cycles: 38324852741 heartbeat IPC: 0.02651 cumulative IPC: 0.03444 (Simulation time: 04 hr 02 min 58 sec)
Simulation CPU 0 panic: IPC 0.0093193 < 0.01
Simulation CPU 0 panic: IPC 0.0062054 < 0.01
Simulation CPU 0 critical: IPC 0.018628 < 0.02
Simulation CPU 0 critical: IPC 0.015508 < 0.02
Simulation CPU 0 warning: IPC 0.043411 < 0.05
Simulation CPU 0 panic: IPC 0.0067031 < 0.01
Simulation CPU 0 warning: IPC 0.030518 < 0.05
Simulation CPU 0 panic: IPC 0.0062102 < 0.01
Simulation CPU 0 critical: IPC 0.018607 < 0.02
Simulation CPU 0 panic: IPC 0.0085873 < 0.01
Simulation CPU 0 critical: IPC 0.016237 < 0.02
Simulation CPU 0 warning: IPC 0.021749 < 0.05
Simulation CPU 0 warning: IPC 0.021705 < 0.05
Simulation CPU 0 critical: IPC 0.012407 < 0.02
Simulation CPU 0 warning: IPC 0.03413 < 0.05
Simulation CPU 0 critical: IPC 0.017884 < 0.02
Simulation CPU 0 warning: IPC 0.034844 < 0.05
Simulation CPU 0 critical: IPC 0.015562 < 0.02
Simulation CPU 0 panic: IPC 0.0031006 < 0.01
Simulation CPU 0 warning: IPC 0.027911 < 0.05
Simulation CPU 0 warning: IPC 0.039553 < 0.05
Simulation CPU 0 warning: IPC 0.034873 < 0.05
Simulation CPU 0 warning: IPC 0.026931 < 0.05
Simulation CPU 0 critical: IPC 0.010301 < 0.02
Simulation CPU 0 warning: IPC 0.034131 < 0.05
Simulation CPU 0 warning: IPC 0.049611 < 0.05
Simulation CPU 0 warning: IPC 0.020107 < 0.05
Simulation CPU 0 panic: IPC 0.0016013 < 0.01
Simulation CPU 0 panic: IPC 0.0062276 < 0.01
Simulation CPU 0 panic: IPC 0.0062148 < 0.01
Simulation CPU 0 warning: IPC 0.030684 < 0.05
Simulation CPU 0 panic: IPC 0.0093029 < 0.01
Simulation CPU 0 warning: IPC 0.036873 < 0.05
Simulation CPU 0 warning: IPC 0.028245 < 0.05
Simulation CPU 0 warning: IPC 0.048867 < 0.05
Simulation CPU 0 warning: IPC 0.044154 < 0.05
Simulation CPU 0 critical: IPC 0.015504 < 0.02
Simulation CPU 0 critical: IPC 0.018611 < 0.02
Simulation CPU 0 panic: IPC 0.0031018 < 0.01
Simulation CPU 0 panic: IPC 0.009301 < 0.01
Simulation CPU 0 warning: IPC 0.046535 < 0.05
Heartbeat CPU 0 instructions: 1330000190 cycles: 38747596378 heartbeat IPC: 0.02365 cumulative IPC: 0.03432 (Simulation time: 04 hr 36 min 23 sec)
Simulation CPU 0 warning: IPC 0.03101 < 0.05
Simulation CPU 0 critical: IPC 0.015524 < 0.02
Simulation CPU 0 warning: IPC 0.027906 < 0.05
Simulation CPU 0 critical: IPC 0.011191 < 0.02
[ERROR_CYCLE] Error added at CPU cycle 38792820826, interval 55, pending count: 1
[DRAM_CYCLE_ERROR] Cycle-based error applied! address=0x9246f7b8 additional_latency=2459910500 cycles
Simulation CPU 0 panic: IPC 0 < 0.01
Simulation CPU 0 warning: IPC 0.027911 < 0.05
Simulation CPU 0 warning: IPC 0.027922 < 0.05
Simulation CPU 0 warning: IPC 0.02996 < 0.05
Simulation CPU 0 warning: IPC 0.041406 < 0.05
Simulation CPU 0 warning: IPC 0.048706 < 0.05
Simulation CPU 0 warning: IPC 0.031924 < 0.05
Simulation CPU 0 warning: IPC 0.048599 < 0.05
Simulation CPU 0 warning: IPC 0.038215 < 0.05
Simulation CPU 0 warning: IPC 0.034161 < 0.05
Simulation CPU 0 critical: IPC 0.012024 < 0.02
Simulation CPU 0 panic: IPC 0.0069541 < 0.01
Simulation CPU 0 warning: IPC 0.045547 < 0.05
Heartbeat CPU 0 instructions: 1340000190 cycles: 38986188267 heartbeat IPC: 0.04191 cumulative IPC: 0.03437 (Simulation time: 04 hr 54 min 28 sec)
Simulation CPU 0 warning: IPC 0.037172 < 0.05
Simulation CPU 0 warning: IPC 0.046575 < 0.05
Simulation CPU 0 warning: IPC 0.034139 < 0.05
Simulation CPU 0 critical: IPC 0.018613 < 0.02
Simulation CPU 0 warning: IPC 0.02795 < 0.05
Simulation CPU 0 warning: IPC 0.024829 < 0.05
Heartbeat CPU 0 instructions: 1350000192 cycles: 39168733397 heartbeat IPC: 0.05478 cumulative IPC: 0.03447 (Simulation time: 05 hr 09 min 37 sec)
Simulation CPU 0 cri