
*** ChampSim Multicore Out-of-Order Simulator ***
Warmup Instructions: 0
Simulation Instructions: 9223372036854775807
Number of CPUs: 1
Page size: 1048576

Off-chip DRAM Size: 128 GiB Channels: 2 Width: 32-bit Data Rate: 4807 MT/s
[ERROR_PAGE_MANAGER] Error latency: 2459910500 
[ERROR_PAGE_MANAGER] Random seed: 54321 (fixed for preload reproducibility)
[ERROR_PAGE_MANAGER] Cycle-based error modeling enabled
[ERROR_PAGE_MANAGER] Errors per interval: 1
[ERROR_PAGE_MANAGER] Error cycle interval: 257630478 cycles

=== ERROR PAGE STATISTICS ===
Mode: CYCLE
Error Cycle Interval: 257630478 CPU cycles
Total Error Accesses: 0
==============================
Warmup finished CPU 0 instructions: 0 cycles: 1 cumulative IPC: 0 (Simulation time: 00 hr 00 min 00 sec)
Warmup complete CPU 0 instructions: 0 cycles: 1 cumulative IPC: 0 (Simulation time: 00 hr 00 min 00 sec)
Simulation CPU 0 panic: IPC 0 < 0.01
Simulation CPU 0 panic: IPC 1e-07 < 0.01
Simulation CPU 0 panic: IPC 0 < 0.01
Simulation CPU 0 panic: IPC 2e-07 < 0.01
Simulation CPU 0 panic: IPC 6e-07 < 0.01
Simulation CPU 0 panic: IPC 1.07e-05 < 0.01
Simulation CPU 0 panic: IPC 0.0061264 < 0.01
Simulation CPU 0 panic: IPC 1.4e-06 < 0.01
Simulation CPU 0 panic: IPC 0 < 0.01
Heartbeat CPU 0 instructions: 10000000 cycles: 120203682 heartbeat IPC: 0.08319 cumulative IPC: 0.08319 (Simulation time: 00 hr 11 min 57 sec)
Heartbeat CPU 0 instructions: 20000000 cycles: 138789290 heartbeat IPC: 0.5381 cumulative IPC: 0.1441 (Simulation time: 00 hr 14 min 12 sec)
Heartbeat CPU 0 instructions: 30000000 cycles: 157374067 heartbeat IPC: 0.5381 cumulative IPC: 0.1906 (Simulation time: 00 hr 16 min 26 sec)
Heartbeat CPU 0 instructions: 40000001 cycles: 175997337 heartbeat IPC: 0.537 cumulative IPC: 0.2273 (Simulation time: 00 hr 18 min 27 sec)
Simulation CPU 0 panic: IPC 4.15e-05 < 0.01
Simulation CPU 0 panic: IPC 2e-07 < 0.01
Simulation CPU 0 panic: IPC 1.6e-06 < 0.01
Simulation CPU 0 panic: IPC 3.11e-05 < 0.01
Simulation CPU 0 panic: IPC 0.0013632 < 0.01
Simulation CPU 0 panic: IPC 0.0019924 < 0.01
Simulation CPU 0 warning: IPC 0.045785 < 0.05
[ERROR_CYCLE] Error added at CPU cycle 257630478, interval 1, pending count: 1
[DRAM_CYCLE_ERROR] Cycle-based error applied! address=0x1959c24a68 additional_latency=2459910500 cycles
Simulation CPU 0 critical: IPC 0.011859 < 0.02
Simulation CPU 0 panic: IPC 0 < 0.01
Simulation CPU 0 warning: IPC 0.021961 < 0.05
Simulation CPU 0 panic: IPC 0.0084677 < 0.01
Simulation CPU 0 warning: IPC 0.020324 < 0.05
Simulation CPU 0 warning: IPC 0.045785 < 0.05
Simulation CPU 0 critical: IPC 0.011859 < 0.02
Simulation CPU 0 warning: IPC 0.021961 < 0.05
Simulation CPU 0 panic: IPC 0.0078003 < 0.01
Simulation CPU 0 warning: IPC 0.020087 < 0.05
Simulation CPU 0 warning: IPC 0.046547 < 0.05
Simulation CPU 0 critical: IPC 0.015698 < 0.02
Simulation CPU 0 critical: IPC 0.018264 < 0.02
Simulation CPU 0 panic: IPC 0.006774 < 0.01
Simulation CPU 0 warning: IPC 0.020324 < 0.05
Simulation CPU 0 warning: IPC 0.046069 < 0.05
Simulation CPU 0 critical: IPC 0.012661 < 0.02
Simulation CPU 0 warning: IPC 0.022568 < 0.05
Simulation CPU 0 panic: IPC 4.77e-05 < 0.01
Simulation CPU 0 panic: IPC 0.0067263 < 0.01
Simulation CPU 0 critical: IPC 0.015004 < 0.02
Simulation CPU 0 panic: IPC 0.0053204 < 0.01
Simulation CPU 0 warning: IPC 0.045787 < 0.05
Simulation CPU 0 critical: IPC 0.01185 < 0.02
Simulation CPU 0 warning: IPC 0.02261 < 0.05
Simulation CPU 0 panic: IPC 0.0078242 < 0.01
[ERROR_CYCLE] Error added at CPU cycle 515260956, interval 2, pending count: 1
[DRAM_CYCLE_ERROR] Cycle-based error applied! address=0x1959c3e9d8 additional_latency=2459910500 cycles
Simulation CPU 0 warning: IPC 0.020324 < 0.05
Simulation CPU 0 panic: IPC 0 < 0.01
Simulation CPU 0 warning: IPC 0.045787 < 0.05
Simulation CPU 0 critical: IPC 0.01185 < 0.02
Simulation CPU 0 warning: IPC 0.021967 < 0.05
Heartbeat CPU 0 instructions: 50000005 cycles: 561703465 heartbeat IPC: 0.02593 cumulative IPC: 0.08901 (Simulation time: 01 hr 03 min 06 sec)
Simulation CPU 0 panic: IPC 0.0084677 < 0.01
Simulation CPU 0 warning: IPC 0.020324 < 0.05
Simulation CPU 0 warning: IPC 0.045787 < 0.05
Simulation CPU 0 critical: IPC 0.01185 < 0.02
Simulation CPU 0 warning: IPC 0.021967 < 0.05
Simulation CPU 0 panic: IPC 0.0082425 < 0.01
Simulation CPU 0 warning: IPC 0.020087 < 0.05
Simulation CPU 0 warning: IPC 0.04625 < 0.05
Simulation CPU 0 critical: IPC 0.01185 < 0.02
Simulation CPU 0 critical: IPC 0.018687 < 0.02
Simulation CPU 0 panic: IPC 0.0032803 < 0.01
Simulation CPU 0 warning: IPC 0.027099 < 0.05
Simulation CPU 0 panic: IPC 0 < 0.01
Simulation CPU 0 panic: IPC 0.0001128 < 0.01
Simulation CPU 0 critical: IPC 0.011824 < 0.02
Simulation CPU 0 critical: IPC 0.018933 < 0.02
Simulation CPU 0 panic: IPC 0.0074089 < 0.01
Simulation CPU 0 critical: IPC 0.018913 < 0.02
Simulation CPU 0 panic: IPC 0.0073801 < 0.01
Simulation CPU 0 critical: IPC 0.018655 < 0.02
Simulation CPU 0 panic: IPC 0.0073801 < 0.01
[ERROR_CYCLE] Error added at CPU cycle 772891435, interval 3, pending count: 1
[DRAM_CYCLE_ERROR] Cycle-based error applied! address=0x1959c58078 additional_latency=2459910500 cycles
Simulation CPU 0 panic: IPC 0 < 0.01
Simulation CPU 0 critical: IPC 0.018878 < 0.02
Simulation CPU 0 panic: IPC 0.0074089 < 0.01
Simulation CPU 0 critical: IPC 0.018933 < 0.02
Simulation CPU 0 panic: IPC 0.0074089 < 0.01
Simulation CPU 0 critical: IPC 0.018933 < 0.02
Simulation CPU 0 panic: IPC 0.0074089 < 0.01
Simulation CPU 0 critical: IPC 0.018933 < 0.02
Simulation CPU 0 panic: IPC 0.0074089 < 0.01
Simulation CPU 0 critical: IPC 0.014883 < 0.02
Simulation CPU 0 warning: IPC 0.049833 < 0.05
Heartbeat CPU 0 instructions: 60000005 cycles: 890138616 heartbeat IPC: 0.03045 cumulative IPC: 0.06741 (Simulation time: 01 hr 40 min 33 sec)
Heartbeat CPU 0 instructions: 70000008 cycles: 899447308 heartbeat IPC: 1.074 cumulative IPC: 0.07783 (Simulation time: 01 hr 41 min 29 sec)
Heartbeat CPU 0 instructions: 80000011 cycles: 908764581 heartbeat IPC: 1.073 cumulative IPC: 0.08803 (Simulation time: 01 hr 42 min 39 sec)
Heartbeat CPU 0 instructions: 90000011 cycles: 918075238 heartbeat IPC: 1.074 cumulative IPC: 0.09803 (Simulation time: 01 hr 43 min 50 sec)
Heartbeat CPU 0 instructions: 100000014 cycles: 927383582 heartbeat IPC: 1.074 cumulative IPC: 0.1078 (Simulation time: 01 hr 44 min 47 sec)
Heartbeat CPU 0 instructions: 110000014 cycles: 936697857 heartbeat IPC: 1.074 cumulative IPC: 0.1174 (Simulation time: 01 hr 45 min 58 sec)
Simulation CPU 0 critical: IPC 0.012667 < 0.02
Simulation CPU 0 critical: IPC 0.012124 < 0.02
Heartbeat CPU 0 instructions: 120000018 cycles: 994431589 heartbeat IPC: 0.1732 cumulative IPC: 0.1207 (Simulation time: 01 hr 51 min 59 sec)
Simulation CPU 0 critical: IPC 0.011851 < 0.02
Simulation CPU 0 panic: IPC 0.0076457 < 0.01
Simulation CPU 0 critical: IPC 0.011851 < 0.02
[ERROR_CYCLE] Error added at CPU cycle 1030521912, interval 4, pending count: 1
[DRAM_CYCLE_ERROR] Cycle-based error applied! address=0x8f9b01580 additional_latency=2459910500 cycles
Simulation CPU 0 panic: IPC 0.0003066 < 0.01
Simulation CPU 0 critical: IPC 0.011851 < 0.02
Simulation CPU 0 critical: IPC 0.012378 < 0.02
Simulation CPU 0 critical: IPC 0.012571 < 0.02
Simulation CPU 0 panic: IPC 0.0036025 < 0.01
Simulation CPU 0 critical: IPC 0.011859 < 0.02
Simulation CPU 0 warning: IPC 0.02618 < 0.05
Simulation CPU 0 warning: IPC 0.026342 < 0.05
Simulation CPU 0 warning: IPC 0.026342 < 0.05
Simulation CPU 0 warning: IPC 0.026342 < 0.05
Simulation CPU 0 warning: IPC 0.0262 < 0.05
Simulation CPU 0 warning: IPC 0.026073 < 0.05
Simulation CPU 0 warning: IPC 0.026342 < 0.05
Heartbeat CPU 0 instructions: 130000019 cycles: 1216176236 heartbeat IPC: 0.0451 cumulative IPC: 0.1069 (Simulation time: 02 hr 16 min 37 sec)
Heartbeat CPU 0 instructions: 140000019 cycles: 1225486141 heartbeat IPC: 1.074 cumulative IPC: 0.1142 (Simulation time: 02 hr 17 min 46 sec)
Heartbeat CPU 0 instructions: 150000019 cycles: 1234797219 heartbeat IPC: 1.074 cumulative IPC: 0.1215 (Simulation time: 02 hr 18 min 56 sec)
Heartbeat CPU 0 instructions: 160000020 cycles: 1244107437 heartbeat IPC: 1.074 cumulative IPC: 0.1286 (Simulation time: 02 hr 19 min 58 sec)
Heartbeat CPU 0 instructions: 170000020 cycles: 1253418875 heartbeat IPC: 1.074 cumulative IPC: 0.1356 (Simulation time: 02 hr 21 min 00 sec)
Heartbeat CPU 0 instructions: 180000023 cycles: 1262730090 heartbeat IPC: 1.074 cumulative IPC: 0.1425 (Simulation time: 02 hr 22 min 01 sec)
Heartbeat CPU 0 instructions: 190000026 cycles: 1272040825 heartbeat IPC: 1.074 cumulative IPC: 0.1494 (Simulation time: 02 hr 23 min 09 sec)
[ERROR_CYCLE] Error added at CPU cycle 1288152391, interval 5, pending count: 1
Simulation CPU 0 critical: IPC 0.011851 < 0.02
[DRAM_CYCLE_ERROR] Cycle-based error applied! address=0x1c6e401148 additional_latency=2459910500 cycles
Simulation CPU 0 panic: IPC 9e-05 < 0.01
Simulation CPU 0 critical: IPC 0.011851 < 0.02
Simulation CPU 0 panic: IPC 0.0061422 < 0.01
Simulation CPU 0 panic: IPC 0.0057881 < 0.01
Simulation CPU 0 critical: IPC 0.012659 < 0.02
Simulation CPU 0 critical: IPC 0.011859 < 0.02
Simulation CPU 0 critical: IPC 0.011859 < 0.02
Simulation CPU 0 panic: IPC 0.0027398 < 0.01
Simulation CPU 0 panic: IPC 0.0091217 < 0.01
Simulation CPU 0 critical: IPC 0.011859 < 0.02
Heartbeat CPU 0 instructions: 200000030 cycles: 1474607106 heartbeat IPC: 0.04937 cumulative IPC: 0.1356 (Simulation time: 02 hr 46 min 18 sec)
Simulation CPU 0 warning: IPC 0.026342 < 0.05
Simulation CPU 0 warning: IPC 0.026308 < 0.05
Simulation CPU 0 warning: IPC 0.026035 < 0.05
Simulation CPU 0 warning: IPC 0.026273 < 0.05
Simulation CPU 0 warning: IPC 0.026342 < 0.05
Simulation CPU 0 warning: IPC 0.026342 < 0.05
Simulation CPU 0 warning: IPC 0.026342 < 0.05
[ERROR_CYCLE] Error added at CPU cycle 1545782868, interval 6, pending count: 1
[DRAM_CYCLE_ERROR] Cycle-based error applied! address=0x896261240 additional_latency=2459910500 cycles
Heartbeat CPU 0 instructions: 210000030 cycles: 1561455723 heartbeat IPC: 0.1151 cumulative IPC: 0.1345 (Simulation time: 02 hr 56 min 00 sec)
Heartbeat CPU 0 instructions: 220000033 cycles: 1570765057 heartbeat IPC: 1.074 cumulative IPC: 0.1401 (Simulation time: 02 hr 57 min 12 sec)
Heartbeat CPU 0 instructions: 230000036 cycles: 1580083954 heartbeat IPC: 1.073 cumulative IPC: 0.1456 (Simulation time: 02 hr 58 min 18 sec)
Heartbeat CPU 0 instructions: 240000039 cycles: 1589396278 heartbeat IPC: 1.074 cumulative IPC: 0.151 (Simulation time: 02 hr 59 min 16 sec)
Heartbeat CPU 0 instructions: 250000039 cycles: 1598706833 heartbeat IPC: 1.074 cumulative IPC: 0.1564 (Simulation time: 03 hr 00 min 09 sec)
Heartbeat CPU 0 instructions: 260000039 cycles: 1608020525 heartbeat IPC: 1.074 cumulative IPC: 0.1617 (Simulation time: 03 hr 01 min 11 sec)
Simulation CPU 0 critical: IPC 0.012658 < 0.02
Simulation CPU 0 critical: IPC 0.012183 < 0.02
Simulation CPU 0 panic: IPC 0.0056663 < 0.01
Simulation CPU 0 critical: IPC 0.011862 < 0.02
Simulation CPU 0 critical: IPC 0.011859 < 0.02
Simulation CPU 0 critical: IPC 0.011859 < 0.02
Heartbeat CPU 0 instructions: 270000040 cycles: 1723565349 heartbeat IPC: 0.08655 cumulative IPC: 0.1567 (Simulation time: 03 hr 13 min 36 sec)
Simulation CPU 0 critical: IPC 0.012319 < 0.02
Simulation CPU 0 panic: IPC 0.0089976 < 0.01
Simulation CPU 0 critical: IPC 0.012622 < 0.02
Simulation CPU 0 critical: IPC 0.011856 < 0.02
[ERROR_CYCLE] Error added at CPU cycle 1803413346, interval 7, pending count: 1
[DRAM_CYCLE_ERROR] Cycle-based error applied! address=0x8e8a00010 additional_latency=2459910500 cycles
Simulation CPU 0 panic: IPC 0 < 0.01
Simulation CPU 0 warning: IPC 0.026166 < 0.05
Simulation CPU 0 warning: IPC 0.026342 < 0.05
Simulation CPU 0 warning: IPC 0.026342 < 0.05
Simulation CPU 0 warning: IPC 0.026342 < 0.05
Simulation CPU 0 warning: IPC 0.026215 < 0.05
Simulation CPU 0 warning: IPC 0.026058 < 0.05
Heartbeat CPU 0 instructions: 280000044 cycles: 1878520698 heartbeat IPC: 0.06453 cumulative IPC: 0.1491 (Simulation time: 03 hr 30 min 29 sec)
Heartbeat CPU 0 instructions: 290000047 cycles: 1887833062 heartbeat IPC: 1.074 cumulative IPC: 0.1536 (Simulation time: 03 hr 31 min 40 sec)
Heartbeat CPU 0 instructions: 300000048 cycles: 1897141318 heartbeat IPC: 1.074 cumulative IPC: 0.1581 (Simulation time: 03 hr 32 min 46 sec)
Heartbeat CPU 0 instructions: 310000050 cycles: 1906451848 heartbeat IPC: 1.074 cumulative IPC: 0.1626 (Simulation time: 03 hr 33 min 51 sec)
Heartbeat CPU 0 instructions: 320000054 cycles: 1915763831 heartbeat IPC: 1.074 cumulative IPC: 0.167 (Simulation time: 03 hr 34 min 52 sec)
Heartbeat CPU 0 instructions: 330000056 cycles: 1925074583 heartbeat IPC: 1.074 cumulative IPC: 0.1714 (Simulation time: 03 hr 35 min 58 sec)
Simulation CPU 0 critical: IPC 0.011859 < 0.02
Simulation CPU 0 critical: IPC 0.011859 < 0.02
Heartbeat CPU 0 instructions: 340000056 cycles: 1972587089 heartbeat IPC: 0.2105 cumulative IPC: 0.1724 (Simulation time: 03 hr 41 min 09 sec)
Simulation CPU 0 critical: IPC 0.019084 < 0.02
Simulation CPU 0 critical: IPC 0.011876 < 0.02
Simulation CPU 0 critical: IPC 0.012661 < 0.02
Simulation CPU 0 critical: IPC 0.011856 < 0.02
Simulation CPU 0 critical: IPC 0.011856 < 0.02
[ERROR_CYCLE] Error added at CPU cycle 2061043825, interval 8, pending count: 1
[DRAM_CYCLE_ERROR] Cycle-based error applied! address=0x1298700c88 additional_latency=2459910500 cycles
Simulation CPU 0 panic: IPC 0.000358 < 0.01
Simulation CPU 0 warning: IPC 0.022431 < 0.05
Simulation CPU 0 critical: IPC 0.011856 < 0.02
Simulation CPU 0 critical: IPC 0.011854 < 0.02
Heartbeat CPU 0 instructions: 350000056 cycles: 2130302265 heartbeat IPC: 0.06341 cumulative IPC: 0.1643 (Simulation time: 03 hr 58 min 35 sec)
Heartbeat CPU 0 instructions: 360000056 cycles: 2140611914 heartbeat IPC: 0.97 cumulative IPC: 0.1682 (Simulation time: 03 hr 59 min 44 sec)
Heartbeat CPU 0 instructions: 370000058 cycles: 2150925095 heartbeat IPC: 0.9696 cumulative IPC: 0.172 (Simulation time: 04 hr 00 min 51 sec)
Heartbeat CPU 0 instructions: 380000062 cycles: 2161245074 heartbeat IPC: 0.969 cumulative IPC: 0.1758 (Simulation time: 04 hr 01 min 45 sec)
Simulation CPU 0 critical: IPC 0.012668 < 0.02
Simulation CPU 0 critical: IPC 0.012244 < 0.02
Simulation CPU 0 warning: IPC 0.030838 < 0.05
Simulation CPU 0 critical: IPC 0.011856 < 0.02
Heartbeat CPU 0 instructions: 390000062 cycles: 2238441185 heartbeat IPC: 0.1295 cumulative IPC: 0.1742 (Simulation time: 04 hr 10 min 37 sec)
Simulation CPU 0 critical: IPC 0.011856 < 0.02
Simulation CPU 0 critical: IPC 0.011854 < 0.02
Simulation CPU 0 critical: IPC 0.017708 < 0.02
Simulation CPU 0 warning: IPC 0.034185 < 0.05
[ERROR_CYCLE] Error added at CPU cycle 2318674302, interval 9, pending count: 1
[DRAM_CYCLE_ERROR] Cycle-based error applied! address=0x16a4100000 additional_latency=2459910500 cycles
Simulation CPU 0 panic: IPC 0.0003705 < 0.01
Simulation CPU 0 critical: IPC 0.012296 < 0.02
Simulation CPU 0 critical: IPC 0.012582 < 0.02
Simulation CPU 0 critical: IPC 0.016376 < 0.02
Simulation CPU 0 panic: IPC 0.0001208 < 0.01
Simulation CPU 0 panic: IPC 0 < 0.01
Simulation CPU 0 panic: IPC 1.5e-06 < 0.01
Simulation CPU 0 panic: IPC 0.0031289 < 0.01
Simulation CPU 0 panic: IPC 0.0031304 < 0.01
Simulation CPU 0 panic: IPC 0.0031304 < 0.01
Simulation CPU 0 panic: IPC 0.0031304 < 0.01
Simulation CPU 0 panic: IPC 0.0031304 < 0.01
Simulation CPU 0 panic: IPC 0.0031304 < 0.01
Simulation CPU 0 panic: IPC 0.0031304 < 0.01
Simulation CPU 0 panic: IPC 0.0031304 < 0.01
Simulation CPU 0 panic: IPC 0.0062608 < 0.01
Simulation CPU 0 panic: IPC 0.0031304 < 0.01
Simulation CPU 0 panic: IPC 0.0031304 < 0.01
Simulation CPU 0 panic: IPC 0.0031304 < 0.01
Simulation CPU 0 panic: IPC 0.0031304 < 0.01
Simulation CPU 0 panic: IPC 0.0031304 < 0.01
Simulation CPU 0 panic: IPC 0.0031304 < 0.01
Simulation CPU 0 panic: IPC 0.0031304 < 0.01
Simulation CPU 0 panic: IPC 0.0031304 < 0.01
[ERROR_CYCLE] Error added at CPU cycle 2576304781, interval 10, pending count: 1
[DRAM_CYCLE_ERROR] Cycle-based error applied! address=0x1d3562c4e8 additional_latency=2459910500 cycles
Simulation CPU 0 panic: IPC 0.0031304 < 0.01
Simulation CPU 0 panic: IPC 0 < 0.01
Simulation CPU 0 panic: IPC 0.0031304 < 0.01
Simulation CPU 0 panic: IPC 0.0031304 < 0.01
Simulation CPU 0 panic: IPC 0.0031304 < 0.01
Simulation CPU 0 panic: IPC 0.0062608 < 0.01
Simulation CPU 0 panic: IPC 0.0031304 < 0.01
Simulation CPU 0 panic: IPC 0.0031304 < 0.01
Simulation CPU 0 panic: IPC 1.3e-06 < 0.01
Simulation CPU 0 panic: IPC 0.0031291 < 0.01
Simulation CPU 0 panic: IPC 0.0031304 < 0.01
Simulation CPU 0 panic: IPC 0.0062608 < 0.01
Simulation CPU 0 panic: IPC 0.0031304 < 0.01
Simulation CPU 0 panic: IPC 0.0031304 < 0.01
Simulation CPU 0 panic: IPC 0.0031304 < 0.01
Simulation CPU 0 panic: IPC 0.0031304 < 0.01
Simulation CPU 0 panic: IPC 0.0031304 < 0.01
Simulation CPU 0 panic: IPC 0.0031304 < 0.01
Simulation CPU 0 panic: IPC 0.0031304 < 0.01
Simulation CPU 0 panic: IPC 0.0031304 < 0.01
Simulation CPU 0 warning: IPC 0.041394 < 0.05
Simulation CPU 0 panic: IPC 0.0038988 < 0.01
Simulation CPU 0 panic: IPC 4.09e-05 < 0.01
Simulation CPU 0 panic: IPC 4.09e-05 < 0.01
Simulation CPU 0 panic: IPC 4.09e-05 < 0.01
Simulation CPU 0 panic: IPC 4.09e-05 < 0.01
[ERROR_CYCLE] Error added at CPU cycle 2833935258, interval 11, pending count: 1
[DRAM_CYCLE_ERROR] Cycle-based error applied! address=0x15e4669378 additional_latency=2459910500 cycles
Simulation CPU 0 panic: IPC 2.9e-06 < 0.01
Simulation CPU 0 panic: IPC 3.8e-05 < 0.01
Simulation CPU 0 panic: IPC 4.09e-05 < 0.01
Simulation CPU 0 panic: IPC 4.09e-05 < 0.01
Simulation CPU 0 panic: IPC 4.09e-05 < 0.01
Simulation CPU 0 panic: IPC 4.09e-05 < 0.01
Simulation CPU 0 panic: IPC 4.09e-05 < 0.01
Simulation CPU 0 panic: IPC 4.09e-05 < 0.01
Simulation CPU 0 panic: IPC 4.09e-05 < 0.01
Simulation CPU 0 panic: IPC 4.09e-05 < 0.01
Simulation CPU 0 panic: IPC 4.09e-05 < 0.01
Simulation CPU 0 panic: IPC 8.18e-05 < 0.01
Simulation CPU 0 panic: IPC 4.09e-05 < 0.01
Simulation CPU 0 panic: IPC 4.09e-05 < 0.01
Simulation CPU 0 panic: IPC 4.09e-05 < 0.01
Simulation CPU 0 panic: IPC 4.09e-05 < 0.01
Simulation CPU 0 panic: IPC 4.09e-05 < 0.01
Simulation CPU 0 panic: IPC 4.09e-05 < 0.01
Simulation CPU 0 panic: IPC 4.09e-05 < 0.01
Simulation CPU 0 panic: IPC 4.09e-05 < 0.01
Simulation CPU 0 panic: IPC 4.09e-05 < 0.01
Simulation CPU 0 panic: IPC 4.09e-05 < 0.01
Simulation CPU 0 panic: IPC 4.09e-05 < 0.01
Simulation CPU 0 panic: IPC 8.18e-05 < 0.01
Simulation CPU 0 panic: IPC 4.09e-05 < 0.01
Simulation CPU 0 panic: IPC 4.09e-05 < 0.01
[ERROR_CYCLE] Error added at CPU cycle 3091565736, interval 12, pending count: 1
[DRAM_CYCLE_ERROR] Cycle-based error applied! address=0x1d356d8e68 additional_latency=2459910500 cycles
Simulation CPU 0 panic: IPC 0 < 0.01
Simulation CPU 0 panic: IPC 4.09e-05 < 0.01
Simulation CPU 0 panic: IPC 4.09e-05 < 0.01
Simulation CPU 0 panic: IPC 4.09e-05 < 0.01
Simulation CPU 0 panic: IPC 4.09e-05 < 0.01
Simulation CPU 0 panic: IPC 4.09e-05 < 0.01
Simulation CPU 0 panic: IPC 4.09e-05 < 0.01
Simulation CPU 0 panic: IPC 4.09e-05 < 0.01
Simulation CPU 0 panic: IPC 4.09e-05 < 0.01
Heartbeat CPU 0 instructions: 400000062 cycles: 3182892995 heartbeat IPC: 0.01059 cumulative IPC: 0.1257 (Simulation time: 05 hr 54 min 58 sec)
Simulation CPU 0 warning: IPC 0.032731 < 0.05
Simulation CPU 0 panic: IPC 3.8e-05 < 0.01
Heartbeat CPU 0 instructions: 410000062 cycles: 3235887179 heartbeat IPC: 0.1887 cumulative IPC: 0.1267 (Simulation time: 06 hr 00 min 39 sec)
Simulation CPU 0 warning: IPC 0.03918 < 0.05
Heartbeat CPU 0 instructions: 420000064 cycles: 3270766773 heartbeat IPC: 0.2867 cumulative IPC: 0.1284 (Simulation time: 06 hr 04 min 48 sec)
Simulation CPU 0 warning: IPC 0.045619 < 0.05
Simulation CPU 0 warning: IPC 0.026382 < 0.05
Heartbeat CPU 0 instructions: 430000067 cycles: 3325550055 heartbeat IPC: 0.1825 cumulative IPC: 0.1293 (Simulation time: 06 hr 10 min 54 sec)
[ERROR_CYCLE] Error added at CPU cycle 3349196215, interval 13, pending count: 1
Simulation CPU 0 panic: IPC 9.6e-06 < 0.01
[DRAM_CYCLE_ERROR] Cycle-based error applied! address=0x1652500fb0 additional_latency=2459910500 cycles
Simulation CPU 0 panic: IPC 0 < 0.01
Simulation CPU 0 critical: IPC 0.01132 < 0.02
Simulation CPU 0 panic: IPC 9.6e-06 < 0.01
Simulation CPU 0 critical: IPC 0.011756 < 0.02
Simulation CPU 0 warning: IPC 0.034433 < 0.05
Simulation CPU 0 warning: IPC 0.045832 < 0.05
Simulation CPU 0 critical: IPC 0.012519 < 0.02
Heartbeat CPU 0 instructions: 440000067 cycles: 3455186669 heartbeat IPC: 0.07714 cumulative IPC: 0.1273 (Simulation time: 06 hr 24 min 15 sec)
Simulation CPU 0 critical: IPC 0.012519 < 0.02
Simulation CPU 0 panic: IPC 9.6e-06 < 0.01
Heartbeat CPU 0 instructions: 450000067 cycles: 3528421094 heartbeat IPC: 0.1365 cumulative IPC: 0.1275 (Simulation time: 06 hr 31 min 27 sec)
Simulation CPU 0 warning: IPC 0.039732 < 0.05
Simulation CPU 0 warning: IPC 0.032841 < 0.05
Simulation CPU 0 panic: IPC 9.6e-06 < 0.01
[ERROR_CYCLE] Error added at CPU cycle 3606826692, interval 14, pending count: 1
[DRAM_CYCLE_ERROR] Cycle-based error applied! address=0x414a00000 additional_latency=2459910500 cycles
Simulation CPU 0 panic: IPC 0 < 0.01
Simulation CPU 0 warning: IPC 0.034415 < 0.05
Heartbeat CPU 0 instructions: 460000069 cycles: 3630038151 heartbeat IPC: 0.09841 cumulative IPC: 0.1267 (Simulation time: 06 hr 43 min 17 sec)
Simulation CPU 0 warning: IPC 0.04551 < 0.05
Simulation CPU 0 warning: IPC 0.026491 < 0.05
Heartbeat CPU 0 instructions: 470000073 cycles: 3684858416 heartbeat IPC: 0.1824 cumulative IPC: 0.1275 (Simulation time: 06 hr 49 min 53 sec)
Simulation CPU 0 warning: IPC 0.045492 < 0.05
Simulation CPU 0 panic: IPC 9.6e-06 < 0.01
Simulation CPU 0 panic: IPC 9.6e-06 < 0.01
Simulation CPU 0 critical: IPC 0.011866 < 0.02
Simulation CPU 0 warning: IPC 0.034433 < 0.05
Simulation CPU 0 warning: IPC 0.045723 < 0.05
Simulation CPU 0 critical: IPC 0.019129 < 0.02
Heartbeat CPU 0 instructions: 480000074 cycles: 3804422616 heartbeat IPC: 0.08364 cumulative IPC: 0.1262 (Simulation time: 07 hr 02 min 07 sec)
Simulation CPU 0 critical: IPC 0.012519 < 0.02
Simulation CPU 0 critical: IPC 0.012519 < 0.02
[ERROR_CYCLE] Error added at CPU cycle 3864457171, interval 15, pending count: 1
[DRAM_CYCLE_ERROR] Cycle-based error applied! address=0xd3a800000 additional_latency=2459910500 cycles
Simulation CPU 0 panic: IPC 0 < 0.01
Heartbeat CPU 0 instructions: 490000074 cycles: 3897028199 heartbeat IPC: 0.108 cumulative IPC: 0.1257 (Simulation time: 07 hr 11 min 55 sec)
Simulation CPU 0 panic: IPC 9.6e-06 < 0.01
Simulation CPU 0 warning: IPC 0.032951 < 0.05
Simulation CPU 0 warning: IPC 0.048571 < 0.05
Simulation CPU 0 panic: IPC 9.6e-06 < 0.01
Simulation CPU 0 warning: IPC 0.034433 < 0.05
Heartbeat CPU 0 instructions: 500000076 cycles: 4007208401 heartbeat IPC: 0.09076 cumulative IPC: 0.1248 (Simulation time: 07 hr 21 min 59 sec)
Simulation CPU 0 warning: IPC 0.0454 < 0.05
Simulation CPU 0 warning: IPC 0.026601 < 0.05
Heartbeat CPU 0 instructions: 510000079 cycles: 4062029686 heartbeat IPC: 0.1824 cumulative IPC: 0.1256 (Simulation time: 07 hr 26 min 23 sec)
Simulation CPU 0 panic: IPC 9.6e-06 < 0.01
Simulation CPU 0 panic: IPC 9.6e-06 < 0.01
[ERROR_CYCLE] Error added at CPU cycle 4122087648, interval 16, pending count: 1
[DRAM_CYCLE_ERROR] Cycle-based error applied! address=0x961469f98 additional_latency=2459910500 cycles
Simulation CPU 0 critical: IPC 0.011976 < 0.02
Simulation CPU 0 warning: IPC 0.034433 < 0.05
Simulation CPU 0 warning: IPC 0.045613 < 0.05
Heartbeat CPU 0 instructions: 520000083 cycles: 4172313422 heartbeat IPC: 0.09068 cumulative IPC: 0.1246 (Simulation time: 07 hr 36 min 12 sec)
Simulation CPU 0 critical: IPC 0.012519 < 0.02
Simulation CPU 0 critical: IPC 0.012519 < 0.02
Heartbeat CPU 0 instructions: 530000087 cycles: 4245830008 heartbeat IPC: 0.136 cumulative IPC: 0.1248 (Simulation time: 07 hr 44 min 19 sec)
Simulation CPU 0 panic: IPC 9.6e-06 < 0.01
Simulation CPU 0 warning: IPC 0.033061 < 0.05
Simulation CPU 0 panic: IPC 9.6e-06 < 0.01
Simulation CPU 0 warning: IPC 0.034433 < 0.05
Heartbeat CPU 0 instructions: 540000087 cycles: 4365314352 heartbeat IPC: 0.08369 cumulative IPC: 0.1237 (Simulation time: 07 hr 58 min 19 sec)
[ERROR_CYCLE] Error added at CPU cycle 4379718127, interval 17, pending count: 1
[DRAM_CYCLE_ERROR] Cycle-based error applied! address=0x1652562110 additional_latency=2459910500 cycles
Simulation CPU 0 panic: IPC 0 < 0.01