
*** ChampSim Multicore Out-of-Order Simulator ***
Warmup Instructions: 0
Simulation Instructions: 9223372036854775807
Number of CPUs: 1
Page size: 1048576

Off-chip DRAM Size: 64 GiB Channels: 2 Width: 32-bit Data Rate: 4807 MT/s
[ERROR_PAGE_MANAGER] Error latency: 0 
[ERROR_PAGE_MANAGER] Random seed: 54321 (fixed for preload reproducibility)
[ERROR_PAGE_MANAGER] Error pages off

=== ERROR PAGE STATISTICS ===
Mode: OFF
Total Error Accesses: 0
==============================
Warmup finished CPU 0 instructions: 0 cycles: 1 cumulative IPC: 0 (Simulation time: 00 hr 00 min 00 sec)
Warmup complete CPU 0 instructions: 0 cycles: 1 cumulative IPC: 0 (Simulation time: 00 hr 00 min 00 sec)
Simulation CPU 0 panic: IPC 0 < 0.01
Simulation CPU 0 panic: IPC 0 < 0.01
Simulation CPU 0 panic: IPC 0 < 0.01
Simulation CPU 0 panic: IPC 5e-07 < 0.01
Simulation CPU 0 panic: IPC 1.1e-06 < 0.01
Simulation CPU 0 panic: IPC 0 < 0.01
Simulation CPU 0 panic: IPC 8e-06 < 0.01
Simulation CPU 0 panic: IPC 4.54e-05 < 0.01
Simulation CPU 0 panic: IPC 0.0001128 < 0.01
Simulation CPU 0 panic: IPC 0.0001051 < 0.01
Simulation CPU 0 panic: IPC 0.0026152 < 0.01
Simulation CPU 0 panic: IPC 3.34e-05 < 0.01
Simulation CPU 0 panic: IPC 0.0010197 < 0.01
Simulation CPU 0 panic: IPC 7e-06 < 0.01
Simulation CPU 0 panic: IPC 6.5e-06 < 0.01
Simulation CPU 0 panic: IPC 2.05e-05 < 0.01
Simulation CPU 0 panic: IPC 1.14e-05 < 0.01
Simulation CPU 0 panic: IPC 2.72e-05 < 0.01
Simulation CPU 0 panic: IPC 0.00025 < 0.01
Simulation CPU 0 panic: IPC 0.0001349 < 0.01
Simulation CPU 0 panic: IPC 0 < 0.01
Simulation CPU 0 panic: IPC 0.0004092 < 0.01
Simulation CPU 0 panic: IPC 0.000361 < 0.01
Simulation CPU 0 panic: IPC 0.0001798 < 0.01
Simulation CPU 0 panic: IPC 0.0005803 < 0.01
Simulation CPU 0 warning: IPC 0.026295 < 0.05
Simulation CPU 0 panic: IPC 4.9e-06 < 0.01
Simulation CPU 0 panic: IPC 4.4e-06 < 0.01
Simulation CPU 0 panic: IPC 1.52e-05 < 0.01
Simulation CPU 0 panic: IPC 7.6e-06 < 0.01
Simulation CPU 0 panic: IPC 7.1e-06 < 0.01
Simulation CPU 0 panic: IPC 1.75e-05 < 0.01
Simulation CPU 0 panic: IPC 1e-05 < 0.01
Simulation CPU 0 panic: IPC 4.3e-06 < 0.01
Simulation CPU 0 panic: IPC 9.6e-06 < 0.01
Simulation CPU 0 panic: IPC 2.45e-05 < 0.01
Simulation CPU 0 panic: IPC 2.87e-05 < 0.01
Simulation CPU 0 panic: IPC 1.96e-05 < 0.01
Simulation CPU 0 panic: IPC 4.6e-06 < 0.01
Simulation CPU 0 panic: IPC 1.42e-05 < 0.01
Simulation CPU 0 panic: IPC 1.24e-05 < 0.01
Simulation CPU 0 panic: IPC 3e-05 < 0.01
Simulation CPU 0 panic: IPC 5.34e-05 < 0.01
Simulation CPU 0 panic: IPC 3.88e-05 < 0.01
Simulation CPU 0 panic: IPC 2.17e-05 < 0.01
Simulation CPU 0 panic: IPC 3.42e-05 < 0.01
Simulation CPU 0 panic: IPC 6.8e-06 < 0.01
Simulation CPU 0 panic: IPC 4.24e-05 < 0.01
Simulation CPU 0 panic: IPC 5.63e-05 < 0.01
Simulation CPU 0 panic: IPC 4.17e-05 < 0.01
Simulation CPU 0 panic: IPC 1.71e-05 < 0.01
Simulation CPU 0 panic: IPC 1.43e-05 < 0.01
Simulation CPU 0 panic: IPC 5.89e-05 < 0.01
Simulation CPU 0 panic: IPC 6.6e-06 < 0.01
Simulation CPU 0 panic: IPC 1.53e-05 < 0.01
Simulation CPU 0 panic: IPC 1.18e-05 < 0.01
Simulation CPU 0 panic: IPC 0.0001261 < 0.01
Simulation CPU 0 panic: IPC 2.42e-05 < 0.01
Simulation CPU 0 panic: IPC 0.0001872 < 0.01
Simulation CPU 0 panic: IPC 7.6e-06 < 0.01
Simulation CPU 0 panic: IPC 5.06e-05 < 0.01
Simulation CPU 0 panic: IPC 0.0001728 < 0.01
Simulation CPU 0 panic: IPC 0.0001305 < 0.01
Simulation CPU 0 panic: IPC 6.93e-05 < 0.01
Simulation CPU 0 panic: IPC 8.56e-05 < 0.01
Simulation CPU 0 panic: IPC 0 < 0.01
Simulation CPU 0 panic: IPC 0.0001422 < 0.01
Simulation CPU 0 panic: IPC 0.0002701 < 0.01
Simulation CPU 0 panic: IPC 9.4e-06 < 0.01
Simulation CPU 0 panic: IPC 4.54e-05 < 0.01
Simulation CPU 0 panic: IPC 7.23e-05 < 0.01
Simulation CPU 0 panic: IPC 2.85e-05 < 0.01
Simulation CPU 0 panic: IPC 3.84e-05 < 0.01
Simulation CPU 0 panic: IPC 1.47e-05 < 0.01
Simulation CPU 0 panic: IPC 0.0002031 < 0.01
Simulation CPU 0 panic: IPC 0.0001284 < 0.01
Simulation CPU 0 panic: IPC 0.0002105 < 0.01
Simulation CPU 0 panic: IPC 0.0007568 < 0.01
Simulation CPU 0 panic: IPC 9.6e-05 < 0.01
Simulation CPU 0 panic: IPC 0.0002754 < 0.01
Simulation CPU 0 panic: IPC 9.35e-05 < 0.01
Simulation CPU 0 panic: IPC 0.0002402 < 0.01
Simulation CPU 0 panic: IPC 7.99e-05 < 0.01
Simulation CPU 0 panic: IPC 8.3e-05 < 0.01
Simulation CPU 0 panic: IPC 0.0001353 < 0.01
Simulation CPU 0 panic: IPC 0.0005871 < 0.01
Simulation CPU 0 panic: IPC 1.46e-05 < 0.01
Simulation CPU 0 panic: IPC 0.0003208 < 0.01
Simulation CPU 0 panic: IPC 0.0003422 < 0.01
Simulation CPU 0 panic: IPC 0.0001082 < 0.01
Simulation CPU 0 panic: IPC 9.6e-06 < 0.01
Simulation CPU 0 panic: IPC 0.0001903 < 0.01
Simulation CPU 0 panic: IPC 0.0006171 < 0.01
Simulation CPU 0 panic: IPC 0.0001232 < 0.01
Simulation CPU 0 panic: IPC 0.0010295 < 0.01
Simulation CPU 0 panic: IPC 0.0008541 < 0.01
Simulation CPU 0 panic: IPC 0.0006314 < 0.01
Simulation CPU 0 panic: IPC 0.0001833 < 0.01
Simulation CPU 0 panic: IPC 0.0001434 < 0.01
Simulation CPU 0 panic: IPC 4.77e-05 < 0.01
Simulation CPU 0 panic: IPC 0.0008204 < 0.01
Simulation CPU 0 panic: IPC 1.22e-05 < 0.01
Simulation CPU 0 panic: IPC 0.0001603 < 0.01
Simulation CPU 0 panic: IPC 0.0001364 < 0.01
Simulation CPU 0 panic: IPC 0.0009266 < 0.01
Simulation CPU 0 panic: IPC 0.0004779 < 0.01
Simulation CPU 0 panic: IPC 0.0005578 < 0.01
Simulation CPU 0 panic: IPC 7.93e-05 < 0.01
Simulation CPU 0 panic: IPC 0.000243 < 0.01
Simulation CPU 0 panic: IPC 0.0002813 < 0.01
Simulation CPU 0 panic: IPC 5.3e-06 < 0.01
Simulation CPU 0 panic: IPC 0.0004785 < 0.01
Simulation CPU 0 panic: IPC 0.0005448 < 0.01
Simulation CPU 0 panic: IPC 0.0004207 < 0.01
Simulation CPU 0 panic: IPC 0.0004945 < 0.01
Simulation CPU 0 panic: IPC 0.0003328 < 0.01
Simulation CPU 0 panic: IPC 0.0009242 < 0.01
Simulation CPU 0 panic: IPC 0.0010043 < 0.01
Simulation CPU 0 panic: IPC 0.0001551 < 0.01
Simulation CPU 0 panic: IPC 0.0002527 < 0.01
Simulation CPU 0 panic: IPC 0.0006688 < 0.01
Simulation CPU 0 panic: IPC 4.36e-05 < 0.01
Simulation CPU 0 panic: IPC 0.0008939 < 0.01
Simulation CPU 0 panic: IPC 2e-07 < 0.01
Simulation CPU 0 panic: IPC 1.12e-05 < 0.01
Simulation CPU 0 panic: IPC 2.01e-05 < 0.01
Simulation CPU 0 panic: IPC 7.1e-06 < 0.01
Simulation CPU 0 panic: IPC 5.1e-06 < 0.01
Simulation CPU 0 panic: IPC 6.6e-06 < 0.01
Simulation CPU 0 panic: IPC 4.6e-06 < 0.01
Simulation CPU 0 panic: IPC 9.2e-06 < 0.01
Simulation CPU 0 panic: IPC 7.4e-06 < 0.01
Simulation CPU 0 panic: IPC 9.4e-06 < 0.01
Simulation CPU 0 panic: IPC 7.1e-06 < 0.01
Simulation CPU 0 panic: IPC 2.5e-06 < 0.01
Simulation CPU 0 panic: IPC 6.6e-06 < 0.01
Simulation CPU 0 panic: IPC 2.18e-05 < 0.01
Simulation CPU 0 panic: IPC 1.14e-05 < 0.01
Simulation CPU 0 panic: IPC 2.3e-06 < 0.01
Simulation CPU 0 panic: IPC 9.4e-06 < 0.01
Simulation CPU 0 panic: IPC 1.63e-05 < 0.01
Simulation CPU 0 panic: IPC 2.57e-05 < 0.01
Simulation CPU 0 panic: IPC 9.4e-06 < 0.01
Simulation CPU 0 panic: IPC 2.8e-06 < 0.01
Simulation CPU 0 panic: IPC 6.6e-06 < 0.01
Simulation CPU 0 panic: IPC 1.91e-05 < 0.01
Simulation CPU 0 panic: IPC 1.67e-05 < 0.01
Simulation CPU 0 panic: IPC 8.9e-06 < 0.01
Simulation CPU 0 panic: IPC 5.19e-05 < 0.01
Simulation CPU 0 panic: IPC 1.65e-05 < 0.01
Simulation CPU 0 panic: IPC 1.19e-05 < 0.01
Simulation CPU 0 panic: IPC 4.65e-05 < 0.01
Simulation CPU 0 panic: IPC 9.7e-06 < 0.01
Simulation CPU 0 panic: IPC 2.34e-05 < 0.01
Simulation CPU 0 panic: IPC 9.1e-06 < 0.01
Simulation CPU 0 panic: IPC 4.75e-05 < 0.01
Simulation CPU 0 panic: IPC 7.1e-06 < 0.01
Simulation CPU 0 panic: IPC 6.09e-05 < 0.01
Simulation CPU 0 panic: IPC 1.4e-05 < 0.01
Simulation CPU 0 panic: IPC 2.85e-05 < 0.01
Simulation CPU 0 panic: IPC 2.59e-05 < 0.01
Simulation CPU 0 panic: IPC 1.81e-05 < 0.01
Simulation CPU 0 panic: IPC 2.8e-06 < 0.01
Simulation CPU 0 panic: IPC 1.65e-05 < 0.01
Simulation CPU 0 panic: IPC 1.65e-05 < 0.01
Simulation CPU 0 panic: IPC 4.94e-05 < 0.01
Simulation CPU 0 panic: IPC 4.72e-05 < 0.01
Simulation CPU 0 panic: IPC 5.42e-05 < 0.01
Simulation CPU 0 panic: IPC 7e-05 < 0.01
Simulation CPU 0 panic: IPC 0.0001075 < 0.01
Simulation CPU 0 panic: IPC 4.66e-05 < 0.01
Simulation CPU 0 panic: IPC 1.2e-05 < 0.01
Simulation CPU 0 panic: IPC 1.6e-05 < 0.01
Simulation CPU 0 panic: IPC 9.11e-05 < 0.01
Simulation CPU 0 panic: IPC 5.83e-05 < 0.01
Simulation CPU 0 panic: IPC 7.4e-06 < 0.01
Simulation CPU 0 panic: IPC 9.64e-05 < 0.01
Simulation CPU 0 panic: IPC 3.93e-05 < 0.01
Simulation CPU 0 panic: IPC 4.01e-05 < 0.01
Simulation CPU 0 panic: IPC 5.43e-05 < 0.01
Simulation CPU 0 panic: IPC 3.28e-05 < 0.01
Simulation CPU 0 panic: IPC 8.15e-05 < 0.01
Simulation CPU 0 panic: IPC 0.0001264 < 0.01
Simulation CPU 0 panic: IPC 5.18e-05 < 0.01
Simulation CPU 0 panic: IPC 1.15e-05 < 0.01
Simulation CPU 0 panic: IPC 0.0002277 < 0.01
Simulation CPU 0 panic: IPC 0.0001174 < 0.01
Simulation CPU 0 panic: IPC 0.0001295 < 0.01
Simulation CPU 0 panic: IPC 1.22e-05 < 0.01
Simulation CPU 0 panic: IPC 0.0001157 < 0.01
Simulation CPU 0 panic: IPC 0.0001207 < 0.01
Simulation CPU 0 panic: IPC 8.65e-05 < 0.01
Simulation CPU 0 panic: IPC 0.0002114 < 0.01
Simulation CPU 0 panic: IPC 0.0002879 < 0.01
Simulation CPU 0 panic: IPC 3.03e-05 < 0.01
Simulation CPU 0 panic: IPC 7.25e-05 < 0.01
Simulation CPU 0 panic: IPC 6.12e-05 < 0.01
Simulation CPU 0 panic: IPC 6.54e-05 < 0.01
Simulation CPU 0 panic: IPC 3.01e-05 < 0.01
Simulation CPU 0 panic: IPC 8.75e-05 < 0.01
Simulation CPU 0 panic: IPC 0.0002192 < 0.01
Simulation CPU 0 panic: IPC 5.18e-05 < 0.01
Simulation CPU 0 panic: IPC 0.0001361 < 0.01
Simulation CPU 0 panic: IPC 9.2e-06 < 0.01
Simulation CPU 0 panic: IPC 3.28e-05 < 0.01
Simulation CPU 0 panic: IPC 3.54e-05 < 0.01
Simulation CPU 0 panic: IPC 0.0001211 < 0.01
Simulation CPU 0 panic: IPC 7.1e-06 < 0.01
Simulation CPU 0 panic: IPC 2.11e-05 < 0.01
Simulation CPU 0 panic: IPC 9.65e-05 < 0.01
Simulation CPU 0 panic: IPC 0.0001952 < 0.01
Simulation CPU 0 panic: IPC 5.38e-05 < 0.01
Simulation CPU 0 panic: IPC 0.0003188 < 0.01
Simulation CPU 0 panic: IPC 8.4e-05 < 0.01
Simulation CPU 0 panic: IPC 5.62e-05 < 0.01
Simulation CPU 0 panic: IPC 0.0001369 < 0.01
Simulation CPU 0 panic: IPC 1.35e-05 < 0.01
Simulation CPU 0 panic: IPC 9.4e-06 < 0.01
Simulation CPU 0 panic: IPC 3.56e-05 < 0.01
Simulation CPU 0 panic: IPC 0.0001177 < 0.01
Simulation CPU 0 panic: IPC 5.19e-05 < 0.01
Simulation CPU 0 panic: IPC 0.0001791 < 0.01
Simulation CPU 0 panic: IPC 0.0002348 < 0.01
Simulation CPU 0 panic: IPC 1.17e-05 < 0.01
Simulation CPU 0 panic: IPC 0.0001456 < 0.01
Simulation CPU 0 panic: IPC 7e-05 < 0.01
Simulation CPU 0 panic: IPC 7.07e-05 < 0.01
Simulation CPU 0 panic: IPC 0.0001799 < 0.01
Simulation CPU 0 panic: IPC 0.0002571 < 0.01
Simulation CPU 0 panic: IPC 8.01e-05 < 0.01
Simulation CPU 0 panic: IPC 2.09e-05 < 0.01
Simulation CPU 0 panic: IPC 0.0001618 < 0.01
Simulation CPU 0 panic: IPC 2.83e-05 < 0.01
Simulation CPU 0 panic: IPC 0.0003312 < 0.01
Simulation CPU 0 panic: IPC 0.0001744 < 0.01
Simulation CPU 0 panic: IPC 0.0002223 < 0.01
Simulation CPU 0 panic: IPC 5.1e-06 < 0.01
Simulation CPU 0 panic: IPC 5e-05 < 0.01
Simulation CPU 0 panic: IPC 3.24e-05 < 0.01
Simulation CPU 0 panic: IPC 7.56e-05 < 0.01
Simulation CPU 0 panic: IPC 0.0001378 < 0.01
Simulation CPU 0 panic: IPC 0.0001715 < 0.01
Simulation CPU 0 panic: IPC 4.89e-05 < 0.01
Simulation CPU 0 panic: IPC 2.37e-05 < 0.01
Simulation CPU 0 panic: IPC 4.61e-05 < 0.01
Simulation CPU 0 panic: IPC 4.7e-05 < 0.01
Simulation CPU 0 panic: IPC 0.0002478 < 0.01
Simulation CPU 0 panic: IPC 2.82e-05 < 0.01
Simulation CPU 0 panic: IPC 0.0003203 < 0.01
Simulation CPU 0 panic: IPC 0.0002769 < 0.01
Simulation CPU 0 panic: IPC 0.0005878 < 0.01
Simulation CPU 0 panic: IPC 0.0002437 < 0.01
Simulation CPU 0 panic: IPC 2.82e-05 < 0.01
Simulation CPU 0 panic: IPC 1.66e-05 < 0.01
Simulation CPU 0 panic: IPC 0.0002559 < 0.01
Simulation CPU 0 panic: IPC 0.0002372 < 0.01
Simulation CPU 0 panic: IPC 3.95e-05 < 0.01
Simulation CPU 0 panic: IPC 0.0001235 < 0.01
Simulation CPU 0 panic: IPC 0.0002071 < 0.01
Simulation CPU 0 panic: IPC 0.0002414 < 0.01
Simulation CPU 0 panic: IPC 4.16e-05 < 0.01
Simulation CPU 0 panic: IPC 3.72e-05 < 0.01
Simulation CPU 0 panic: IPC 0.0001227 < 0.01
Simulation CPU 0 panic: IPC 0.0002476 < 0.01
Simulation CPU 0 panic: IPC 0.0001958 < 0.01
Simulation CPU 0 panic: IPC 0.0003686 < 0.01
Simulation CPU 0 panic: IPC 0.0001047 < 0.01
Simulation CPU 0 panic: IPC 0.0001047 < 0.01
Simulation CPU 0 panic: IPC 7.88e-05 < 0.01
Simulation CPU 0 panic: IPC 0.000428 < 0.01
Simulation CPU 0 panic: IPC 0.0003212 < 0.01
Simulation CPU 0 panic: IPC 4.22e-05 < 0.01
Simulation CPU 0 panic: IPC 3.03e-05 < 0.01
Simulation CPU 0 panic: IPC 0.0006245 < 0.01
Simulation CPU 0 panic: IPC 3.49e-05 < 0.01
Simulation CPU 0 panic: IPC 7.48e-05 < 0.01
Simulation CPU 0 panic: IPC 0.0002813 < 0.01
Simulation CPU 0 panic: IPC 0.0002666 < 0.01
Simulation CPU 0 panic: IPC 0.0003522 < 0.01
Simulation CPU 0 panic: IPC 0.0005807 < 0.01
Simulation CPU 0 panic: IPC 0.0004421 < 0.01
Simulation CPU 0 panic: IPC 0.000318 < 0.01
Simulation CPU 0 panic: IPC 0.0001644 < 0.01
Simulation CPU 0 panic: IPC 2.53e-05 < 0.01
Simulation CPU 0 panic: IPC 0.0003332 < 0.01
Simulation CPU 0 panic: IPC 7.25e-05 < 0.01
Simulation CPU 0 panic: IPC 2.8e-06 < 0.01
Simulation CPU 0 panic: IPC 7.21e-05 < 0.01
Simulation CPU 0 panic: IPC 0.0003807 < 0.01
Simulation CPU 0 panic: IPC 0.0004946 < 0.01
Simulation CPU 0 panic: IPC 0.0003261 < 0.01
Simulation CPU 0 panic: IPC 0.0004985 < 0.01
Simulation CPU 0 panic: IPC 0.0001152 < 0.01
Simulation CPU 0 panic: IPC 0.0009513 < 0.01
Simulation CPU 0 panic: IPC 0.0009612 < 0.01
Simulation CPU 0 panic: IPC 8.32e-05 < 0.01
Simulation CPU 0 panic: IPC 0.0004864 < 0.01
Simulation CPU 0 panic: IPC 8.65e-05 < 0.01
Simulation CPU 0 panic: IPC 0.0007665 < 0.01
Simulation CPU 0 panic: IPC 0.0004636 < 0.01
Simulation CPU 0 panic: IPC 0.0003405 < 0.01
Simulation CPU 0 panic: IPC 0.0001647 < 0.01
Simulation CPU 0 panic: IPC 3.01e-05 < 0.01
Simulation CPU 0 panic: IPC 0.000104 < 0.01
Simulation CPU 0 panic: IPC 6.9e-06 < 0.01
Simulation CPU 0 panic: IPC 4.2e-05 < 0.01
Simulation CPU 0 panic: IPC 0.0002971 < 0.01
Simulation CPU 0 panic: IPC 0.0008249 < 0.01
Simulation CPU 0 panic: IPC 4.2e-05 < 0.01
Simulation CPU 0 panic: IPC 7.98e-05 < 0.01
Simulation CPU 0 panic: IPC 0.0001563 < 0.01
Simulation CPU 0 panic: IPC 0.0002212 < 0.01
Simulation CPU 0 panic: IPC 0.0002193 < 0.01
Simulation CPU 0 panic: IPC 0.0001872 < 0.01
Simulation CPU 0 panic: IPC 0.0014846 < 0.01
Simulation CPU 0 panic: IPC 0.0002043 < 0.01
Simulation CPU 0 panic: IPC 0.0003212 < 0.01
Simulation CPU 0 panic: IPC 0.0006029 < 0.01
Simulation CPU 0 panic: IPC 0.0002415 < 0.01
Simulation CPU 0 panic: IPC 0.0018835 < 0.01
Simulation CPU 0 panic: IPC 0.000788 < 0.01
Simulation CPU 0 panic: IPC 6.58e-05 < 0.01
Simulation CPU 0 panic: IPC 0.000169 < 0.01
Simulation CPU 0 panic: IPC 0.0048339 < 0.01
Simulation CPU 0 panic: IPC 0.0019413 < 0.01
Simulation CPU 0 panic: IPC 7.95e-05 < 0.01
Simulation CPU 0 panic: IPC 0.000563 < 0.01
Simulation CPU 0 panic: IPC 6.52e-05 < 0.01
Simulation CPU 0 panic: IPC 0.0007563 < 0.01
Simulation CPU 0 panic: IPC 0.0006593 < 0.01
Simulation CPU 0 panic: IPC 0.0006741 < 0.01
Simulation CPU 0 panic: IPC 0.0005227 < 0.01
Simulation CPU 0 panic: IPC 0.0034973 < 0.01
Heartbeat CPU 0 instructions: 10000001 cycles: 3353829921 heartbeat IPC: 0.002982 cumulative IPC: 0.002982 (Simulation time: 04 hr 55 min 02 sec)
Simulation CPU 0 panic: IPC 7e-06 < 0.01
Simulation CPU 0 panic: IPC 4.4e-06 < 0.01
Simulation CPU 0 panic: IPC 1.3e-05 < 0.01
Simulation CPU 0 panic: IPC 9.6e-06 < 0.01
Simulation CPU 0 panic: IPC 2.3e-06 < 0.01
Simulation CPU 0 panic: IPC 7.6e-06 < 0.01
Simulation CPU 0 panic: IPC 6.8e-06 < 0.01
Simulation CPU 0 panic: IPC 2.3e-06 < 0.01
Simulation CPU 0 panic: IPC 9.2e-06 < 0.01
Simulation CPU 0 panic: IPC 2.8e-06 < 0.01
Simulation CPU 0 panic: IPC 4.3e-06 < 0.01
Simulation CPU 0 panic: IPC 5.1e-06 < 0.01
Simulation CPU 0 panic: IPC 7.1e-06 < 0.01
Simulation CPU 0 panic: IPC 9.4e-06 < 0.01
Simulation CPU 0 panic: IPC 1.42e-05 < 0.01
Simulation CPU 0 panic: IPC 6.6e-06 < 0.01
Simulation CPU 0 panic: IPC 2.3e-06 < 0.01
Simulation CPU 0 panic: IPC 1.22e-05 < 0.01
Simulation CPU 0 panic: IPC 3.32e-05 < 0.01
Simulation CPU 0 panic: IPC 2.12e-05 < 0.01
Simulation CPU 0 panic: IPC 9.6e-06 < 0.01
Simulation CPU 0 panic: IPC 1.24e-05 < 0.01
Simulation CPU 0 panic: IPC 1.14e-05 < 0.01
Simulation CPU 0 panic: IPC 6.9e-06 < 0.01
Simulation CPU 0 panic: IPC 2.8e-06 < 0.01
Simulation CPU 0 panic: IPC 7.1e-06 < 0.01
Simulation CPU 0 panic: IPC 2.5e-06 < 0.01
Simulation CPU 0 panic: IPC 9.6e-06 < 0.01
Simulation CPU 0 panic: IPC 1.19e-05 < 0.01
Simulation CPU 0 panic: IPC 3.52e-05 < 0.01
Simulation CPU 0 panic: IPC 5.3e-06 < 0.01
Simulation CPU 0 panic: IPC 9.6e-06 < 0.01
Simulation CPU 0 panic: IPC 1.25e-05 < 0.01
Simulation CPU 0 panic: IPC 9.6e-06 < 0.01
Simulation CPU 0 panic: IPC 2.37e-05 < 0.01
Simulation CPU 0 panic: IPC 5.1e-06 < 0.01
Simulation CPU 0 panic: IPC 1.85e-05 < 0.01
Simulation CPU 0 panic: IPC 2.3e-06 < 0.01
Simulation CPU 0 panic: IPC 2.3e-06 < 0.01
Simulation CPU 0 panic: IPC 5.3e-06 < 0.01
Simulation CPU 0 panic: IPC 2.58e-05 < 0.01
Simulation CPU 0 panic: IPC 4.51e-05 < 0.01
Simulation CPU 0 panic: IPC 1.93e-05 < 0.01
Simulation CPU 0 panic: IPC 1.88e-05 < 0.01
Simulation CPU 0 panic: IPC 1.42e-05 < 0.01
Simulation CPU 0 panic: IPC 2.34e-05 < 0.01
Simulation CPU 0 panic: IPC 9.6e-06 < 0.01
Simulation CPU 0 panic: IPC 9.6e-06 < 0.01
Simulation CPU 0 panic: IPC 9.4e-06 < 0.01
Simulation CPU 0 panic: IPC 1.67e-05 < 0.01
Simulation CPU 0 panic: IPC 1.64e-05 < 0.01
Simulation CPU 0 panic: IPC 3.13e-05 < 0.01
Simulation CPU 0 panic: IPC 2.36e-05 < 0.01
Simulation CPU 0 panic: IPC 3.12e-05 < 0.01
Simulation CPU 0 panic: IPC 7.1e-06 < 0.01
Simulation CPU 0 panic: IPC 2.38e-05 < 0.01
Simulation CPU 0 panic: IPC 5.25e-05 < 0.01
Simulation CPU 0 panic: IPC 2.3e-06 < 0.01
Simulation CPU 0 panic: IPC 1.7e-05 < 0.01
Simulation CPU 0 panic: IPC 3.25e-05 < 0.01
Simulation CPU 0 panic: IPC 2.91e-05 < 0.01
Simulation CPU 0 panic: IPC 4.96e-05 < 0.01
Simulation CPU 0 panic: IPC 8.05e-05 < 0.01
Simulation CPU 0 panic: IPC 3.07e-05 < 0.01
Simulation CPU 0 panic: IPC 7.36e-05 < 0.01
Simulation CPU 0 panic: IPC 0.0002783 < 0.01
Simulation CPU 0 panic: IPC 2.43e-05 < 0.01
Simulation CPU 0 panic: IPC 3.09e-05 < 0.01
Simulation CPU 0 panic: IPC 1.92e-05 < 0.01
Simulation CPU 0 panic: IPC 3.12e-05 < 0.01
Simulation CPU 0 panic: IPC 0.0001283 < 0.01
Simulation CPU 0 panic: IPC 2.5e-06 < 0.01
Simulation CPU 0 panic: IPC 1.83e-05 < 0.01
Simulation CPU 0 panic: IPC 1.63e-05 < 0.01
Simulation CPU 0 panic: IPC 5.45e-05 < 0.01
Simulation CPU 0 panic: IPC 1.74e-05 < 0.01
Simulation CPU 0 panic: IPC 3.55e-05 < 0.01
Simulation CPU 0 panic: IPC 0.0001108 < 0.01
Simulation CPU 0 panic: IPC 3.51e-05 < 0.01
Simulation CPU 0 panic: IPC 9.4e-06 < 0.01
Simulation CPU 0 panic: IPC 4.29e-05 < 0.01
Simulation CPU 0 panic: IPC 0.0002013 < 0.01
Simulation CPU 0 panic: IPC 7.34e-05 < 0.01
Simulation CPU 0 panic: IPC 1.88e-05 < 0.01
Simulation CPU 0 panic: IPC 5.3e-06 < 0.01
Simulation CPU 0 panic: IPC 4.03e-05 < 0.01
Simulation CPU 0 panic: IPC 1.6e-05 < 0.01
Simulation CPU 0 panic: IPC 2.85e-05 < 0.01
Simulation CPU 0 panic: IPC 4.93e-05 < 0.01
Simulation CPU 0 panic: IPC 4.85e-05 < 0.01
Simulation CPU 0 panic: IPC 0.0001422 < 0.01
Simulation CPU 0 panic: IPC 5.04e-05 < 0.01
Simulation CPU 0 panic: IPC 4e-05 < 0.01
Simulation CPU 0 panic: IPC 7.85e-05 < 0.01
Simulation CPU 0 panic: IPC 3.83e-05 < 0.01
Simulation CPU 0 panic: IPC 2.5e-06 < 0.01
Simulation CPU 0 panic: IPC 0.0001909 < 0.01
Simulation CPU 0 panic: IPC 9.9e-06 < 0.01
Simulation CPU 0 panic: IPC 0.0001807 < 0.01
Simulation CPU 0 panic: IPC 0.0001314 < 0.01
Simulation CPU 0 panic: IPC 0.0001063 < 0.01
Simulation CPU 0 panic: IPC 0.0001095 < 0.01
Simulation CPU 0 panic: IPC 0.0002187 < 0.01
Simulation CPU 0 panic: IPC 0.0001561 < 0.01
Simulation CPU 0 panic: IPC 0.0001679 < 0.01
Simulation CPU 0 panic: IPC 5.89e-05 < 0.01
Simulation CPU 0 panic: IPC 0.0001449 < 0.01
Simulation CPU 0 panic: IPC 3.41e-05 < 0.01
Simulation CPU 0 panic: IPC 0.0004179 < 0.01
Simulation CPU 0 panic: IPC 0.0002767 < 0.01
Simulation CPU 0 panic: IPC 0.0002127 < 0.01
Simulation CPU 0 panic: IPC 0.0009855 < 0.01
Simulation CPU 0 panic: IPC 0.0002115 < 0.01
Simulation CPU 0 panic: IPC 5.75e-05 < 0.01
Simulation CPU 0 panic: IPC 0.0001526 < 0.01
Simulation CPU 0 panic: IPC 0.0006533 < 0.01
Simulation CPU 0 panic: IPC 0.0002484 < 0.01
Simulation CPU 0 panic: IPC 0.0001168 < 0.01
Simulation CPU 0 panic: IPC 1.62e-05 < 0.01
Simulation CPU 0 panic: IPC 2.41e-05 < 0.01
Simulation CPU 0 panic: IPC 3.78e-05 < 0.01
Simulation CPU 0 panic: IPC 5.17e-05 < 0.01
Simulation CPU 0 panic: IPC 4.95e-05 < 0.01
Simulation CPU 0 panic: IPC 0.0002053 < 0.01
Simulation CPU 0 panic: IPC 0.0003816 < 0.01
Simulation CPU 0 panic: IPC 0.0003535 < 0.01
Simulation CPU 0 panic: IPC 0.000252 < 0.01
Simulation CPU 0 panic: IPC 0.0006812 < 0.01
Simulation CPU 0 panic: IPC 3.96e-05 < 0.01
Simulation CPU 0 panic: IPC 0.0001518 < 0.01
Simulation CPU 0 panic: IPC 0.0003459 < 0.01
Simulation CPU 0 panic: IPC 1.39e-05 < 0.01
Simulation CPU 0 panic: IPC 0.0004057 < 0.01
Simulation CPU 0 panic: IPC 3.12e-05 < 0.01
Simulation CPU 0 panic: IPC 1.88e-05 < 0.01
Simulation CPU 0 panic: IPC 1.14e-05 < 0.01
Simulation CPU 0 panic: IPC 0.000274 < 0.01
Simulation CPU 0 panic: IPC 9.67e-05 < 0.01
Simulation CPU 0 panic: IPC 0.0001446 < 0.01
Simulation CPU 0 panic: IPC 0.0004042 < 0.01
Simulation CPU 0 panic: IPC 0.0008982 < 0.01
Simulation CPU 0 panic: IPC 0.0002563 < 0.01
Simulation CPU 0 panic: IPC 0.000161 < 0.01
Simulation CPU 0 panic: IPC 0.0001234 < 0.01
Simulation CPU 0 panic: IPC 0.0001119 < 0.01
Simulation CPU 0 panic: IPC 7.83e-05 < 0.01
Simulation CPU 0 panic: IPC 0.0006044 < 0.01
Simulation CPU 0 panic: IPC 1.49e-05 < 0.01
Simulation CPU 0 panic: IPC 0.0003012 < 0.01
Simulation CPU 0 panic: IPC 0.0002754 < 0.01
Simulation CPU 0 panic: IPC 5.3e-06 < 0.01
Simulation CPU 0 panic: IPC 0.0005412 < 0.01
Simulation CPU 0 panic: IPC 0.0002292 < 0.01
Simulation CPU 0 panic: IPC 0.0006179 < 0.01
Simulation CPU 0 panic: IPC 1.62e-05 < 0.01
Simulation CPU 0 panic: IPC 0.000624 < 0.01
Simulation CPU 0 panic: IPC 0.0004406 < 0.01
Simulation CPU 0 panic: IPC 0.0002682 < 0.01
Simulation CPU 0 panic: IPC 0.0004035 < 0.01
Simulation CPU 0 panic: IPC 0.0007626 < 0.01
Simulation CPU 0 panic: IPC 0.0001954 < 0.01
Simulation CPU 0 panic: IPC 4.92e-05 < 0.01
Simulation CPU 0 panic: IPC 0.0002524 < 0.01
Simulation CPU 0 panic: IPC 0.0003848 < 0.01
Simulation CPU 0 panic: IPC 0.0001417 < 0.01
Simulation CPU 0 panic: IPC 0.0002578 < 0.01
Simulation CPU 0 panic: IPC 0.0002692 < 0.01
Simulation CPU 0 panic: IPC 5.2e-05 < 0.01
Simulation CPU 0 panic: IPC 2.56e-05 < 0.01
Simulation CPU 0 panic: IPC 0.0006772 < 0.01
Simulation CPU 0 panic: IPC 6.41e-05 < 0.01
Simulation CPU 0 panic: IPC 7.36e-05 < 0.01
Simulation CPU 0 panic: IPC 0.0001944 < 0.01
Simulation CPU 0 panic: IPC 7.32e-05 < 0.01
Simulation CPU 0 panic: IPC 0.0009355 < 0.01
Simulation CPU 0 panic: IPC 0.0004862 < 0.01
Simulation CPU 0 panic: IPC 0.0016742 < 0.01
Simulation CPU 0 panic: IPC 0.0002276 < 0.01
Simulation CPU 0 panic: IPC 0.0006109 < 0.01
Simulation CPU 0 panic: IPC 0.0003269 < 0.01
Simulation CPU 0 panic: IPC 0.0001231 < 0.01
Simulation CPU 0 panic: IPC 5.91e-05 < 0.01
Simulation CPU 0 panic: IPC 0.0001871 < 0.01
Simulation CPU 0 panic: IPC 0.0003582 < 0.01
Simulation CPU 0 panic: IPC 2.36e-05 < 0.01
Simulation CPU 0 panic: IPC 0.0008499 < 0.01
Simulation CPU 0 panic: IPC 4.06e-05 < 0.01
Simulation CPU 0 panic: IPC 5.74e-05 < 0.01
Simulation CPU 0 panic: IPC 0.0007567 < 0.01
Simulation CPU 0 panic: IPC 5.69e-05 < 0.01
Simulation CPU 0 panic: IPC 9.01e-05 < 0.01
Simulation CPU 0 panic: IPC 0.0001665 < 0.01
Simulation CPU 0 panic: IPC 0.0002031 < 0.01
Simulation CPU 0 panic: IPC 0.0001226 < 0.01
Simulation CPU 0 panic: IPC 0.0004496 < 0.01
Simulation CPU 0 panic: IPC 2.38e-05 < 0.01
Simulation CPU 0 panic: IPC 0.0011129 < 0.01
Simulation CPU 0 panic: IPC 0.000271 < 0.01
Simulation CPU 0 panic: IPC 0.0003288 < 0.01
Simulation CPU 0 panic: IPC 8.96e-05 < 0.01
Simulation CPU 0 panic: IPC 0.0011216 < 0.01
Simulation CPU 0 panic: IPC 1.21e-05 < 0.01
Simulation CPU 0 panic: IPC 0.0017167 < 0.01
Simulation CPU 0 panic: IPC 0.0001702 < 0.01
Simulation CPU 0 panic: IPC 0.0010633 < 0.01
Simulation CPU 0 panic: IPC 9.7e-05 < 0.01
Simulation CPU 0 panic: IPC 0.0004995 < 0.01
Simulation CPU 0 panic: IPC 4.22e-05 < 0.01
Simulation CPU 0 panic: IPC 0.0020236 < 0.01
Simulation CPU 0 panic: IPC 0.0004137 < 0.01
Simulation CPU 0 panic: IPC 0.0002729 < 0.01
Simulation CPU 0 panic: IPC 0.0035213 < 0.01
Simulation CPU 0 panic: IPC 0.0005776 < 0.01
Simulation CPU 0 panic: IPC 0.0015934 < 0.01
Simulation CPU 0 panic: IPC 0.0002011 < 0.01
Simulation CPU 0 panic: IPC 8.12e-05 < 0.01
Simulation CPU 0 panic: IPC 0.0003724 < 0.01
Simulation CPU 0 panic: IPC 0.0004801 < 0.01
Simulation CPU 0 panic: IPC 0.0005158 < 0.01
Simulation CPU 0 panic: IPC 6.88e-05 < 0.01
Simulation CPU 0 panic: IPC 0.0004272 < 0.01
Simulation CPU 0 panic: IPC 4.98e-05 < 0.01
Simulation CPU 0 panic: IPC 0.0019386 < 0.01
Simulation CPU 0 panic: IPC 0.0006044 < 0.01
Simulation CPU 0 panic: IPC 0.0011745 < 0.01
Simulation CPU 0 panic: IPC 0.0009843 < 0.01
Simulation CPU 0 panic: IPC 0.0023565 < 0.01
Simulation CPU 0 panic: IPC 2.31e-05 < 0.01
Simulation CPU 0 panic: IPC 0.0017323 < 0.01
Simulation CPU 0 panic: IPC 0.0008731 < 0.01
Simulation CPU 0 panic: IPC 0.0003639 < 0.01
Simulation CPU 0 panic: IPC 0.0002037 < 0.01
Simulation CPU 0 panic: IPC 0.0004434 < 0.01
Simulation CPU 0 panic: IPC 0.0003872 < 0.01
Simulation CPU 0 panic: IPC 0.0010376 < 0.01
Simulation CPU 0 panic: IPC 0.0003176 < 0.01
Simulation CPU 0 panic: IPC 0.0002075 < 0.01
Simulation CPU 0 panic: IPC 0.001792 < 0.01
Simulation CPU 0 panic: IPC 0.0024222 < 0.01
Simulation CPU 0 panic: IPC 0.0010144 < 0.01
Simulation CPU 0 panic: IPC 0.0014461 < 0.01
Simulation CPU 0 panic: IPC 0.0032179 < 0.01
Simulation CPU 0 panic: IPC 0.0002517 < 0.01
Simulation CPU 0 panic: IPC 0.0011276 < 0.01
Simulation CPU 0 panic: IPC 0.0011061 < 0.01
Simulation CPU 0 panic: IPC 0.0001502 < 0.01
Simulation CPU 0 panic: IPC 0.0002236 < 0.01
Simulation CPU 0 panic: IPC 0.0005721 < 0.01
Simulation CPU 0 panic: IPC 0.0049299 < 0.01
Heartbeat CPU 0 instructions: 20000002 cycles: 5859729076 heartbeat IPC: 0.003991 cumulative IPC: 0.003413 (Simulation time: 08 hr 21 min 40 sec)
Simulation CPU 0 panic: IPC 2e-07 < 0.01
Simulation CPU 0 panic: IPC 1.3e-06 < 0.01
Simulation CPU 0 panic: IPC 4.5e-06 < 0.01
Simulation CPU 0 panic: IPC 1.2e-06 < 0.01
Simulation CPU 0 panic: IPC 2.5e-06 < 0.01
Simulation CPU 0 panic: IPC 1.2e-05 < 0.01
Simulation CPU 0 panic: IPC 1.1e-05 < 0.01
Simulation CPU 0 panic: IPC 4.6e-06 < 0.01
Simulation CPU 0 panic: IPC 5.1e-06 < 0.01
Simulation CPU 0 panic: IPC 6.8e-06 < 0.01
Simulation CPU 0 panic: IPC 8.7e-06 < 0.01
Simulation CPU 0 panic: IPC 1.12e-05 < 0.01
Simulation CPU 0 panic: IPC 1.8e-06 < 0.01
Simulation CPU 0 panic: IPC 1.66e-05 < 0.01
Simulation CPU 0 panic: IPC 8.7e-06 < 0.01
Simulation CPU 0 panic: IPC 4.3e-06 < 0.01
Simulation CPU 0 panic: IPC 1.51e-05 < 0.01
Simulation CPU 0 panic: IPC 1.39e-05 < 0.01
Simulation CPU 0 panic: IPC 8.9e-06 < 0.01
Simulation CPU 0 panic: IPC 1.04e-05 < 0.01
Simulation CPU 0 panic: IPC 2.33e-05 < 0.01
Simulation CPU 0 panic: IPC 7.1e-06 < 0.01
Simulation CPU 0 panic: IPC 3.09e-05 < 0.01
Simulation CPU 0 panic: IPC 3.95e-05 < 0.01
Simulation CPU 0 panic: IPC 1.71e-05 < 0.01
Simulation CPU 0 panic: IPC 6.8e-06 < 0.01
Simulation CPU 0 panic: IPC 3.27e-05 < 0.01
Simulation CPU 0 panic: IPC 2.57e-05 < 0.01
Simulation CPU 0 panic: IPC 4.3e-06 < 0.01
Simulation CPU 0 panic: IPC 2.76e-05 < 0.01
Simulation CPU 0 panic: IPC 7.9e-05 < 0.01
Simulation CPU 0 panic: IPC 4.05e-05 < 0.01
Simulation CPU 0 panic: IPC 7.17e-05 < 0.01
Simulation CPU 0 panic: IPC 3.55e-05 < 0.01
Simulation CPU 0 panic: IPC 5.04e-05 < 0.01
Simulation CPU 0 panic: IPC 3.5e-05 < 0.01
Simulation CPU 0 panic: IPC 1.1e-05 < 0.01
Simulation CPU 0 panic: IPC 2.94e-05 < 0.01
Simulation CPU 0 panic: IPC 3.97e-05 < 0.01
Simulation CPU 0 panic: IPC 0.000125 < 0.01
Simulation CPU 0 panic: IPC 1.17e-05 < 0.01
Simulation CPU 0 panic: IPC 3.17e-05 < 0.01
Simulation CPU 0 panic: IPC 0.0001939 < 0.01
Simulation CPU 0 panic: IPC 4.3e-06 < 0.01
Simulation CPU 0 panic: IPC 0.0001068 < 0.01
Simulation CPU 0 panic: IPC 4.11e-05 < 0.01
Simulation CPU 0 panic: IPC 0.0003488 < 0.01
Simulation CPU 0 panic: IPC 4.22e-05 < 0.01
Simulation CPU 0 panic: IPC 4.13e-05 < 0.01
Simulation CPU 0 panic: IPC 7.77e-05 < 0.01
Simulation CPU 0 panic: IPC 8.14e-05 < 0.01
Simulation CPU 0 panic: IPC 9.46e-05 < 0.01
Simulation CPU 0 panic: IPC 0.0001569 < 0.01
Simulation CPU 0 panic: IPC 1.96e-05 < 0.01
Simulation CPU 0 panic: IPC 0.0001126 < 0.01
Simulation CPU 0 panic: IPC 0.0001277 < 0.01
Simulation CPU 0 panic: IPC 8.51e-05 < 0.01
Simulation CPU 0 panic: IPC 0.0001768 < 0.01
Simulation CPU 0 panic: IPC 3.95e-05 < 0.01
Simulation CPU 0 panic: IPC 0.0001695 < 0.01
Simulation CPU 0 panic: IPC 0.0001111 < 0.01
Simulation CPU 0 panic: IPC 4.78e-05 < 0.01
Simulation CPU 0 panic: IPC 0.0001252 < 0.01
Simulation CPU 0 panic: IPC 0.0008467 < 0.01
Simulation CPU 0 panic: IPC 2.17e-05 < 0.01
Simulation CPU 0 panic: IPC 1.62e-05 < 0.01
Simulation CPU 0 panic: IPC 7.3e-05 < 0.01
Simulation CPU 0 panic: IPC 0.0002533 < 0.01
Simulation CPU 0 panic: IPC 0.0002499 < 0.01
Simulation CPU 0 panic: IPC 2.04e-05 < 0.01
Simulation CPU 0 panic: IPC 4.33e-05 < 0.01
Simulation CPU 0 panic: IPC 0.0001348 < 0.01
Simulation CPU 0 panic: IPC 7.92e-05 < 0.01
Simulation CPU 0 panic: IPC 8.1e-05 < 0.01
Simulation CPU 0 panic: IPC 2.71e-05 < 0.01
Simulation CPU 0 panic: IPC 0.0001528 < 0.01
Simulation CPU 0 panic: IPC 6.01e-05 < 0.01
Simulation CPU 0 panic: IPC 1.54e-05 < 0.01
Simulation CPU 0 panic: IPC 2.63e-05 < 0.01
Simulation CPU 0 panic: IPC 5.7e-06 < 0.01
Simulation CPU 0 panic: IPC 0.0001868 < 0.01
Simulation CPU 0 panic: IPC 2.55e-05 < 0.01
Simulation CPU 0 panic: IPC 1.31e-05 < 0.01
Simulation CPU 0 panic: IPC 0.0004005 < 0.01
Simulation CPU 0 panic: IPC 0.0001294 < 0.01
Simulation CPU 0 panic: IPC 7.55e-05 < 0.01
Simulation CPU 0 panic: IPC 0.00038 < 0.01
Simulation CPU 0 panic: IPC 5.57e-05 < 0.01
Simulation CPU 0 panic: IPC 0.0001974 < 0.01
Simulation CPU 0 panic: IPC 0.0005786 < 0.01
Simulation CPU 0 panic: IPC 9.4e-06 < 0.01
Simulation CPU 0 panic: IPC 1.19e-05 < 0.01
Simulation CPU 0 panic: IPC 0.0002427 < 0.01
Simulation CPU 0 panic: IPC 0.0002509 < 0.01
Simulation CPU 0 panic: IPC 5.56e-05 < 0.01
Simulation CPU 0 panic: IPC 0.0001706 < 0.01
Simulation CPU 0 panic: IPC 4.04e-05 < 0.01
Simulation CPU 0 panic: IPC 0.0001518 < 0.01
Simulation CPU 0 panic: IPC 0.0001326 < 0.01
Simulation CPU 0 panic: IPC 6.49e-05 < 0.01
Simulation CPU 0 panic: IPC 0.000194 < 0.01
Simulation CPU 0 panic: IPC 3.4e-05 < 0.01
Simulation CPU 0 panic: IPC 0.0005928 < 0.01
Simulation CPU 0 panic: IPC 0.0001694 < 0.01
Simulation CPU 0 panic: IPC 4.8e-05 < 0.01
Simulation CPU 0 panic: IPC 0.0001112 < 0.01
Simulation CPU 0 panic: IPC 6.21e-05 < 0.01
Simulation CPU 0 panic: IPC 0.0001095 < 0.01
Simulation CPU 0 panic: IPC 0.0001 < 0.01
Simulation CPU 0 panic: IPC 0.0001861 < 0.01
Simulation CPU 0 panic: IPC 0.0001314 < 0.01
Simulation CPU 0 panic: IPC 0.0002772 < 0.01
Simulation CPU 0 panic: IPC 0.0006487 < 0.01
Simulation CPU 0 panic: IPC 8.56e-05 < 0.01
Simulation CPU 0 panic: IPC 8.57e-05 < 0.01
Simulation CPU 0 panic: IPC 8.17e-05 < 0.01
Simulation CPU 0 panic: IPC 2.9e-05 < 0.01
Simulation CPU 0 panic: IPC 0.0001897 < 0.01
Simulation CPU 0 panic: IPC 2.61e-05 < 0.01
Simulation CPU 0 panic: IPC 1.86e-05 < 0.01
Simulation CPU 0 panic: IPC 3.14e-05 < 0.01
Simulation CPU 0 panic: IPC 8.29e-05 < 0.01
Simulation CPU 0 panic: IPC 0.0003039 < 0.01
Simulation CPU 0 panic: IPC 4.3e-05 < 0.01
Simulation CPU 0 panic: IPC 0.000116 < 0.01
Simulation CPU 0 panic: IPC 0.0004963 < 0.01
Simulation CPU 0 panic: IPC 0.0002498 < 0.01
Simulation CPU 0 panic: IPC 0.000109 < 0.01
Simulation CPU 0 panic: IPC 0.0005098 < 0.01
Simulation CPU 0 panic: IPC 0.0002056 < 0.01
Simulation CPU 0 panic: IPC 9.7e-06 < 0.01
Simulation CPU 0 panic: IPC 5.89e-05 < 0.01
Simulation CPU 0 panic: IPC 0.0003568 < 0.01
Simulation CPU 0 panic: IPC 0.0001968 < 0.01
Simulation CPU 0 panic: IPC 0.0003042 < 0.01
Simulation CPU 0 panic: IPC 0.0001578 < 0.01
Simulation CPU 0 panic: IPC 1.3e-05 < 0.01
Simulation CPU 0 panic: IPC 0.0003903 < 0.01
Simulation CPU 0 panic: IPC 8.39e-05 < 0.01
Simulation CPU 0 panic: IPC 0.0003554 < 0.01
Simulation CPU 0 panic: IPC 0.0011507 < 0.01
Simulation CPU 0 panic: IPC 0.0003622 < 0.01
Simulation CPU 0 panic: IPC 0.0001338 < 0.01
Simulation CPU 0 panic: IPC 0.0002468 < 0.01
Simulation CPU 0 panic: IPC 0.000304 < 0.01
Simulation CPU 0 panic: IPC 1.71e-05 < 0.01
Simulation CPU 0 panic: IPC 5.51e-05 < 0.01
Simulation CPU 0 panic: IPC 2.9e-05 < 0.01
Simulation CPU 0 panic: IPC 0.0002507 < 0.01
Simulation CPU 0 panic: IPC 0.0005764 < 0.01
Simulation CPU 0 panic: IPC 1.04e-05 < 0.01
Simulation CPU 0 panic: IPC 3.87e-05 < 0.01
Simulation CPU 0 panic: IPC 0.00014 < 0.01
Simulation CPU 0 panic: IPC 4.4e-06 < 0.01
Simulation CPU 0 panic: IPC 0.0011559 < 0.01
Simulation CPU 0 panic: IPC 0.0002521 < 0.01
Simulation CPU 0 panic: IPC 0.0003425 < 0.01
Simulation CPU 0 panic: IPC 4.42e-05 < 0.01
Simulation CPU 0 panic: IPC 9.35e-05 < 0.01
Simulation CPU 0 panic: IPC 6.83e-05 < 0.01
Simulation CPU 0 panic: IPC 0.0001484 < 0.01
Simulation CPU 0 panic: IPC 0.0001386 < 0.01
Simulation CPU 0 panic: IPC 0.0002631 < 0.01
Simulation CPU 0 panic: IPC 1.46e-05 < 0.01
Simulation CPU 0 panic: IPC 0.0001518 < 0.01
Simulation CPU 0 panic: IPC 0.0001631 < 0.01
Simulation CPU 0 panic: IPC 0.0001727 < 0.01
Simulation CPU 0 panic: IPC 0.0003224 < 0.01
Simulation CPU 0 panic: IPC 9.1e-06 < 0.01
Simulation CPU 0 panic: IPC 4.28e-05 < 0.01
Simulation CPU 0 panic: IPC 0.0004744 < 0.01
Simulation CPU 0 panic: IPC 0.0006959 < 0.01
Simulation CPU 0 panic: IPC 0.0001137 < 0.01
Simulation CPU 0 panic: IPC 0.0002421 < 0.01
Simulation CPU 0 panic: IPC 0.0005428 < 0.01
Simulation CPU 0 panic: IPC 0.0007276 < 0.01
Simulation CPU 0 panic: IPC 4.4e-06 < 0.01
Simulation CPU 0 panic: IPC 0.0005376 < 0.01
Simulation CPU 0 panic: IPC 2.88e-05 < 0.01
Simulation CPU 0 panic: IPC 0.0004702 < 0.01
Simulation CPU 0 panic: IPC 9.84e-05 < 0.01
Simulation CPU 0 panic: IPC 0.0002854 < 0.01
Simulation CPU 0 panic: IPC 0.0001352 < 0.01
Simulation CPU 0 panic: IPC 1.11e-05 < 0.01
Simulation CPU 0 panic: IPC 0.000379 < 0.01
Simulation CPU 0 panic: IPC 8.5e-06 < 0.01
Simulation CPU 0 panic: IPC 0.0003148 < 0.01
Simulation CPU 0 panic: IPC 0.0003887 < 0.01
Simulation CPU 0 panic: IPC 0.0003474 < 0.01
Simulation CPU 0 panic: IPC 4.3e-06 < 0.01
Simulation CPU 0 panic: IPC 0.000223 < 0.01
Simulation CPU 0 panic: IPC 5.58e-05 < 0.01
Simulation CPU 0 panic: IPC 0.0001658 < 0.01
Simulation CPU 0 panic: IPC 0.0001228 < 0.01
Simulation CPU 0 panic: IPC 0.0006092 < 0.01
Simulation CPU 0 panic: IPC 0.0006614 < 0.01
Simulation CPU 0 panic: IPC 5.65e-05 < 0.01
Simulation CPU 0 panic: IPC 9.89e-05 < 0.01
Simulation CPU 0 panic: IPC 0.0003663 < 0.01
Simulation CPU 0 panic: IPC 0.0001379 < 0.01
Simulation CPU 0 panic: IPC 0.000197 < 0.01
Simulation CPU 0 panic: IPC 2.19e-05 < 0.01
Simulation CPU 0 panic: IPC 0.0008169 < 0.01
Simulation CPU 0 panic: IPC 0.0008844 < 0.01
Simulation CPU 0 panic: IPC 0.0001471 < 0.01
Simulation CPU 0 panic: IPC 8.91e-05 < 0.01
Simulation CPU 0 panic: IPC 6.78e-05 < 0.01
Simulation CPU 0 panic: IPC 0.000334 < 0.01
Simulation CPU 0 panic: IPC 0.0002733 < 0.01
Simulation CPU 0 panic: IPC 0.000229 < 0.01
Simulation CPU 0 panic: IPC 0.0001019 < 0.01
Simulation CPU 0 panic: IPC 7.73e-05 < 0.01
Simulation CPU 0 panic: IPC 3.57e-05 < 0.01
Simulation CPU 0 panic: IPC 5.28e-05 < 0.01
Simulation CPU 0 panic: IPC 0.0001181 < 0.01
Simulation CPU 0 panic: IPC 7.77e-05 < 0.01
Simulation CPU 0 panic: IPC 6.23e-05 < 0.01
Simulation CPU 0 panic: IPC 0.0004393 < 0.01
Simulation CPU 0 panic: IPC 5.1e-06 < 0.01
Simulation CPU 0 panic: IPC 8.9e-05 < 0.01
Simulation CPU 0 panic: IPC 0.0002086 < 0.01
Simulation CPU 0 panic: IPC 0.00029 < 0.01
Simulation CPU 0 panic: IPC 1.76e-05 < 0.01
Simulation CPU 0 panic: IPC 0.0003894 < 0.01
Simulation CPU 0 panic: IPC 4.15e-05 < 0.01
Simulation CPU 0 panic: IPC 8.53e-05 < 0.01
Simulation CPU 0 panic: IPC 1.94e-05 < 0.01
Simulation CPU 0 panic: IPC 7.81e-05 < 0.01
Simulation CPU 0 panic: IPC 0.0001928 < 0.01
Simulation CPU 0 panic: IPC 4.21e-05 < 0.01
Simulation CPU 0 panic: IPC 1.76e-05 < 0.01
Simulation CPU 0 panic: IPC 1.07e-05 < 0.01
Simulation CPU 0 panic: IPC 4.17e-05 < 0.01
Simulation CPU 0 panic: IPC 1.53e-05 < 0.01
Simulation CPU 0 panic: IPC 0.0003122 < 0.01
Simulation CPU 0 panic: IPC 0.000202 < 0.01
Simulation CPU 0 panic: IPC 5.1e-06 < 0.01
Simulation CPU 0 panic: IPC 6.38e-05 < 0.01
Simulation CPU 0 panic: IPC 0.0004373 < 0.01
Simulation CPU 0 panic: IPC 0.0001486 < 0.01
Simulation CPU 0 panic: IPC 0.0002091 < 0.01
Simulation CPU 0 panic: IPC 0.0001072 < 0.01
Simulation CPU 0 panic: IPC 0.0001429 < 0.01
Simulation CPU 0 panic: IPC 8.17e-05 < 0.01
Simulation CPU 0 panic: IPC 2.1e-05 < 0.01
Simulation CPU 0 panic: IPC 0.0003139 < 0.01
Simulation CPU 0 panic: IPC 0.0001264 < 0.01
Simulation CPU 0 panic: IPC 0.0003599 < 0.01
Simulation CPU 0 panic: IPC 0.0003924 < 0.01
Simulation CPU 0 panic: IPC 0.0001296 < 0.01
Simulation CPU 0 panic: IPC 6.27e-05 < 0.01
Simulation CPU 0 panic: IPC 2.46e-05 < 0.01
Simulation CPU 0 panic: IPC 0.00022 < 0.01
Simulation CPU 0 panic: IPC 0.0008485 < 0.01
Simulation CPU 0 panic: IPC 0.0002906 < 0.01
Simulation CPU 0 panic: IPC 0.0001656 < 0.01
Simulation CPU 0 panic: IPC 0.0001319 < 0.01
Simulation CPU 0 panic: IPC 0.0002867 < 0.01
Simulation CPU 0 panic: IPC 0.000108 < 0.01
Simulation CPU 0 panic: IPC 0.0003691 < 0.01
Simulation CPU 0 panic: IPC 0.0003023 < 0.01
Simulation CPU 0 panic: IPC 0.0002531 < 0.01
Simulation CPU 0 panic: IPC 9.06e-05 < 0.01
Simulation CPU 0 panic: IPC 3.13e-05 < 0.01
Simulation CPU 0 panic: IPC 0.0005034 < 0.01
Simulation CPU 0 panic: IPC 3.01e-05 < 0.01
Simulation CPU 0 panic: IPC 0.0011624 < 0.01
Simulation CPU 0 panic: IPC 0.0004178 < 0.01
Simulation CPU 0 panic: IPC 0.0004944 < 0.01
Simulation CPU 0 panic: IPC 0.0001229 < 0.01
Simulation CPU 0 panic: IPC 0.0007805 < 0.01
Simulation CPU 0 panic: IPC 9.49e-05 < 0.01
Simulation CPU 0 panic: IPC 0.0002816 < 0.01
Simulation CPU 0 panic: IPC 2.1e-06 < 0.01
Simulation CPU 0 panic: IPC 0.0002647 < 0.01
Simulation CPU 0 panic: IPC 9.12e-05 < 0.01
Simulation CPU 0 panic: IPC 0.0004271 < 0.01
Simulation CPU 0 panic: IPC 6.08e-05 < 0.01
Simulation CPU 0 panic: IPC 0.0001186 < 0.01
Simulation CPU 0 panic: IPC 0.0001622 < 0.01
Simulation CPU 0 panic: IPC 0.000209 < 0.01
Simulation CPU 0 panic: IPC 0.0001247 < 0.01
Simulation CPU 0 panic: IPC 4.03e-05 < 0.01
Simulation CPU 0 panic: IPC 2.24e-05 < 0.01
Simulation CPU 0 panic: IPC 8.14e-05 < 0.01
Simulation CPU 0 panic: IPC 0.0002159 < 0.01
Simulation CPU 0 panic: IPC 0.000102 < 0.01
Simulation CPU 0 panic: IPC 0.0001811 < 0.01
Simulation CPU 0 panic: IPC 4.36e-05 < 0.01
Simulation CPU 0 panic: IPC 0.0005 < 0.01
Simulation CPU 0 panic: IPC 0.0002208 < 0.01
Simulation CPU 0 panic: IPC 0.0006199 < 0.01
Simulation CPU 0 panic: IPC 2.53e-05 < 0.01
Simulation CPU 0 panic: IPC 0.0001688 < 0.01
Simulation CPU 0 panic: IPC 0.0007948 < 0.01
Simulation CPU 0 panic: IPC 0.0002768 < 0.01
Simulation CPU 0 panic: IPC 8.6e-06 < 0.01
Simulation CPU 0 panic: IPC 0.0003499 < 0.01
Simulation CPU 0 panic: IPC 0.000323 < 0.01
Simulation CPU 0 panic: IPC 7.77e-05 < 0.01
Simulation CPU 0 panic: IPC 5.61e-05 < 0.01
Simulation CPU 0 panic: IPC 0.0002608 < 0.01
Simulation CPU 0 panic: IPC 7.46e-05 < 0.01
Simulation CPU 0 panic: IPC 0.0002379 < 0.01
Simulation CPU 0 panic: IPC 0.0001566 < 0.01
Simulation CPU 0 panic: IPC 1.14e-05 < 0.01
Simulation CPU 0 panic: IPC 0.0001794 < 0.01
Simulation CPU 0 panic: IPC 0.0003136 < 0.01
Simulation CPU 0 panic: IPC 0.0005114 < 0.01
Simulation CPU 0 panic: IPC 0.0001045 < 0.01
Simulation CPU 0 panic: IPC 0.0007922 < 0.01
Simulation CPU 0 panic: IPC 0.000485 < 0.01
Simulation CPU 0 panic: IPC 0.0002233 < 0.01
Simulation CPU 0 panic: IPC 0.0002474 < 0.01
Simulation CPU 0 panic: IPC 0.0001173 < 0.01
Simulation CPU 0 panic: IPC 1.81e-05 < 0.01
Simulation CPU 0 panic: IPC 0.0002717 < 0.01
Simulation CPU 0 panic: IPC 0.0002939 < 0.01
Simulation CPU 0 panic: IPC 4e-05 < 0.01
Simulation CPU 0 panic: IPC 6.4e-06 < 0.01
Simulation CPU 0 panic: IPC 0.0012433 < 0.01
Simulation CPU 0 panic: IPC 6.13e-05 < 0.01
Simulation CPU 0 panic: IPC 0.0001075 < 0.01
Simulation CPU 0 panic: IPC 0.0006427 < 0.01
Simulation CPU 0 panic: IPC 6.99e-05 < 0.01
Simulation CPU 0 panic: IPC 0.0002371 < 0.01
Simulation CPU 0 panic: IPC 8.97e-05 < 0.01
Simulation CPU 0 panic: IPC 0.0002711 < 0.01
Simulation CPU 0 panic: IPC 0.0005678 < 0.01
Simulation CPU 0 panic: IPC 0.0002065 < 0.01
Simulation CPU 0 panic: IPC 0.0001829 < 0.01
Simulation CPU 0 panic: IPC 0.0001029 < 0.01
Simulation CPU 0 panic: IPC 3.13e-05 < 0.01
Simulation CPU 0 panic: IPC 4.35e-05 < 0.01
Simulation CPU 0 panic: IPC 0.000262 < 0.01
Simulation CPU 0 panic: IPC 0.000339 < 0.01
Simulation CPU 0 panic: IPC 0.0001928 < 0.01
Simulation CPU 0 panic: IPC 0.000647 < 0.01
Simulation CPU 0 panic: IPC 0.0003275 < 0.01
Simulation CPU 0 panic: IPC 7.3e-05 < 0.01
Simulation CPU 0 panic: IPC 0.0001096 < 0.01
Simulation CPU 0 panic: IPC 0.0002002 < 0.01
Simulation CPU 0 panic: IPC 0.0001027 < 0.01
Simulation CPU 0 panic: IPC 3.77e-05 < 0.01
Simulation CPU 0 panic: IPC 7.95e-05 < 0.01
Simulation CPU 0 panic: IPC 3.04e-05 < 0.01
Simulation CPU 0 panic: IPC 0.0003393 < 0.01
Simulation CPU 0 panic: IPC 0.0001866 < 0.01
Simulation CPU 0 panic: IPC 0.0003179 < 0.01
Simulation CPU 0 panic: IPC 0.0002887 < 0.01
Simulation CPU 0 panic: IPC 0.000205 < 0.01
Simulation CPU 0 panic: IPC 2.87e-05 < 0.01
Simulation CPU 0 panic: IPC 6.03e-05 < 0.01
Simulation CPU 0 panic: IPC 0.0002131 < 0.01
Simulation CPU 0 panic: IPC 0.0002862 < 0.01
Simulation CPU 0 panic: IPC 3.92e-05 < 0.01
Simulation CPU 0 panic: IPC 3.46e-05 < 0.01
Simulation CPU 0 panic: IPC 0.0002005 < 0.01
Simulation CPU 0 panic: IPC 3.95e-05 < 0.01
Simulation CPU 0 panic: IPC 0.000646 < 0.01
Simulation CPU 0 panic: IPC 0.0001899 < 0.01
Simulation CPU 0 panic: IPC 0.000147 < 0.01
Simulation CPU 0 panic: IPC 0.0002102 < 0.01
Simulation CPU 0 panic: IPC 0.0002241 < 0.01
Simulation CPU 0 panic: IPC 0.0004685 < 0.01
Simulation CPU 0 panic: IPC 0.0001088 < 0.01
Simulation CPU 0 panic: IPC 0.0002746 < 0.01
Simulation CPU 0 panic: IPC 5.02e-05 < 0.01
Simulation CPU 0 panic: IPC 9.95e-05 < 0.01
Simulation CPU 0 panic: IPC 4.41e-05 < 0.01
Simulation CPU 0 panic: IPC 0.0001172 < 0.01
Simulation CPU 0 panic: IPC 0.0004682 < 0.01
Simulation CPU 0 panic: IPC 0.0003783 < 0.01
Simulation CPU 0 panic: IPC 5.91e-05 < 0.01
Simulation CPU 0 panic: IPC 0.0005729 < 0.01
Simulation CPU 0 panic: IPC 5.59e-05 < 0.01
Simulation CPU 0 panic: IPC 1.87e-05 < 0.01
Simulation CPU 0 panic: IPC 0.0001355 < 0.01
Simulation CPU 0 panic: IPC 8.82e-05 < 0.01
Simulation CPU 0 panic: IPC 0.0006069 < 0.01
Simulation CPU 0 panic: IPC 2.18e-05 < 0.01
Simulation CPU 0 panic: IPC 0.0002503 < 0.01
Simulation CPU 0 panic: IPC 0.0002295 < 0.01
Simulation CPU 0 panic: IPC 0.0007559 < 0.01
Simulation CPU 0 panic: IPC 0.0004173 < 0.01
Simulation CPU 0 panic: IPC 3.09e-05 < 0.01
Simulation CPU 0 panic: IPC 0.0008507 < 0.01
Simulation CPU 0 panic: IPC 0.0001961 < 0.01
Simulation CPU 0 panic: IPC 2.97e-05 < 0.01
Simulation CPU 0 panic: IPC 0.0008716 < 0.01
Simulation CPU 0 panic: IPC 0.0004794 < 0.01
Simulation CPU 0 panic: IPC 2.82e-05 < 0.01
Simulation CPU 0 panic: IPC 0.0003551 < 0.01
Simulation CPU 0 panic: IPC 2.44e-05 < 0.01
Simulation CPU 0 panic: IPC 0.0018517 < 0.01
Simulation CPU 0 panic: IPC 0.000683 < 0.01
Simulation CPU 0 panic: IPC 0.0010219 < 0.01
Simulation CPU 0 panic: IPC 0.0001906 < 0.01
Simulation CPU 0 panic: IPC 0.0003783 < 0.01
Simulation CPU 0 panic: IPC 0.0004302 < 0.01
Simulation CPU 0 panic: IPC 2.3e-06 < 0.01
Simulation CPU 0 panic: IPC 0.0002825 < 0.01
Simulation CPU 0 panic: IPC 7.46e-05 < 0.01
Simulation CPU 0 panic: IPC 4.15e-05 < 0.01
Simulation CPU 0 panic: IPC 6.1e-06 < 0.01
Simulation CPU 0 panic: IPC 0.0004331 < 0.01
Simulation CPU 0 panic: IPC 6.17e-05 < 0.01
Simulation CPU 0 panic: IPC 0.0001894 < 0.01
Simulation CPU 0 panic: IPC 0.0002855 < 0.01
Simulation CPU 0 panic: IPC 0.0001729 < 0.01
Simulation CPU 0 panic: IPC 0.0002951 < 0.01
Simulation CPU 0 panic: IPC 4.1e-05 < 0.01
Simulation CPU 0 panic: IPC 9.01e-05 < 0.01
Simulation CPU 0 panic: IPC 4.96e-05 < 0.01
Simulation CPU 0 panic: IPC 5.58e-05 < 0.01
Simulation CPU 0 panic: IPC 0.0003167 < 0.01
Simulation CPU 0 panic: IPC 0.0002774 < 0.01
Simulation CPU 0 panic: IPC 0.0002782 < 0.01
Simulation CPU 0 panic: IPC 3.43e-05 < 0.01
Simulation CPU 0 panic: IPC 8.24e-05 < 0.01
Simulation CPU 0 panic: IPC 0.0006359 < 0.01
Simulation CPU 0 panic: IPC 0.0004504 < 0.01
Simulation CPU 0 panic: IPC 1.56e-05 < 0.01
Simulation CPU 0 panic: IPC 0.0001762 < 0.01
Simulation CPU 0 panic: IPC 0.0002859 < 0.01
Simulation CPU 0 panic: IPC 0.0010916 < 0.01
Simulation CPU 0 panic: IPC 0.001065 < 0.01
Simulation CPU 0 panic: IPC 1.8e-06 < 0.01
Simulation CPU 0 panic: IPC 0.0011213 < 0.01
Simulation CPU 0 panic: IPC 0.0002427 < 0.01
Simulation CPU 0 panic: IPC 0.0005411 < 0.01
Simulation CPU 0 panic: IPC 0.0003029 < 0.01
Simulation CPU 0 panic: IPC 0.0001096 < 0.01
Simulation CPU 0 panic: IPC 0.0004023 < 0.01
Simulation CPU 0 panic: IPC 0.0005972 < 0.01
Simulation CPU 0 panic: IPC 8.07e-05 < 0.01
Simulation CPU 0 panic: IPC 0.0003685 < 0.01
Simulation CPU 0 panic: IPC 0.0001653 < 0.01
Simulation CPU 0 panic: IPC 0.0008265 < 0.01
Simulation CPU 0 panic: IPC 0.001385 < 0.01
Simulation CPU 0 panic: IPC 8.43e-05 < 0.01
Simulation CPU 0 panic: IPC 0.0012837 < 0.01
Simulation CPU 0 panic: IPC 0.0018117 < 0.01
Simulation CPU 0 panic: IPC 2.33e-05 < 0.01
Simulation CPU 0 panic: IPC 0.001022 < 0.01
Simulation CPU 0 panic: IPC 7.88e-05 < 0.01
Simulation CPU 0 panic: IPC 0.0009112 < 0.01
Simulation CPU 0 panic: IPC 0.0011197 < 0.01
Heartbeat CPU 0 instructions: 30000002 cycles: 10362615925 heartbeat IPC: 0.002221 cumulative IPC: 0.002895 (Simulation time: 14 hr 18 min 08 sec)
Heartbeat CPU 0 instructions: 40000005 cycles: 10372811099 heartbeat IPC: 0.9809 cumulative IPC: 0.003856 (Simulation time: 14 hr 19 min 25 sec)
Simulation CPU 0 panic: IPC 1.09e-05 < 0.01
Simulation CPU 0 panic: IPC 0.0002232 < 0.01
Simulation CPU 0 panic: IPC 0.0001449 < 0.01
Simulation CPU 0 panic: IPC 0.0005373 < 0.01
Simulation CPU 0 panic: IPC 0.000802 < 0.01
Simulation CPU 0 panic: IPC 0.0018511 < 0.01
Simulation CPU 0 panic: IPC 0.0006917 < 0.01
Simulation CPU 0 panic: IPC 0.0043945 < 0.01
Simulation CPU 0 panic: IPC 0.0001536 < 0.01
Simulation CPU 0 panic: IPC 0.0001136 < 0.01
Simulation CPU 0 panic: IPC 0.001236 < 0.01
Simulation CPU 0 panic: IPC 0.0011719 < 0.01
Simulation CPU 0 panic: IPC 0.0008616 < 0.01
Simulation CPU 0 panic: IPC 0.0004781 < 0.01
Simulation CPU 0 panic: IPC 0.0003362 < 0.01
Simulation CPU 0 panic: IPC 0.0004577 < 0.01
Simulation CPU 0 panic: IPC 0.0014182 < 0.01
Simulation CPU 0 panic: IPC 0.003327 < 0.01
Simulation CPU 0 panic: IPC 0.0024822 < 0.01
Simulation CPU 0 panic: IPC 0.002238 < 0.01
Simulation CPU 0 panic: IPC 0.0039655 < 0.01
Simulation CPU 0 panic: IPC 0.0001885 < 0.01
Simulation CPU 0 panic: IPC 0.0010644 < 0.01
Simulation CPU 0 panic: IPC 0.0027768 < 0.01
Simulation CPU 0 panic: IPC 0.0009948 < 0.01
Simulation CPU 0 panic: IPC 0.0002379 < 0.01
Simulation CPU 0 panic: IPC 0.0038665 < 0.01
Simulation CPU 0 panic: IPC 8.26e-05 < 0.01
Simulation CPU 0 panic: IPC 0.002507 < 0.01
Simulation CPU 0 panic: IPC 0.0040519 < 0.01
Simulation CPU 0 panic: IPC 0.0036955 < 0.01
Simulation CPU 0 panic: IPC 0.0023399 < 0.01
Simulation CPU 0 panic: IPC 0.003127 < 0.01
Simulation CPU 0 panic: IPC 0.00431 < 0.01
Simulation CPU 0 panic: IPC 0.0009652 < 0.01
Simulation CPU 0 panic: IPC 0.0014659 < 0.01
Simulation CPU 0 panic: IPC 0.0016552 < 0.01
Simulation CPU 0 panic: IPC 0.0012115 < 0.01
Simulation CPU 0 panic: IPC 0.0019959 < 0.01
Simulation CPU 0 panic: IPC 0.0013098 < 0.01
Simulation CPU 0 panic: IPC 0.0041551 < 0.01
Simulation CPU 0 panic: IPC 0.0025454 < 0.01
Simulation CPU 0 panic: IPC 0.0017551 < 0.01
Simulation CPU 0 panic: IPC 0.0009659 < 0.01
Simulation CPU 0 critical: IPC 0.011097 < 0.02
Simulation CPU 0 panic: IPC 0.001022 < 0.01
Simulation CPU 0 panic: IPC 0.0005779 < 0.01
Simulation CPU 0 panic: IPC 0.0023576 < 0.01
Simulation CPU 0 panic: IPC 0.0058939 < 0.01
Simulation CPU 0 panic: IPC 0.0009893 < 0.01
Simulation CPU 0 panic: IPC 0.0005063 < 0.01
Simulation CPU 0 panic: IPC 0.005345 < 0.01
Simulation CPU 0 panic: IPC 0.0016333 < 0.01
Simulation CPU 0 panic: IPC 0.0038256 < 0.01
Simulation CPU 0 panic: IPC 0.0008069 < 0.01
Simulation CPU 0 panic: IPC 0.0005036 < 0.01
Simulation CPU 0 panic: IPC 0.000706 < 0.01
Simulation CPU 0 panic: IPC 0.002116 < 0.01
Simulation CPU 0 panic: IPC 0.0039969 < 0.01
Simulation CPU 0 panic: IPC 0.0004757 < 0.01
Simulation CPU 0 panic: IPC 0.004217 < 0.01
Simulation CPU 0 panic: IPC 0.0032196 < 0.01
Simulation CPU 0 panic: IPC 0.001873 < 0.01
Simulation CPU 0 panic: IPC 0.0018213 < 0.01
Simulation CPU 0 panic: IPC 0.0002664 < 0.01
Simulation CPU 0 panic: IPC 0.0019407 < 0.01
Simulation CPU 0 panic: IPC 0.0026608 < 0.01
Simulation CPU 0 panic: IPC 0.0018177 < 0.01
Simulation CPU 0 panic: IPC 0.0039653 < 0.01
Simulation CPU 0 panic: IPC 0.0035213 < 0.01
Simulation CPU 0 panic: IPC 0.0009275 < 0.01
Simulation CPU 0 panic: IPC 0.0025717 < 0.01
Simulation CPU 0 panic: IPC 0.0001925 < 0.01
Simulation CPU 0 panic: IPC 0.004238 < 0.01
Simulation CPU 0 panic: IPC 0.0004441 < 0.01
Simulation CPU 0 panic: IPC 0.0023024 < 0.01
Simulation CPU 0 panic: IPC 0.0059402 < 0.01
Simulation CPU 0 panic: IPC 0.0013515 < 0.01
Simulation CPU 0 panic: IPC 0.0043376 < 0.01
Simulation CPU 0 panic: IPC 0.0024248 < 0.01
Simulation CPU 0 panic: IPC 0.0055995 < 0.01
Simulation CPU 0 panic: IPC 0.0002012 < 0.01
Simulation CPU 0 panic: IPC 0.0060398 < 0.01
Simulation CPU 0 panic: IPC 0.0002445 < 0.01
Simulation CPU 0 panic: IPC 0.0001638 < 0.01
Simulation CPU 0 panic: IPC 0.0013849 < 0.01
Simulation CPU 0 panic: IPC 0.0006916 < 0.01
Simulation CPU 0 panic: IPC 0.0008969 < 0.01
Simulation CPU 0 panic: IPC 0.0058898 < 0.01
Simulation CPU 0 panic: IPC 0.0018609 < 0.01
Simulation CPU 0 panic: IPC 0.0046014 < 0.01
Simulation CPU 0 panic: IPC 0.0010527 < 0.01
Simulation CPU 0 panic: IPC 0.0037237 < 0.01
Simulation CPU 0 panic: IPC 0.0018712 < 0.01
Simulation CPU 0 panic: IPC 0.0001619 < 0.01
Simulation CPU 0 panic: IPC 0.0002635 < 0.01
Simulation CPU 0 panic: IPC 0.0027166 < 0.01
Simulation CPU 0 panic: IPC 0.0001772 < 0.01
Simulation CPU 0 panic: IPC 0.0011788 < 0.01
Simulation CPU 0 panic: IPC 0.0005091 < 0.01
Simulation CPU 0 panic: IPC 7.05e-05 < 0.01
Simulation CPU 0 panic: IPC 0.0001396 < 0.01
Simulation CPU 0 panic: IPC 0.0016226 < 0.01
Simulation CPU 0 panic: IPC 0.0023665 < 0.01
Simulation CPU 0 panic: IPC 0.0001182 < 0.01
Simulation CPU 0 panic: IPC 0.0049168 < 0.01
Simulation CPU 0 critical: IPC 0.011131 < 0.02
Simulation CPU 0 panic: IPC 0.0021724 < 0.01
Simulation CPU 0 panic: IPC 0.0020781 < 0.01
Simulation CPU 0 panic: IPC 0.0003764 < 0.01
Simulation CPU 0 panic: IPC 0.0047292 < 0.01
Simulation CPU 0 panic: IPC 0.000702 < 0.01
Simulation CPU 0 panic: IPC 0.0047868 < 0.01
Simulation CPU 0 panic: IPC 0.0002701 < 0.01
Simulation CPU 0 panic: IPC 0.0024955 < 0.01
Simulation CPU 0 panic: IPC 0.0006319 < 0.01
Simulation CPU 0 panic: IPC 0.0038167 < 0.01
Simulation CPU 0 panic: IPC 5.04e-05 < 0.01
Simulation CPU 0 panic: IPC 0.0078236 < 0.01
Simulation CPU 0 panic: IPC 0.0041101 < 0.01
Simulation CPU 0 panic: IPC 0.0003776 < 0.01
Simulation CPU 0 panic: IPC 0.0033511 < 0.01
Simulation CPU 0 panic: IPC 0.0086842 < 0.01
Simulation CPU 0 panic: IPC 0.0008329 < 0.01
Simulation CPU 0 panic: IPC 0.0063675 < 0.01
Simulation CPU 0 panic: IPC 0.0010047 < 0.01
Simulation CPU 0 panic: IPC 0.0008566 < 0.01
Simulation CPU 0 panic: IPC 0.0005742 < 0.01
Simulation CPU 0 panic: IPC 0.00121 < 0.01
Simulation CPU 0 panic: IPC 0.001071 < 0.01
Simulation CPU 0 panic: IPC 0.0028446 < 0.01
Simulation CPU 0 panic: IPC 0.0017474 < 0.01
Simulation CPU 0 panic: IPC 0.0032243 < 0.01
Simulation CPU 0 panic: IPC 0.0066995 < 0.01
Simulation CPU 0 panic: IPC 0.0017838 < 0.01
Simulation CPU 0 panic: IPC 0.0018997 < 0.01
Simulation CPU 0 panic: IPC 0.0017735 < 0.01
Simulation CPU 0 panic: IPC 0.001565 < 0.01
Simulation CPU 0 panic: IPC 0.002997 < 0.01
Simulation CPU 0 panic: IPC 0.0002374 < 0.01
Simulation CPU 0 panic: IPC 0.0023981 < 0.01
Simulation CPU 0 panic: IPC 0.0010499 < 0.01
Simulation CPU 0 panic: IPC 0.0026072 < 0.01
Simulation CPU 0 panic: IPC 0.0010872 < 0.01
Simulation CPU 0 panic: IPC 0.0018779 < 0.01
Simulation CPU 0 panic: IPC 0.0005511 < 0.01
Simulation CPU 0 panic: IPC 0.0061565 < 0.01
Simulation CPU 0 panic: IPC 0.0030584 < 0.01
Simulation CPU 0 panic: IPC 1.18e-05 < 0.01
Simulation CPU 0 panic: IPC 0.0005595 < 0.01
Simulation CPU 0 panic: IPC 0.0007938 < 0.01
Simulation CPU 0 panic: IPC 0.0009042 < 0.01
Simulation CPU 0 panic: IPC 0.0005772 < 0.01
Simulation CPU 0 panic: IPC 0.0006617 < 0.01
Simulation CPU 0 panic: IPC 0.0056233 < 0.01
Simulation CPU 0 panic: IPC 0.0024556 < 0.01
Simulation CPU 0 panic: IPC 0.0009825 < 0.01
Simulation CPU 0 panic: IPC 0.0013106 < 0.01
Simulation CPU 0 panic: IPC 0.0001617 < 0.01
Simulation CPU 0 panic: IPC 0.0016575 < 0.01
Simulation CPU 0 panic: IPC 0.0028725 < 0.01
Simulation CPU 0 panic: IPC 0.0030473 < 0.01
Simulation CPU 0 panic: IPC 0.0006322 < 0.01
Simulation CPU 0 panic: IPC 0.0006884 < 0.01
Simulation CPU 0 panic: IPC 0.001009 < 0.01
Simulation CPU 0 panic: IPC 0.0038769 < 0.01
Simulation CPU 0 panic: IPC 0.0007594 < 0.01
Simulation CPU 0 panic: IPC 0.0019421 < 0.01
Simulation CPU 0 panic: IPC 0.0006368 < 0.01
Simulation CPU 0 panic: IPC 0.0012415 < 0.01
Simulation CPU 0 panic: IPC 0.0062068 < 0.01
Simulation CPU 0 panic: IPC 0.0053697 < 0.01
Simulation CPU 0 panic: IPC 2.92e-05 < 0.01
Simulation CPU 0 panic: IPC 0.00192 < 0.01
Simulation CPU 0 panic: IPC 0.000618 < 0.01
Simulation CPU 0 panic: IPC 0.0022717 < 0.01
Simulation CPU 0 panic: IPC 0.0036257 < 0.01
Simulation CPU 0 panic: IPC 0.0005362 < 0.01
Simulation CPU 0 panic: IPC 0.0007185 < 0.01
Simulation CPU 0 panic: IPC 0.0031278 < 0.01
Simulation CPU 0 panic: IPC 0.0001112 < 0.01
Simulation CPU 0 panic: IPC 0.0063878 < 0.01
Simulation CPU 0 panic: IPC 0.0020873 < 0.01
Simulation CPU 0 panic: IPC 0.0009473 < 0.01
Simulation CPU 0 panic: IPC 0.0027472 < 0.01
Simulation CPU 0 panic: IPC 0.0023522 < 0.01
Simulation CPU 0 panic: IPC 0.0009493 < 0.01
Simulation CPU 0 panic: IPC 0.0005279 < 0.01
Simulation CPU 0 panic: IPC 0.0035134 < 0.01
Simulation CPU 0 panic: IPC 0.0055791 < 0.01
Simulation CPU 0 warning: IPC 0.031488 < 0.05
Heartbeat CPU 0 instructions: 50000005 cycles: 12301593874 heartbeat IPC: 0.005185 cumulative IPC: 0.004065 (Simulation time: 16 hr 56 min 47 sec)
Heartbeat CPU 0 instructions: 60000005 cycles: 12316694513 heartbeat IPC: 0.6622 cumulative IPC: 0.004871 (Simulation time: 16 hr 58 min 28 sec)
Heartbeat CPU 0 instructions: 70000005 cycles: 12332442561 heartbeat IPC: 0.635 cumulative IPC: 0.005676 (Simulation time: 17 hr 00 min 15 sec)
Heartbeat CPU 0 instructions: 80000007 cycles: 12342269604 heartbeat IPC: 1.018 cumulative IPC: 0.006482 (Simulation time: 17 hr 01 min 29 sec)
Heartbeat CPU 0 instructions: 90000007 cycles: 12352676914 heartbeat IPC: 0.9609 cumulative IPC: 0.007286 (Simulation time: 17 hr 02 min 47 sec)
Heartbeat CPU 0 instructions: 100000007 cycles: 12361977944 heartbeat IPC: 1.075 cumulative IPC: 0.008089 (Simulation time: 17 hr 03 min 56 sec)
Heartbeat CPU 0 instructions: 110000007 cycles: 12381750943 heartbeat IPC: 0.5057 cumulative IPC: 0.008884 (Simulation time: 17 hr 05 min 55 sec)
Heartbeat CPU 0 instructions: 120000009 cycles: 12395239530 heartbeat IPC: 0.7414 cumulative IPC: 0.009681 (Simulation time: 17 hr 07 min 28 sec)
Heartbeat CPU 0 instructions: 130000011 cycles: 12405866345 heartbeat IPC: 0.941 cumulative IPC: 0.01048 (Simulation time: 17 hr 08 min 47 sec)
Simulation CPU 0 panic: IPC 0.001496 < 0.01
Simulation CPU 0 critical: IPC 0.017236 < 0.02
Simulation CPU 0 panic: IPC 0.0023152 < 0.01
Simulation CPU 0 critical: IPC 0.016271 < 0.02
Simulation CPU 0 warning: IPC 0.023158 < 0.05
Simulation CPU 0 panic: IPC 0.0039367 < 0.01
Simulation CPU 0 panic: IPC 0.0001088 < 0.01
Simulation CPU 0 critical: IPC 0.016886 < 0.02
Simulation CPU 0 panic: IPC 0.0035105 < 0.01
Simulation CPU 0 panic: IPC 0.0028688 < 0.01
Simulation CPU 0 panic: IPC 0.0045273 < 0.01
Simulation CPU 0 panic: IPC 0.0014785 < 0.01
Simulation CPU 0 panic: IPC 0.0093019 < 0.01
Simulation CPU 0 critical: IPC 0.012603 < 0.02
Simulation CPU 0 panic: IPC 0.0019676 < 0.01
Simulation CPU 0 panic: IPC 0.0079056 < 0.01
Simulation CPU 0 panic: IPC 6.29e-05 < 0.01
Simulation CPU 0 panic: IPC 0.0045969 < 0.01
Simulation CPU 0 panic: IPC 0.0067695 < 0.01
Simulation CPU 0 panic: IPC 0.0034548 < 0.01
Simulation CPU 0 panic: IPC 0.0087781 < 0.01
Simulation CPU 0 critical: IPC 0.014632 < 0.02
Simulation CPU 0 panic: IPC 0.0010875 < 0.01
Simulation CPU 0 panic: IPC 0.0010083 < 0.01
Simulation CPU 0 critical: IPC 0.015786 < 0.02
Simulation CPU 0 panic: IPC 0.0051403 < 0.01
Simulation CPU 0 critical: IPC 0.016832 < 0.02
Simulation CPU 0 panic: IPC 0.0064024 < 0.01
Heartbeat CPU 0 instructions: 140000012 cycles: 12700153152 heartbeat IPC: 0.03398 cumulative IPC: 0.01102 (Simulation time: 17 hr 34 min 30 sec)
Simulation CPU 0 warning: IPC 0.029312 < 0.05
Simulation CPU 0 panic: IPC 0.0027006 < 0.01
Simulation CPU 0 critical: IPC 0.011359 < 0.02
Simulation CPU 0 panic: IPC 0.0059159 < 0.01
Simulation CPU 0 panic: IPC 0.0082611 < 0.01
Simulation CPU 0 panic: IPC 0.0066303 < 0.01
Simulation CPU 0 panic: IPC 0.0023496 < 0.01
Simulation CPU 0 panic: IPC 0.0063523 < 0.01
Simulation CPU 0 panic: IPC 0.0023258 < 0.01
Simulation CPU 0 panic: IPC 0.0068166 < 0.01
Simulation CPU 0 warning: IPC 0.02462 < 0.05
Simulation CPU 0 critical: IPC 0.017064 < 0.02
Simulation CPU 0 panic: IPC 0.0071573 < 0.01
Simulation CPU 0 warning: IPC 0.038399 < 0.05
Simulation CPU 0 panic: IPC 0.0009689 < 0.01
Simulation CPU 0 panic: IPC 0.0029348 < 0.01
Simulation CPU 0 critical: IPC 0.01162 < 0.02
Simulation CPU 0 critical: IPC 0.011349 < 0.02
Simulation CPU 0 panic: IPC 0.0039513 < 0.01
Simulation CPU 0 panic: IPC 0.009105 < 0.01
Simulation CPU 0 panic: IPC 0.0089175 < 0.01
Simulation CPU 0 panic: IPC 0.0090605 < 0.01
Simulation CPU 0 critical: IPC 0.013525 < 0.02
Simulation CPU 0 panic: IPC 0.0036368 < 0.01
Simulation CPU 0 critical: IPC 0.014236 < 0.02
Simulation CPU 0 panic: IPC 0.0028467 < 0.01
Simulation CPU 0 critical: IPC 0.013253 < 0.02
Heartbeat CPU 0 instructions: 150000014 cycles: 12984625144 heartbeat IPC: 0.03515 cumulative IPC: 0.01155 (Simulation time: 17 hr 57 min 29 sec)
Heartbeat CPU 0 instructions: 160000017 cycles: 12995626251 heartbeat IPC: 0.909 cumulative IPC: 0.01231 (Simulation time: 17 hr 58 min 50 sec)
Heartbeat CPU 0 instructions: 170000020 cycles: 13003708265 heartbeat IPC: 1.237 cumulative IPC: 0.01307 (Simulation time: 17 hr 59 min 55 sec)
Heartbeat CPU 0 instructions: 180000022 cycles: 13032653847 heartbeat IPC: 0.3455 cumulative IPC: 0.01381 (Simulation time: 18 hr 02 min 55 sec)
Heartbeat CPU 0 instructions: 190000022 cycles: 13041157538 heartbeat IPC: 1.176 cumulative IPC: 0.01457 (Simulation time: 18 hr 04 min 02 sec)
Heartbeat CPU 0 instructions: 200000024 cycles: 13052431844 heartbeat IPC: 0.887 cumulative IPC: 0.01532 (Simulation time: 18 hr 05 min 23 sec)
Heartbeat CPU 0 instructions: 210000024 cycles: 13068994975 heartbeat IPC: 0.6038 cumulative IPC: 0.01607 (Simulation time: 18 hr 07 min 14 sec)
Heartbeat CPU 0 instructions: 220000024 cycles: 13091007361 heartbeat IPC: 0.4543 cumulative IPC: 0.01681 (Simulation time: 18 hr 09 min 33 sec)
Heartbeat CPU 0 instructions: 230000024 cycles: 13101463314 heartbeat IPC: 0.9564 cumulative IPC: 0.01756 (Simulation time: 18 hr 10 min 43 sec)
Heartbeat CPU 0 instructions: 240000024 cycles: 13113052947 heartbeat IPC: 0.8628 cumulative IPC: 0.0183 (Simulation time: 18 hr 11 min 54 sec)
Heartbeat CPU 0 instructions: 250000028 cycles: 13121645570 heartbeat IPC: 1.164 cumulative IPC: 0.01905 (Simulation time: 18 hr 12 min 53 sec)
Simulation CPU 0 panic: IPC 5.8e-06 < 0.01
Simulation CPU 0 panic: IPC 5.3e-06 < 0.01
Simulation CPU 0 panic: IPC 1.2e-06 < 0.01
Simulation CPU 0 warning: IPC 0.045102 < 0.05
Simulation CPU 0 warning: IPC 0.034375 < 0.05
Simulation CPU 0 critical: IPC 0.019117 < 0.02
Simulation CPU 0 critical: IPC 0.015812 < 0.02
Simulation CPU 0 warning: IPC 0.044079 < 0.05
Simulation CPU 0 critical: IPC 0.019893 < 0.02
Simulation CPU 0 warning: IPC 0.025095 < 0.05
Heartbeat CPU 0 instructions: 260000028 cycles: 13290741619 heartbeat IPC: 0.05914 cumulative IPC: 0.01956 (Simulation time: 18 hr 26 min 06 sec)
Simulation CPU 0 warning: IPC 0.039373 < 0.05
Simulation CPU 0 panic: IPC 0.0084805 < 0.01
Simulation CPU 0 warning: IPC 0.024518 < 0.05
Simulation CPU 0 warning: IPC 0.028581 < 0.05
Heartbeat CPU 0 instructions: 270000028 cycles: 13404951266 heartbeat IPC: 0.08756 cumulative IPC: 0.02014 (Simulation time: 18 hr 35 min 34 sec)
Heartbeat CPU 0 instructions: 280000028 cycles: 13421942976 heartbeat IPC: 0.5885 cumulative IPC: 0.02086 (Simulation time: 18 hr 36 min 58 sec)
Heartbeat CPU 0 instructions: 290000029 cycles: 13438829624 heartbeat IPC: 0.5922 cumulative IPC: 0.02158 (Simulation time: 18 hr 38 min 50 sec)
Heartbeat CPU 0 instructions: 300000029 cycles: 13457037966 heartbeat IPC: 0.5492 cumulative IPC: 0.02229 (Simulation time: 18 hr 40 min 50 sec)
Heartbeat CPU 0 instructions: 310000030 cycles: 13467830001 heartbeat IPC: 0.9266 cumulative IPC: 0.02302 (Simulation time: 18 hr 42 min 09 sec)
Heartbeat CPU 0 instructions: 320000030 cycles: 13478516525 heartbeat IPC: 0.9358 cumulative IPC: 0.02374 (Simulation time: 18 hr 43 min 28 sec)
Heartbeat CPU 0 instructions: 330000032 cycles: 13501368959 heartbeat IPC: 0.4376 cumulative IPC: 0.02444 (Simulation time: 18 hr 45 min 51 sec)
Heartbeat CPU 0 instructions: 340000032 cycles: 13512069902 heartbeat IPC: 0.9345 cumulative IPC: 0.02516 (Simulation time: 18 hr 47 min 00 sec)
Heartbeat CPU 0 instructions: 350000032 cycles: 13520190904 heartbeat IPC: 1.231 cumulative IPC: 0.02589 (Simulation time: 18 hr 48 min 04 sec)
Heartbeat CPU 0 instructions: 360000032 cycles: 13540762216 heartbeat IPC: 0.4861 cumulative IPC: 0.02659 (Simulation time: 18 hr 50 min 09 sec)
Heartbeat CPU 0 instructions: 370000034 cycles: 13553106005 heartbeat IPC: 0.8101 cumulative IPC: 0.0273 (Simulation time: 18 hr 51 min 32 sec)
Heartbeat CPU 0 instructions: 380000034 cycles: 13562494792 heartbeat IPC: 1.065 cumulative IPC: 0.02802 (Simulation time: 18 hr 52 min 39 sec)
Heartbeat CPU 0 instructions: 390000034 cycles: 13587286143 heartbeat IPC: 0.4034 cumulative IPC: 0.0287 (Simulation time: 18 hr 55 min 05 sec)
Heartbeat CPU 0 instructions: 400000034 cycles: 13611469961 heartbeat IPC: 0.4135 cumulative IPC: 0.02939 (Simulation time: 18 hr 57 min 34 sec)
Heartbeat CPU 0 instructions: 410000034 cycles: 13622024309 heartbeat IPC: 0.9475 cumulative IPC: 0.0301 (Simulation time: 18 hr 58 min 30 sec)
Heartbeat CPU 0 instructions: 420000035 cycles: 13630910946 heartbeat IPC: 1.125 cumulative IPC: 0.03081 (Simulation time: 18 hr 59 min 15 sec)
Heartbeat CPU 0 instructions: 430000038 cycles: 13644470127 heartbeat IPC: 0.7375 cumulative IPC: 0.03151 (Simulation time: 19 hr 00 min 16 sec)
Heartbeat CPU 0 instructions: 440000041 cycles: 13676458860 heartbeat IPC: 0.3126 cumulative IPC: 0.03217 (Simulation time: 19 hr 02 min 48 sec)
Heartbeat CPU 0 instructions: 450000044 cycles: 13684911072 heartbeat IPC: 1.183 cumulative IPC: 0.03288 (Simulation time: 19 hr 03 min 53 sec)
Heartbeat CPU 0 instructions: 460000044 cycles: 13698358195 heartbeat IPC: 0.7437 cumulative IPC: 0.03358 (Simulation time: 19 hr 05 min 26 sec)
Heartbeat CPU 0 instructions: 470000044 cycles: 13707231803 heartbeat IPC: 1.127 cumulative IPC: 0.03429 (Simulation time: 19 hr 06 min 32 sec)
Heartbeat CPU 0 instructions: 480000045 cycles: 13717094500 heartbeat IPC: 1.014 cumulative IPC: 0.03499 (Simulation time: 19 hr 07 min 44 sec)
Heartbeat CPU 0 instructions: 490000046 cycles: 13742490411 heartbeat IPC: 0.3938 cumulative IPC: 0.03566 (Simulation time: 19 hr 10 min 16 sec)
Heartbeat CPU 0 instructions: 500000046 cycles: 13752535196 heartbeat IPC: 0.9955 cumulative IPC: 0.03636 (Simulation time: 19 hr 11 min 15 sec)
Heartbeat CPU 0 instructions: 510000047 cycles: 13763807531 heartbeat IPC: 0.8871 cumulative IPC: 0.03705 (Simulation time: 19 hr 12 min 20 sec)
Heartbeat CPU 0 instructions: 520000048 cycles: 13772380152 heartbeat IPC: 1.167 cumulative IPC: 0.03776 (Simulation time: 19 hr 13 min 16 sec)
Heartbeat CPU 0 instructions: 530000052 cycles: 13782666795 heartbeat IPC: 0.9721 cumulative IPC: 0.03845 (Simulation time: 19 hr 14 min 05 sec)
Simulation CPU 0 panic: IPC 1.3e-06 < 0.01
Simulation CPU 0 panic: IPC 3.8e-06 < 0.01
Simulation CPU 0 panic: IPC 1.3e-06 < 0.01
Simulation CPU 0 panic: IPC 4.1e-06 < 0.01
Simulation CPU 0 panic: IPC 1.2e-06 < 0.01
Simulation CPU 0 warning: IPC 0.034925 < 0.05
Simulation CPU 0 critical: IPC 0.016405 < 0.02
Simulation CPU 0 warning: IPC 0.02656 < 0.05
Simulation CPU 0 panic: IPC 0.0018624 < 0.01
Simulation CPU 0 critical: IPC 0.014784 < 0.02
Simulation CPU 0 warning: IPC 0.044701 < 0.05
Simulation CPU 0 warning: IPC 0.032263 < 0.05
Simulation CPU 0 panic: IPC 0.0068826 < 0.01
Simulation CPU 0 warning: IPC 0.044144 < 0.05
Simulation CPU 0 critical: IPC 0.018046 < 0.02
Simulation CPU 0 panic: IPC 5.81e-05 < 0.01
Simulation CPU 0 warning: IPC 0.027268 < 0.05
Simulation CPU 0 critical: IPC 0.010337 < 0.02
Simulation CPU 0 warning: IPC 0.040249 < 0.05
Simulation CPU 0 critical: IPC 0.014793 < 0.02
Simulation CPU 0 critical: IPC 0.011298 < 0.02
Simulation CPU 0 warning: IPC 0.035708 < 0.05
Simulation CPU 0 critical: IPC 0.013475 < 0.02
Heartbeat CPU 0 instructions: 540000053 cycles: 14064041112 heartbeat IPC: 0.03554 cumulative IPC: 0.0384 (Simulation time: 19 hr 36 min 22 sec)
Simulation CPU 0 warning: IPC 0.034467 < 0.05
Simulation CPU 0 panic: IPC 0.0069732 < 0.01
Simulation CPU 0 warning: IPC 0.021373 < 0.05
Simulation CPU 0 warning: IPC 0.047834 < 0.05
Simulation CPU 0 warning: IPC 0.036054 < 0.05
Simulation CPU 0 critical: IPC 0.015857 < 0.02
Simulation CPU 0 critical: IPC 0.010102 < 0.02
Simulation CPU 0 warning: IPC 0.024232 < 0.05
Simulation CPU 0 panic: IPC 0.003213 < 0.01
Simulation CPU 0 critical: IPC 0.014776 < 0.02
Simulation CPU 0 warning: IPC 0.042481 < 0.05
Simulation CPU 0 warning: IPC 0.024948 < 0.05
Simulation CPU 0 warning: IPC 0.044979 < 0.05
Simulation CPU 0 panic: IPC 0.0093349 < 0.01
Simulation CPU 0 warning: IPC 0.030843 < 0.05
Simulation CPU 0 warning: IPC 0.026509 < 0.05
Simulation CPU 0 panic: IPC 0.0076283 < 0.01
Simulation CPU 0 warning: IPC 0.031872 < 0.05
Simulation CPU 0 critical: IPC 0.013116 < 0.02
Simulation CPU 0 panic: IPC 0 < 0.01
Simulation CPU 0 critical: IPC 0.019849 < 0.02
Simulation CPU 0 warning: IPC 0.04462 < 0.05
Simulation CPU 0 critical: IPC 0.010106 < 0.02
Simulation CPU 0 critical: IPC 0.018078 < 0.02
Simulation CPU 0 critical: IPC 0.018059 < 0.02
Heartbeat CPU 0 instructions: 550000054 cycles: 14379625611 heartbeat IPC: 0.03169 cumulative IPC: 0.03825 (Simulation time: 19 hr 59 min 44 sec)
Simulation CPU 0 warning: IPC 0.031242 < 0.05
Simulation CPU 0 panic: IPC 0.004134 < 0.01
Simulation CPU 0 warning: IPC 0.032707 < 0.05
Simulation CPU 0 warning: IPC 0.022606 < 0.05
Simulation CPU 0 critical: IPC 0.015036 < 0.02
Simulation CPU 0 warning: IPC 0.034757 < 0.05
Simulation CPU 0 warning: IPC 0.028302 < 0.05
Simulation CPU 0 critical: IPC 0.012512 < 0.02
Simulation CPU 0 warning: IPC 0.035295 < 0.05
Simulation CPU 0 warning: IPC 0.025448 < 0.05
Simulation CPU 0 critical: IPC 0.0178 < 0.02
Simulation CPU 0 critical: IPC 0.017515 < 0.02
Simulation CPU 0 critical: IPC 0.016951 < 0.02
Simulation CPU 0 warning: IPC 0.029908 < 0.05
Simulation CPU 0 critical: IPC 0.014411 < 0.02
Simulation CPU 0 warning: IPC 0.021798 < 0.05
Simulation CPU 0 critical: IPC 0.010878 < 0.02
Simulation CPU 0 warning: IPC 0.024586 < 0.05
Simulation CPU 0 critical: IPC 0.017296 < 0.02
Simulation CPU 0 warning: IPC 0.026737 < 0.05
Simulation CPU 0 critical: IPC 0.019242 < 0.02
Simulation CPU 0 critical: IPC 0.016679 < 0.02
Simulation CPU 0 warning: IPC 0.035373 < 0.05
Simulation CPU 0 panic: IPC 0.0001573 < 0.01
Simulation CPU 0 warning: IPC 0.020428 < 0.05
Heartbeat CPU 0 instructions: 560000054 cycles: 14690578369 heartbeat IPC: 0.03216 cumulative IPC: 0.03812 (Simulation time: 20 hr 24 min 01 sec)
Simulation CPU 0 warning: IPC 0.033308 < 0.05
Simulation CPU 0 warning: IPC 0.025707 < 0.05
Simulation CPU 0 critical: IPC 0.015364 < 0.02
Simulation CPU 0 warning: IPC 0.036629 < 0.05
Simulation CPU 0 critical: IPC 0.011111 < 0.02
Simulation CPU 0 warning: IPC 0.036228 < 0.05
Simulation CPU 0 critical: IPC 0.019301 < 0.02
Simulation CPU 0 warning: IPC 0.035095 < 0.05
Simulation CPU 0 panic: IPC 0.000532 < 0.01
Simulation CPU 0 critical: IPC 0.010524 < 0.02
Simulation CPU 0 panic: IPC 0.0078878 < 0.01
Simulation CPU 0 warning: IPC 0.026456 < 0.05
Simulation CPU 0 critical: IPC 0.018831 < 0.02
Simulation CPU 0 warning: IPC 0.033282 < 0.05
Simulation CPU 0 warning: IPC 0.022462 < 0.05
Simulation CPU 0 critical: IPC 0.017397 < 0.02
Simulation CPU 0 critical: IPC 0.019 < 0.02
Simulation CPU 0 warning: IPC 0.048391 < 0.05
Simulation CPU 0 warning: IPC 0.025989 < 0.05
Simulation CPU 0 panic: IPC 0.0023976 < 0.01
Simulation CPU 0 warning: IPC 0.03435 < 0.05
Simulation CPU 0 warning: IPC 0.033582 < 0.05
Heartbeat CPU 0 instructions: 570000057 cycles: 14965262995 heartbeat IPC: 0.03641 cumulative IPC: 0.03809 (Simulation time: 20 hr 47 min 36 sec)
Simulation CPU 0 warning: IPC 0.042097 < 0.05
Simulation CPU 0 critical: IPC 0.017488 < 0.02
Simulation CPU 0 warning: IPC 0.038937 < 0.05
Simulation CPU 0 panic: IPC 0.0071088 < 0.01
Simulation CPU 0 panic: IPC 0.0062214 < 0.01
Simulation CPU 0 warning: IPC 0.030995 < 0.05
Simulation CPU 0 critical: IPC 0.01748 < 0.02
Simulation CPU 0 critical: IPC 0.018102 < 0.02
Simulation CPU 0 warning: IPC 0.044109 < 0.05
Simulation CPU 0 warning: IPC 0.044658 < 0.05
Simulation CPU 0 warning: IPC 0.026924 < 0.05
Simulation CPU 0 warning: IPC 0.031409 < 0.05
Simulation CPU 0 critical: IPC 0.01717 < 0.02
Simulation CPU 0 critical: IPC 0.017421 < 0.02
Simulation CPU 0 warning: IPC 0.047594 < 0.05
Simulation CPU 0 warning: IPC 0.032509 < 0.05
Simulation CPU 0 critical: IPC 0.012886 < 0.02
Simulation CPU 0 warning: IPC 0.020668 < 0.05
Heartbeat CPU 0 instructions: 580000060 cycles: 15211418464 heartbeat IPC: 0.04062 cumulative IPC: 0.03813 (Simulation time: 21 hr 09 min 12 sec)
Simulation CPU 0 warning: IPC 0.047243 < 0.05
Simulation CPU 0 warning: IPC 0.029352 < 0.05
Simulation CPU 0 critical: IPC 0.015188 < 0.02
Simulation CPU 0 critical: IPC 0.016003 < 0.02
Simulation CPU 0 warning: IPC 0.041837 < 0.05
Simulation CPU 0 critical: IPC 0.01024 < 0.02
Simulation CPU 0 warning: IPC 0.026817 < 0.05
Simulation CPU 0 warning: IPC 0.040834 < 0.05
Simulation CPU 0 warning: IPC 0.048102 < 0.05
Simulation CPU 0 critical: IPC 0.016799 < 0.02
Simulation CPU 0 critical: IPC 0.017331 < 0.02
Simulation CPU 0 critical: IPC 0.017973 < 0.02
Simulation CPU 0 critical: IPC 0.016929 < 0.02
Simulation CPU 0 warning: IPC 0.029282 < 0.05
Simulation CPU 0 panic: IPC 0.002456 < 0.01
Simulation CPU 0 warning: IPC 0.029386 < 0.05
Simulation CPU 0 critical: IPC 0.013559 < 0.02
Simulation CPU 0 warning: IPC 0.035856 < 0.05
Simulation CPU 0 warning: IPC 0.021098 < 0.05
Simulation CPU 0 critical: IPC 0.013523 < 0.02
Heartbeat CPU 0 instructions: 590000060 cycles: 15476718142 heartbeat IPC: 0.03769 cumulative IPC: 0.03812 (Simulation time: 21 hr 30 min 21 sec)
Simulation CPU 0 panic: IPC 0.0041199 < 0.01
Simulation CPU 0 warning: IPC 0.027465 < 0.05
Simulation CPU 0 warning: IPC 0.04616 < 0.05
Simulation CPU 0 warning: IPC 0.024143 < 0.05
Simulation CPU 0 warning: IPC 0.033369 < 0.05
Simulation CPU 0 warning: IPC 0.045539 < 0.05
Simulation CPU 0 panic: IPC 0.0033149 < 0.01
Simulation CPU 0 warning: IPC 0.031545 < 0.05
Simulation CPU 0 warning: IPC 0.024676 < 0.05
Simulation CPU 0 warning: IPC 0.041674 < 0.05
Simulation CPU 0 panic: IPC 0.0068431 < 0.01
Simulation CPU 0 warning: IPC 0.048138 < 0.05
Simulation CPU 0 critical: IPC 0.019231 < 0.02
Simulation CPU 0 critical: IPC 0.017365 < 0.02
Simulation CPU 0 critical: IPC 0.017057 < 0.02
Simulation CPU 0 warning: IPC 0.036658 < 0.05
Simulation CPU 0 critical: IPC 0.010804 < 0.02
Simulation CPU 0 panic: IPC 3.64e-05 < 0.01
Simulation CPU 0 critical: IPC 0.011096 < 0.02
Simulation CPU 0 warning: IPC 0.047398 < 0.05
Simulation CPU 0 warning: IPC 0.048365 < 0.05
Simulation CPU 0 warning: IPC 0.044359 < 0.05
Heartbeat CPU 0 instructions: 600000061 cycles: 15750543169 heartbeat IPC: 0.03652 cumulative IPC: 0.03809 (Simulation time: 21 hr 51 min 31 sec)
Simulation CPU 0 warning: IPC 0.026519 < 0.05
Simulation CPU 0 warning: IPC 0.031075 < 0.05
Simulation CPU 0 critical: IPC 0.015344 < 0.02
Simulation CPU 0 panic: IPC 0.0054729 < 0.01
Simulation CPU 0 critical: IPC 0.017458 < 0.02
Simulation CPU 0 panic: IPC 0.0069889 < 0.01
Simulation CPU 0 warning: IPC 0.04136 < 0.05
Simulation CPU 0 warning: IPC 0.034378 < 0.05
Simulation CPU 0 critical: IPC 0.011574 < 0.02
Simulation CPU 0 warning: IPC 0.023846 < 0.05
Simulation CPU 0 critical: IPC 0.016907 < 0.02
Simulation CPU 0 critical: IPC 0.014379 < 0.02
Simulation CPU 0 panic: IPC 0.0013234 < 0.01
Simulation CPU 0 warning: IPC 0.044046 < 0.05
Simulation CPU 0 critical: IPC 0.012736 < 0.02
Simulation CPU 0 critical: IPC 0.01879 < 0.02
Simulation CPU 0 critical: IPC 0.011066 < 0.02
Simulation CPU 0 warning: IPC 0.024583 < 0.05
Simulation CPU 0 critical: IPC 0.01978 < 0.02
Simulation CPU 0 warning: IPC 0.046593 < 0.05
Simulation CPU 0 panic: IPC 0.0017862 < 0.01
Heartbeat CPU 0 instructions: 610000062 cycles: 16033881367 heartbeat IPC: 0.03529 cumulative IPC: 0.03804 (Simulation time: 22 hr 15 min 23 sec)
Simulation CPU 0 warning: IPC 0.037617 < 0.05
Simulation CPU 0 critical: IPC 0.013049 < 0.02
Simulation CPU 0 warning: IPC 0.032112 < 0.05
Heartbeat CPU 0 instructions: 620000063 cycles: 16110408528 heartbeat IPC: 0.1307 cumulative IPC: 0.03848 (Simulation time: 22 hr 21 min 41 sec)
Heartbeat CPU 0 instructions: 630000066 cycles: 16149448983 heartbeat IPC: 0.2561 cumulative IPC: 0.03901 (Simulation time: 22 hr 24 min 57 sec)
Heartbeat CPU 0 instructions: 640000070 cycles: 16186838760 heartbeat IPC: 0.2675 cumulative IPC: 0.03954 (Simulation time: 22 hr 28 min 18 sec)
Heartbeat CPU 0 instructions: 650000070 cycles: 16229671285 heartbeat IPC: 0.2335 cumulative IPC: 0.04005 (Simulation time: 22 hr 32 min 29 sec)
Heartbeat CPU 0 instructions: 660000074 cycles: 16276398185 heartbeat IPC: 0.214 cumulative IPC: 0.04055 (Simulation time: 22 hr 36 min 35 sec)
Heartbeat CPU 0 instructions: 670000075 cycles: 16323815985 heartbeat IPC: 0.2109 cumulative IPC: 0.04104 (Simulation time: 22 hr 40 min 52 sec)
Heartbeat CPU 0 instructions: 680000077 cycles: 16369978930 heartbeat IPC: 0.2166 cumulative IPC: 0.04154 (Simulation time: 22 hr 43 min 56 sec)
Heartbeat CPU 0 instructions: 690000077 cycles: 16402409295 heartbeat IPC: 0.3084 cumulative IPC: 0.04207 (Simulation time: 22 hr 46 min 28 sec)
Heartbeat CPU 0 instructions: 700000079 cycles: 16417605978 heartbeat IPC: 0.658 cumulative IPC: 0.04264 (Simulation time: 22 hr 48 min 03 sec)
Heartbeat CPU 0 instructions: 710000082 cycles: 16426865955 heartbeat IPC: 1.08 cumulative IPC: 0.04322 (Simulation time: 22 hr 49 min 06 sec)
Heartbeat CPU 0 instructions: 720000084 cycles: 16439793527 heartbeat IPC: 0.7735 cumulative IPC: 0.0438 (Simulation time: 22 hr 50 min 24 sec)
Heartbeat CPU 0 instructions: 730000085 cycles: 16451263339 heartbeat IPC: 0.8719 cumulative IPC: 0.04437 (Simulation time: 22 hr 51 min 47 sec)
Heartbeat CPU 0 instructions: 740000087 cycles: 16459695174 heartbeat IPC: 1.186 cumulative IPC: 0.04496 (Simulation time: 22 hr 52 min 52 sec)
Heartbeat CPU 0 instructions: 750000088 cycles: 16475278127 heartbeat IPC: 0.6417 cumulative IPC: 0.04552 (Simulation time: 22 hr 54 min 40 sec)
Heartbeat CPU 0 instructions: 760000089 cycles: 16483725629 heartbeat IPC: 1.184 cumulative IPC: 0.04611 (Simulation time: 22 hr 55 min 46 sec)
Heartbeat CPU 0 instructions: 770000091 cycles: 16493217153 heartbeat IPC: 1.054 cumulative IPC: 0.04669 (Simulation time: 22 hr 56 min 57 sec)
Heartbeat CPU 0 instructions: 780000093 cycles: 16506482088 heartbeat IPC: 0.7539 cumulative IPC: 0.04725 (Simulation time: 22 hr 58 min 28 sec)
Heartbeat CPU 0 instructions: 790000093 cycles: 16519242303 heartbeat IPC: 0.7837 cumulative IPC: 0.04782 (Simulation time: 22 hr 59 min 48 sec)
Heartbeat CPU 0 instructions: 800000093 cycles: 16545753755 heartbeat IPC: 0.3772 cumulative IPC: 0.04835 (Simulation time: 23 hr 02 min 23 sec)
Heartbeat CPU 0 instructions: 810000094 cycles: 16565950239 heartbeat IPC: 0.4951 cumulative IPC: 0.0489 (Simulation time: 23 hr 04 min 30 sec)
Heartbeat CPU 0 instructions: 820000094 cycles: 16580345282 heartbeat IPC: 0.6947 cumulative IPC: 0.04946 (Simulation time: 23 hr 06 min 06 sec)
Heartbeat CPU 0 instructions: 830000094 cycles: 16591010727 heartbeat IPC: 0.9376 cumulative IPC: 0.05003 (Simulation time: 23 hr 07 min 10 sec)
Heartbeat CPU 0 instructions: 840000097 cycles: 16615776603 heartbeat IPC: 0.4038 cumulative IPC: 0.05055 (Simulation time: 23 hr 08 min 59 sec)
Heartbeat CPU 0 instructions: 850000097 cycles: 16635497821 heartbeat IPC: 0.5071 cumulative IPC: 0.0511 (Simulation time: 23 hr 10 min 53 sec)
Heartbeat CPU 0 instructions: 860000100 cycles: 16646606200 heartbeat IPC: 0.9002 cumulative IPC: 0.05166 (Simulation time: 23 hr 11 min 59 sec)
Heartbeat CPU 0 instructions: 870000103 cycles: 16654691247 heartbeat IPC: 1.237 cumulative IPC: 0.05224 (Simulation time: 23 hr 12 min 42 sec)
Heartbeat CPU 0 instructions: 880000103 cycles: 16668120083 heartbeat IPC: 0.7447 cumulative IPC: 0.0528 (Simulation time: 23 hr 14 min 07 sec)
Heartbeat CPU 0 instructions: 890000103 cycles: 16678345194 heartbeat IPC: 0.978 cumulative IPC: 0.05336 (Simulation time: 23 hr 15 min 20 sec)
Heartbeat CPU 0 instructions: 900000107 cycles: 16696931864 heartbeat IPC: 0.538 cumulative IPC: 0.0539 (Simulation time: 23 hr 17 min 16 sec)
Heartbeat CPU 0 instructions: 910000107 cycles: 16705907970 heartbeat IPC: 1.114 cumulative IPC: 0.05447 (Simulation time: 23 hr 18 min 22 sec)
Heartbeat CPU 0 instructions: 920000108 cycles: 16718255368 heartbeat IPC: 0.8099 cumulative IPC: 0.05503 (Simulation time: 23 hr 19 min 47 sec)
Heartbeat CPU 0 instructions: 930000109 cycles: 16727594780 heartbeat IPC: 1.071 cumulative IPC: 0.0556 (Simulation time: 23 hr 20 min 55 sec)
Heartbeat CPU 0 instructions: 940000110 cycles: 16765814843 heartbeat IPC: 0.2616 cumulative IPC: 0.05607 (Simulation time: 23 hr 24 min 31 sec)
Heartbeat CPU 0 instructions: 950000112 cycles: 16806938615 heartbeat IPC: 0.2432 cumulative IPC: 0.05652 (Simulation time: 23 hr 28 min 23 sec)
[...]
Heartbeat CPU 0 instructions: 1090000132 cycles: 17053562411 heartbeat IPC: 0.2878 cumulative IPC: 0.06392 (Simulation time: 23 hr 52 min 16 sec)
Heartbeat CPU 0 instructions: 1100000134 cycles: 17068590528 heartbeat IPC: 0.6654 cumulative IPC: 0.06445 (Simulation time: 23 hr 53 min 46 sec)
Heartbeat CPU 0 instructions: 1110000135 cycles: 17079173113 heartbeat IPC: 0.9449 cumulative IPC: 0.06499 (Simulation time: 23 hr 54 min 55 sec)
Heartbeat CPU 0 instructions: 1120000135 cycles: 17088641676 heartbeat IPC: 1.056 cumulative IPC: 0.06554 (Simulation time: 23 hr 55 min 48 sec)
Heartbeat CPU 0 instructions: 1130000136 cycles: 17096851787 heartbeat IPC: 1.218 cumulative IPC: 0.06609 (Simulation time: 23 hr 56 min 42 sec)
Heartbeat CPU 0 instructions: 1140000137 cycles: 17120313906 heartbeat IPC: 0.4262 cumulative IPC: 0.06659 (Simulation time: 23 hr 58 min 34 sec)
Heartbeat CPU 0 instructions: 1150000137 cycles: 17130589052 heartbeat IPC: 0.9732 cumulative IPC: 0.06713 (Simulation time: 23 hr 59 min 38 sec)
Heartbeat CPU 0 instructions: 1160000139 cycles: 17147225469 heartbeat IPC: 0.6011 cumulative IPC: 0.06765 (Simulation time: 00 hr 01 min 04 sec)
Heartbeat CPU 0 instructions: 1170000141 cycles: 17155691450 heartbeat IPC: 1.181 cumulative IPC: 0.0682 (Simulation time: 00 hr 01 min 48 sec)
Heartbeat CPU 0 instructions: 1180000142 cycles: 17165470805 heartbeat IPC: 1.023 cumulative IPC: 0.06874 (Simulation time: 00 hr 02 min 39 sec)
Heartbeat CPU 0 instructions: 1190000146 cycles: 17194703008 heartbeat IPC: 0.3421 cumulative IPC: 0.06921 (Simulation time: 00 hr 05 min 43 sec)
Heartbeat CPU 0 instructions: 1200000147 cycles: 17204425759 heartbeat IPC: 1.029 cumulative IPC: 0.06975 (Simulation time: 00 hr 06 min 56 sec)
Heartbeat CPU 0 instructions: 1210000151 cycles: 17219533784 heartbeat IPC: 0.6619 cumulative IPC: 0.07027 (Simulation time: 00 hr 08 min 30 sec)
Heartbeat CPU 0 instructions: 1220000151 cycles: 17233508271 heartbeat IPC: 0.7156 cumulative IPC: 0.07079 (Simulation time: 00 hr 09 min 47 sec)
Heartbeat CPU 0 instructions: 1230000154 cycles: 17241470179 heartbeat IPC: 1.256 cumulative IPC: 0.07134 (Simulation time: 00 hr 10 min 43 sec)
Heartbeat CPU 0 instructions: 1240000154 cycles: 17251172952 heartbeat IPC: 1.031 cumulative IPC: 0.07188 (Simulation time: 00 hr 11 min 39 sec)
Heartbeat CPU 0 instructions: 1250000157 cycles: 17272075582 heartbeat IPC: 0.4784 cumulative IPC: 0.07237 (Simulation time: 00 hr 13 min 52 sec)
Heartbeat CPU 0 instructions: 1260000157 cycles: 17281214841 heartbeat IPC: 1.094 cumulative IPC: 0.07291 (Simulation time: 00 hr 15 min 01 sec)
Heartbeat CPU 0 instructions: 1270000157 cycles: 17293379117 heartbeat IPC: 0.8221 cumulative IPC: 0.07344 (Simulation time: 00 hr 16 min 31 sec)
Heartbeat CPU 0 instructions: 1280000159 cycles: 17311990231 heartbeat IPC: 0.5373 cumulative IPC: 0.07394 (Simulation time: 00 hr 18 min 34 sec)
Heartbeat CPU 0 instructions: 1290000163 cycles: 17343657730 heartbeat IPC: 0.3158 cumulative IPC: 0.07438 (Simulation time: 00 hr 21 min 54 sec)
Heartbeat CPU 0 instructions: 1300000165 cycles: 17352780669 heartbeat IPC: 1.096 cumulative IPC: 0.07492 (Simulation time: 00 hr 23 min 04 sec)
Heartbeat CPU 0 instructions: 1310000166 cycles: 17362383792 heartbeat IPC: 1.041 cumulative IPC: 0.07545 (Simulation time: 00 hr 24 min 18 sec)
Heartbeat CPU 0 instructions: 1320000166 cycles: 17370627054 heartbeat IPC: 1.213 cumulative IPC: 0.07599 (Simulation time: 00 hr 25 min 20 sec)
Heartbeat CPU 0 instructions: 1330000167 cycles: 17391274208 heartbeat IPC: 0.4843 cumulative IPC: 0.07648 (Simulation time: 00 hr 27 min 27 sec)
Heartbeat CPU 0 instructions: 1340000168 cycles: 17427166766 heartbeat IPC: 0.2786 cumulative IPC: 0.07689 (Simulation time: 00 hr 30 min 46 sec)
Heartbeat CPU 0 instructions: 1350000171 cycles: 17448935717 heartbeat IPC: 0.4594 cumulative IPC: 0.07737 (Simulation time: 00 hr 32 min 51 sec)
Heartbeat CPU 0 instructions: 1360000171 cycles: 17458259848 heartbeat IPC: 1.072 cumulative IPC: 0.0779 (Simulation time: 00 hr 34 min 01 sec)
Heartbeat CPU 0 instructions: 1370000174 cycles: 17472811868 heartbeat IPC: 0.6872 cumulative IPC: 0.07841 (Simulation time: 00 hr 35 min 22 sec)
Heartbeat CPU 0 instructions: 1380000177 cycles: 17482986072 heartbeat IPC: 0.9829 cumulative IPC: 0.07893 (Simulation time: 00 hr 36 min 30 sec)
Heartbeat CPU 0 instructions: 1390000181 cycles: 17491234506 heartbeat IPC: 1.212 cumulative IPC: 0.07947 (Simulation time: 00 hr 37 min 35 sec)
Heartbeat CPU 0 instructions: 1400000181 cycles: 17500772723 heartbeat IPC: 1.048 cumulative IPC: 0.08 (Simulation time: 00 hr 38 min 32 sec)
Heartbeat CPU 0 instructions: 1410000183 cycles: 17516189960 heartbeat IPC: 0.6486 cumulative IPC: 0.0805 (Simulation time: 00 hr 39 min 49 sec)
Heartbeat CPU 0 instructions: 1420000187 cycles: 17525381648 heartbeat IPC: 1.088 cumulative IPC: 0.08103 (Simulation time: 00 hr 40 min 58 sec)
Heartbeat CPU 0 instructions: 1430000189 cycles: 17533954979 heartbeat IPC: 1.166 cumulative IPC: 0.08156 (Simulation time: 00 hr 42 min 06 sec)
Heartbeat CPU 0 instructions: 1440000192 cycles: 17561493076 heartbeat IPC: 0.3631 cumulative IPC: 0.082 (Simulation time: 00 hr 44 min 33 sec)
Heartbeat CPU 0 instructions: 1450000195 cycles: 17575578272 heartbeat IPC: 0.71 cumulative IPC: 0.0825 (Simulation time: 00 hr 45 min 58 sec)
Heartbeat CPU 0 instructions: 1460000196 cycles: 17585239405 heartbeat IPC: 1.035 cumulative IPC: 0.08302 (Simulation time: 00 hr 46 min 58 sec)
Heartbeat CPU 0 instructions: 1470000199 cycles: 17594212279 heartbeat IPC: 1.114 cumulative IPC: 0.08355 (Simulation time: 00 hr 48 min 03 sec)
Heartbeat CPU 0 instructions: 1480000199 cycles: 17604127628 heartbeat IPC: 1.009 cumulative IPC: 0.08407 (Simulation time: 00 hr 49 min 04 sec)
Heartbeat CPU 0 instructions: 1490000202 cycles: 17631079017 heartbeat IPC: 0.371 cumulative IPC: 0.08451 (Simulation time: 00 hr 51 min 15 sec)
Heartbeat CPU 0 instructions: 1500000203 cycles: 17639374916 heartbeat IPC: 1.205 cumulative IPC: 0.08504 (Simulation time: 00 hr 52 min 04 sec)
Heartbeat CPU 0 instructions: 1510000205 cycles: 17648398973 heartbeat IPC: 1.108 cumulative IPC: 0.08556 (Simulation time: 00 hr 53 min 03 sec)
Heartbeat CPU 0 instructions: 1520000205 cycles: 17658644696 heartbeat IPC: 0.976 cumulative IPC: 0.08608 (Simulation time: 00 hr 54 min 20 sec)
Heartbeat CPU 0 instructions: 1530000205 cycles: 17692440205 heartbeat IPC: 0.2959 cumulative IPC: 0.08648 (Simulation time: 00 hr 57 min 37 sec)
Heartbeat CPU 0 instructions: 1540000207 cycles: 17734270244 heartbeat IPC: 0.2391 cumulative IPC: 0.08684 (Simulation time: 01 hr 01 min 01 sec)
Heartbeat CPU 0 instructions: 1550000207 cycles: 17777096187 heartbeat IPC: 0.2335 cumulative IPC: 0.08719 (Simulation time: 01 hr 03 min 57 sec)
Heartbeat CPU 0 instructions: 1560000210 cycles: 17819684633 heartbeat IPC: 0.2348 cumulative IPC: 0.08754 (Simulation time: 01 hr 07 min 04 sec)
Heartbeat CPU 0 instructions: 1570000210 cycles: 17863019907 heartbeat IPC: 0.2308 cumulative IPC: 0.08789 (Simulation time: 01 hr 10 min 57 sec)
Heartbeat CPU 0 instructions: 1580000212 cycles: 17914507662 heartbeat IPC: 0.1942 cumulative IPC: 0.0882 (Simulation time: 01 hr 15 min 06 sec)
Heartbeat CPU 0 instructions: 1590000216 cycles: 17963784764 heartbeat IPC: 0.2029 cumulative IPC: 0.08851 (Simulation time: 01 hr 18 min 13 sec)
Heartbeat CPU 0 instructions: 1600000218 cycles: 17997002022 heartbeat IPC: 0.301 cumulative IPC: 0.0889 (Simulation time: 01 hr 20 min 43 sec)
Heartbeat CPU 0 instructions: 1610000218 cycles: 18008607540 heartbeat IPC: 0.8617 cumulative IPC: 0.0894 (Simulation time: 01 hr 21 min 46 sec)
Heartbeat CPU 0 instructions: 1620000222 cycles: 18017896442 heartbeat IPC: 1.077 cumulative IPC: 0.08991 (Simulation time: 01 hr 22 min 57 sec)
Heartbeat CPU 0 instructions: 1630000223 cycles: 18035411303 heartbeat IPC: 0.5709 cumulative IPC: 0.09038 (Simulation time: 01 hr 24 min 43 sec)
Heartbeat CPU 0 instructions: 1640000224 cycles: 18045438631 heartbeat IPC: 0.9973 cumulative IPC: 0.09088 (Simulation time: 01 hr 25 min 39 sec)
Heartbeat CPU 0 instructions: 1650000228 cycles: 18055327709 heartbeat IPC: 1.011 cumulative IPC: 0.09139 (Simulation time: 01 hr 26 min 48 sec)
Heartbeat CPU 0 instructions: 1660000230 cycles: 18067511847 heartbeat IPC: 0.8207 cumulative IPC: 0.09188 (Simulation time: 01 hr 28 min 06 sec)
Heartbeat CPU 0 instructions: 1670000231 cycles: 18094651098 heartbeat IPC: 0.3685 cumulative IPC: 0.09229 (Simulation time: 01 hr 30 min 45 sec)
Heartbeat CPU 0 instructions: 1680000231 cycles: 18117488848 heartbeat IPC: 0.4379 cumulative IPC: 0.09273 (Simulation time: 01 hr 33 min 16 sec)
Heartbeat CPU 0 instructions: 1690000231 cycles: 18125922711 heartbeat IPC: 1.186 cumulative IPC: 0.09324 (Simulation time: 01 hr 34 min 18 sec)
Heartbeat CPU 0 instructions: 1700000232 cycles: 18138710672 heartbeat IPC: 0.782 cumulative IPC: 0.09372 (Simulation time: 01 hr 35 min 30 sec)
Heartbeat CPU 0 instructions: 1710000233 cycles: 18150158342 heartbeat IPC: 0.8735 cumulative IPC: 0.09421 (Simulation time: 01 hr 36 min 39 sec)
Heartbeat CPU 0 instructions: 1720000233 cycles: 18160246520 heartbeat IPC: 0.9913 cumulative IPC: 0.09471 (Simulation time: 01 hr 37 min 39 sec)
Heartbeat CPU 0 instructions: 1730000235 cycles: 18168867832 heartbeat IPC: 1.16 cumulative IPC: 0.09522 (Simulation time: 01 hr 38 min 35 sec)
Heartbeat CPU 0 instructions: 1740000235 cycles: 18187911622 heartbeat IPC: 0.5251 cumulative IPC: 0.09567 (Simulation time: 01 hr 40 min 37 sec)
Heartbeat CPU 0 instructions: 1750000236 cycles: 18196551322 heartbeat IPC: 1.157 cumulative IPC: 0.09617 (Simulation time: 01 hr 41 min 37 sec)
Heartbeat CPU 0 instructions: 1760000236 cycles: 18209808244 heartbeat IPC: 0.7543 cumulative IPC: 0.09665 (Simulation time: 01 hr 42 min 44 sec)
Heartbeat CPU 0 instructions: 1770000237 cycles: 18219663901 heartbeat IPC: 1.015 cumulative IPC: 0.09715 (Simulation time: 01 hr 43 min 50 sec)
Heartbeat CPU 0 instructions: 1780000237 cycles: 18240342188 heartbeat IPC: 0.4836 cumulative IPC: 0.09759 (Simulation time: 01 hr 45 min 32 sec)
Heartbeat CPU 0 instructions: 1790000238 cycles: 18288252145 heartbeat IPC: 0.2087 cumulative IPC: 0.09788 (Simulation time: 01 hr 49 min 10 sec)
Heartbeat CPU 0 instructions: 1800000240 cycles: 18310424231 heartbeat IPC: 0.451 cumulative IPC: 0.0983 (Simulation time: 01 hr 51 min 34 sec)
Heartbeat CPU 0 instructions: 1810000240 cycles: 18320294435 heartbeat IPC: 1.013 cumulative IPC: 0.0988 (Simulation time: 01 hr 52 min 49 sec)
Heartbeat CPU 0 instructions: 1820000242 cycles: 18340249396 heartbeat IPC: 0.5011 cumulative IPC: 0.09924 (Simulation time: 01 hr 55 min 05 sec)
Heartbeat CPU 0 instructions: 1830000243 cycles: 18349968212 heartbeat IPC: 1.029 cumulative IPC: 0.09973 (Simulation time: 01 hr 56 min 18 sec)
Heartbeat CPU 0 instructions: 1840000243 cycles: 18357807961 heartbeat IPC: 1.276 cumulative IPC: 0.1002 (Simulation time: 01 hr 57 min 20 sec)
Heartbeat CPU 0 instructions: 1850000243 cycles: 18367711802 heartbeat IPC: 1.01 cumulative IPC: 0.1007 (Simulation time: 01 hr 58 min 35 sec)
Heartbeat CPU 0 instructions: 1860000245 cycles: 18382786207 heartbeat IPC: 0.6634 cumulative IPC: 0.1012 (Simulation time: 02 hr 00 min 15 sec)
Heartbeat CPU 0 instructions: 1870000249 cycles: 18398407427 heartbeat IPC: 0.6402 cumulative IPC: 0.1016 (Simulation time: 02 hr 01 min 47 sec)
Heartbeat CPU 0 instructions: 1880000253 cycles: 18407209356 heartbeat IPC: 1.136 cumulative IPC: 0.1021 (Simulation time: 02 hr 02 min 42 sec)
Heartbeat CPU 0 instructions: 1890000255 cycles: 18423967275 heartbeat IPC: 0.5967 cumulative IPC: 0.1026 (Simulation time: 02 hr 04 min 24 sec)
Heartbeat CPU 0 instructions: 1900000258 cycles: 18432472424 heartbeat IPC: 1.176 cumulative IPC: 0.1031 (Simulation time: 02 hr 05 min 30 sec)
Heartbeat CPU 0 instructions: 1910000258 cycles: 18443387510 heartbeat IPC: 0.9162 cumulative IPC: 0.1036 (Simulation time: 02 hr 06 min 45 sec)
Heartbeat CPU 0 instructions: 1920000259 cycles: 18452829115 heartbeat IPC: 1.059 cumulative IPC: 0.104 (Simulation time: 02 hr 07 min 35 sec)
Heartbeat CPU 0 instructions: 1930000261 cycles: 18468733184 heartbeat IPC: 0.6288 cumulative IPC: 0.1045 (Simulation time: 02 hr 09 min 26 sec)
Heartbeat CPU 0 instructions: 1940000262 cycles: 18477550540 heartbeat IPC: 1.134 cumulative IPC: 0.105 (Simulation time: 02 hr 10 min 36 sec)
Heartbeat CPU 0 instructions: 1950000265 cycles: 18489626183 heartbeat IPC: 0.8281 cumulative IPC: 0.1055 (Simulation time: 02 hr 11 min 51 sec)
Heartbeat CPU 0 instructions: 1960000268 cycles: 18499818434 heartbeat IPC: 0.9811 cumulative IPC: 0.1059 (Simulation time: 02 hr 12 min 49 sec)
Heartbeat CPU 0 instructions: 1970000270 cycles: 18525576045 heartbeat IPC: 0.3882 cumulative IPC: 0.1063 (Simulation time: 02 hr 15 min 15 sec)
Heartbeat CPU 0 instructions: 1980000271 cycles: 18573199014 heartbeat IPC: 0.21 cumulative IPC: 0.1066 (Simulation time: 02 hr 19 min 49 sec)
Heartbeat CPU 0 instructions: 1990000271 cycles: 18621342196 heartbeat IPC: 0.2077 cumulative IPC: 0.1069 (Simulation time: 02 hr 24 min 26 sec)

=== ERROR PAGE STATISTICS ===
Mode: OFF
Total Error Accesses: 0
==============================
Simulation finished CPU 0 instructions: 1999999938 cycles: 18665705745 cumulative IPC: 0.1071 (Simulation time: 02 hr 27 min 43 sec)
Simulation complete CPU 0 instructions: 1999999938 cycles: 18665705745 cumulative IPC: 0.1071 (Simulation time: 02 hr 27 min 43 sec)

ChampSim completed all CPUs

=== Simulation ===
CPU 0 runs test_traces/605.mcf_s-994B.champsimtrace.xz

Region of Interest Statistics

CPU 0 cumulative IPC: 0.1071 instructions: 1999999938 cycles: 18665705745
CPU 0 Branch Prediction Accuracy: 92.62% MPKI: 18.99 Average ROB Occupancy at Mispredict: 32.67
Branch type MPKI
BRANCH_DIRECT_JUMP: 0.123
BRANCH_INDIRECT: 0
BRANCH_CONDITIONAL: 18.86
BRANCH_DIRECT_CALL: 6.5e-06
BRANCH_INDIRECT_CALL: 0.0004185
BRANCH_RETURN: 1e-05

cpu0->cpu0_STLB TOTAL        ACCESS:    6367184 HIT:    6361238 MISS:       5946 MSHR_MERGE:          0
cpu0->cpu0_STLB LOAD         ACCESS:    6367184 HIT:    6361238 MISS:       5946 MSHR_MERGE:          0
cpu0->cpu0_STLB RFO          ACCESS:          0 HIT:          0 MISS:          0 MSHR_MERGE:          0
cpu0->cpu0_STLB PREFETCH     ACCESS:          0 HIT:          0 MISS:          0 MSHR_MERGE:          0
cpu0->cpu0_STLB WRITE        ACCESS:          0 HIT:          0 MISS:          0 MSHR_MERGE:          0
cpu0->cpu0_STLB TRANSLATION  ACCESS:          0 HIT:          0 MISS:          0 MSHR_MERGE:          0
cpu0->cpu0_STLB PREFETCH REQUESTED:          0 ISSUED:          0 USEFUL:          0 USELESS:          0
cpu0->cpu0_STLB AVERAGE MISS LATENCY: 2.664e+06 cycles
cpu0->cpu0_L2C TOTAL        ACCESS:   81180898 HIT:   27540090 MISS:   53640808 MSHR_MERGE:          0
cpu0->cpu0_L2C LOAD         ACCESS:   75043353 HIT:   21467001 MISS:   53576352 MSHR_MERGE:          0
cpu0->cpu0_L2C RFO          ACCESS:     492555 HIT:     432385 MISS:      60170 MSHR_MERGE:          0
cpu0->cpu0_L2C PREFETCH     ACCESS:          0 HIT:          0 MISS:          0 MSHR_MERGE:          0
cpu0->cpu0_L2C WRITE        ACCESS:    5644990 HIT:    5640704 MISS:       4286 MSHR_MERGE:          0
cpu0->cpu0_L2C TRANSLATION  ACCESS:          0 HIT:          0 MISS:          0 MSHR_MERGE:          0
cpu0->cpu0_L2C PREFETCH REQUESTED:          0 ISSUED:          0 USEFUL:          0 USELESS:          0
cpu0->cpu0_L2C AVERAGE MISS LATENCY: 94.04 cycles
cpu0->cpu0_L1I TOTAL        ACCESS:    2878709 HIT:    2878618 MISS:         91 MSHR_MERGE:         25
cpu0->cpu0_L1I LOAD         ACCESS:    2878709 HIT:    2878618 MISS:         91 MSHR_MERGE:         25
cpu0->cpu0_L1I RFO          ACCESS:          0 HIT:          0 MISS:          0 MSHR_MERGE:          0
cpu0->cpu0_L1I PREFETCH     ACCESS:          0 HIT:          0 MISS:          0 MSHR_MERGE:          0
cpu0->cpu0_L1I WRITE        ACCESS:          0 HIT:          0 MISS:          0 MSHR_MERGE:          0
cpu0->cpu0_L1I TRANSLATION  ACCESS:          0 HIT:          0 MISS:          0 MSHR_MERGE:          0
cpu0->cpu0_L1I PREFETCH REQUESTED:          0 ISSUED:          0 USEFUL:          0 USELESS:          0
cpu0->cpu0_L1I AVERAGE MISS LATENCY: 103.9 cycles
cpu0->cpu0_L1D TOTAL        ACCESS:  810616057 HIT:  728261381 MISS:   82354676 MSHR_MERGE:    6817717
cpu0->cpu0_L1D LOAD         ACCESS:  610032397 HIT:  529054365 MISS:   80978032 MSHR_MERGE:    5934724
cpu0->cpu0_L1D RFO          ACCESS:          0 HIT:          0 MISS:          0 MSHR_MERGE:          0
cpu0->cpu0_L1D PREFETCH     ACCESS:          0 HIT:          0 MISS:          0 MSHR_MERGE:          0
cpu0->cpu0_L1D WRITE        ACCESS:  200583660 HIT:  199207016 MISS:    1376644 MSHR_MERGE:     882993
cpu0->cpu0_L1D TRANSLATION  ACCESS:          0 HIT:          0 MISS:          0 MSHR_MERGE:          0
cpu0->cpu0_L1D PREFETCH REQUESTED:          0 ISSUED:          0 USEFUL:          0 USELESS:          0
cpu0->cpu0_L1D AVERAGE MISS LATENCY: 75.62 cycles
cpu0->cpu0_ITLB TOTAL        ACCESS:    2728130 HIT:    2728129 MISS:          1 MSHR_MERGE:          0
cpu0->cpu0_ITLB LOAD         ACCESS:    2728130 HIT:    2728129 MISS:          1 MSHR_MERGE:          0
cpu0->cpu0_ITLB RFO          ACCESS:          0 HIT:          0 MISS:          0 MSHR_MERGE:          0
cpu0->cpu0_ITLB PREFETCH     ACCESS:          0 HIT:          0 MISS:          0 MSHR_MERGE:          0
cpu0->cpu0_ITLB WRITE        ACCESS:          0 HIT:          0 MISS:          0 MSHR_MERGE:          0
cpu0->cpu0_ITLB TRANSLATION  ACCESS:          0 HIT:          0 MISS:          0 MSHR_MERGE:          0
cpu0->cpu0_ITLB PREFETCH REQUESTED:          0 ISSUED:          0 USEFUL:          0 USELESS:          0
cpu0->cpu0_ITLB AVERAGE MISS LATENCY: 1.848e+07 cycles
cpu0->cpu0_DTLB TOTAL        ACCESS:  706560890 HIT:  699649053 MISS:    6911837 MSHR_MERGE:     544654
cpu0->cpu0_DTLB LOAD         ACCESS:  706560890 HIT:  699649053 MISS:    6911837 MSHR_MERGE:     544654
cpu0->cpu0_DTLB RFO          ACCESS:          0 HIT:          0 MISS:          0 MSHR_MERGE:          0
cpu0->cpu0_DTLB PREFETCH     ACCESS:          0 HIT:          0 MISS:          0 MSHR_MERGE:          0
cpu0->cpu0_DTLB WRITE        ACCESS:          0 HIT:          0 MISS:          0 MSHR_MERGE:          0
cpu0->cpu0_DTLB TRANSLATION  ACCESS:          0 HIT:          0 MISS:          0 MSHR_MERGE:          0
cpu0->cpu0_DTLB PREFETCH REQUESTED:          0 ISSUED:          0 USEFUL:          0 USELESS:          0
cpu0->cpu0_DTLB AVERAGE MISS LATENCY: 2490 cycles
cpu0->LLC TOTAL        ACCESS:   57571122 HIT:   16528572 MISS:   41042550 MSHR_MERGE:          0
cpu0->LLC LOAD         ACCESS:   53576352 HIT:   12553513 MISS:   41022839 MSHR_MERGE:          0
cpu0->LLC RFO          ACCESS:      60170 HIT:      41695 MISS:      18475 MSHR_MERGE:          0
cpu0->LLC PREFETCH     ACCESS:          0 HIT:          0 MISS:          0 MSHR_MERGE:          0
cpu0->LLC WRITE        ACCESS:    3934600 HIT:    3933364 MISS:       1236 MSHR_MERGE:          0
cpu0->LLC TRANSLATION  ACCESS:          0 HIT:          0 MISS:          0 MSHR_MERGE:          0
cpu0->LLC PREFETCH REQUESTED:          0 ISSUED:          0 USEFUL:          0 USELESS:          0
cpu0->LLC AVERAGE MISS LATENCY: 102.3 cycles

DRAM Statistics

Channel 0 RQ ROW_BUFFER_HIT:     274009
  ROW_BUFFER_MISS:   20252748
  AVG DBUS CONGESTED CYCLE: 9.313
Channel 0 WQ ROW_BUFFER_HIT:     330640
  ROW_BUFFER_MISS:    1237000
  FULL:          0
Channel 0 REFRESHES ISSUED:    1555375

Channel 1 RQ ROW_BUFFER_HIT:     274206
  ROW_BUFFER_MISS:   20252202
  AVG DBUS CONGESTED CYCLE: 9.311
Channel 1 WQ ROW_BUFFER_HIT:     330346
  ROW_BUFFER_MISS:    1237655
  FULL:          0
Channel 1 REFRESHES ISSUED:    1555375
