[VMEM] WARNING: physical memory size is smaller than virtual memory size.

*** ChampSim Multicore Out-of-Order Simulator ***
Warmup Instructions: 0
Simulation Instructions: 9223372036854775807
Number of CPUs: 1
Page size: 4096

Off-chip DRAM Size: 64 GiB Channels: 2 Width: 32-bit Data Rate: 4807 MT/s
[ERROR_PAGE_MANAGER] Error latency: 173500 
[ERROR_PAGE_MANAGER] Random seed: 54321 (fixed for preload reproducibility)
[ERROR_PAGE_MANAGER] Cycle-based error modeling enabled
[ERROR_PAGE_MANAGER] Errors per interval: 1
[ERROR_PAGE_MANAGER] Error cycle interval: 4648416149 cycles

=== ERROR PAGE STATISTICS ===
Mode: CYCLE
Error Cycle Interval: 4648416149 CPU cycles
Total Error Accesses: 0
==============================
Warmup finished CPU 0 instructions: 0 cycles: 1 cumulative IPC: 0 (Simulation time: 00 hr 00 min 01 sec)
Warmup complete CPU 0 instructions: 0 cycles: 1 cumulative IPC: 0 (Simulation time: 00 hr 00 min 01 sec)
Heartbeat CPU 0 instructions: 10000001 cycles: 16021136 heartbeat IPC: 0.6242 cumulative IPC: 0.6242 (Simulation time: 00 hr 02 min 19 sec)
Heartbeat CPU 0 instructions: 20000004 cycles: 32014189 heartbeat IPC: 0.6253 cumulative IPC: 0.6247 (Simulation time: 00 hr 04 min 34 sec)
Heartbeat CPU 0 instructions: 30000005 cycles: 47964178 heartbeat IPC: 0.627 cumulative IPC: 0.6255 (Simulation time: 00 hr 06 min 58 sec)
Heartbeat CPU 0 instructions: 40000009 cycles: 63941486 heartbeat IPC: 0.6259 cumulative IPC: 0.6256 (Simulation time: 00 hr 09 min 24 sec)
Heartbeat CPU 0 instructions: 50000010 cycles: 79908833 heartbeat IPC: 0.6263 cumulative IPC: 0.6257 (Simulation time: 00 hr 11 min 26 sec)
Heartbeat CPU 0 instructions: 60000010 cycles: 95888896 heartbeat IPC: 0.6258 cumulative IPC: 0.6257 (Simulation time: 00 hr 13 min 24 sec)
Heartbeat CPU 0 instructions: 70000012 cycles: 111822773 heartbeat IPC: 0.6276 cumulative IPC: 0.626 (Simulation time: 00 hr 15 min 43 sec)
Heartbeat CPU 0 instructions: 80000015 cycles: 127759556 heartbeat IPC: 0.6275 cumulative IPC: 0.6262 (Simulation time: 00 hr 18 min 02 sec)
Heartbeat CPU 0 instructions: 90000016 cycles: 143735635 heartbeat IPC: 0.6259 cumulative IPC: 0.6261 (Simulation time: 00 hr 20 min 23 sec)
Heartbeat CPU 0 instructions: 100000016 cycles: 159696749 heartbeat IPC: 0.6265 cumulative IPC: 0.6262 (Simulation time: 00 hr 22 min 44 sec)
Heartbeat CPU 0 instructions: 110000017 cycles: 175627962 heartbeat IPC: 0.6277 cumulative IPC: 0.6263 (Simulation time: 00 hr 25 min 04 sec)
Heartbeat CPU 0 instructions: 120000020 cycles: 191578116 heartbeat IPC: 0.627 cumulative IPC: 0.6264 (Simulation time: 00 hr 27 min 28 sec)
Heartbeat CPU 0 instructions: 130000021 cycles: 207545228 heartbeat IPC: 0.6263 cumulative IPC: 0.6264 (Simulation time: 00 hr 29 min 51 sec)
Heartbeat CPU 0 instructions: 140000025 cycles: 223480943 heartbeat IPC: 0.6275 cumulative IPC: 0.6265 (Simulation time: 00 hr 32 min 14 sec)
Heartbeat CPU 0 instructions: 150000029 cycles: 239430553 heartbeat IPC: 0.627 cumulative IPC: 0.6265 (Simulation time: 00 hr 34 min 36 sec)
Heartbeat CPU 0 instructions: 160000031 cycles: 255373128 heartbeat IPC: 0.6273 cumulative IPC: 0.6265 (Simulation time: 00 hr 36 min 55 sec)
Heartbeat CPU 0 instructions: 170000031 cycles: 271293126 heartbeat IPC: 0.6281 cumulative IPC: 0.6266 (Simulation time: 00 hr 39 min 13 sec)
Heartbeat CPU 0 instructions: 180000032 cycles: 287233561 heartbeat IPC: 0.6273 cumulative IPC: 0.6267 (Simulation time: 00 hr 41 min 33 sec)
Heartbeat CPU 0 instructions: 190000036 cycles: 303180178 heartbeat IPC: 0.6271 cumulative IPC: 0.6267 (Simulation time: 00 hr 43 min 52 sec)
Heartbeat CPU 0 instructions: 200000036 cycles: 319114041 heartbeat IPC: 0.6276 cumulative IPC: 0.6267 (Simulation time: 00 hr 45 min 31 sec)
Heartbeat CPU 0 instructions: 210000036 cycles: 335064232 heartbeat IPC: 0.627 cumulative IPC: 0.6267 (Simulation time: 00 hr 47 min 20 sec)
Heartbeat CPU 0 instructions: 220000036 cycles: 351008057 heartbeat IPC: 0.6272 cumulative IPC: 0.6268 (Simulation time: 00 hr 49 min 17 sec)
Heartbeat CPU 0 instructions: 230000039 cycles: 366945677 heartbeat IPC: 0.6274 cumulative IPC: 0.6268 (Simulation time: 00 hr 51 min 28 sec)
Heartbeat CPU 0 instructions: 240000039 cycles: 382904067 heartbeat IPC: 0.6266 cumulative IPC: 0.6268 (Simulation time: 00 hr 53 min 19 sec)
Heartbeat CPU 0 instructions: 250000039 cycles: 398876280 heartbeat IPC: 0.6261 cumulative IPC: 0.6268 (Simulation time: 00 hr 55 min 26 sec)
Heartbeat CPU 0 instructions: 260000040 cycles: 414816943 heartbeat IPC: 0.6273 cumulative IPC: 0.6268 (Simulation time: 00 hr 57 min 38 sec)
Heartbeat CPU 0 instructions: 270000041 cycles: 430778485 heartbeat IPC: 0.6265 cumulative IPC: 0.6268 (Simulation time: 00 hr 59 min 27 sec)
Heartbeat CPU 0 instructions: 280000041 cycles: 462736034 heartbeat IPC: 0.3129 cumulative IPC: 0.6051 (Simulation time: 01 hr 04 min 14 sec)
Heartbeat CPU 0 instructions: 290000043 cycles: 494556166 heartbeat IPC: 0.3143 cumulative IPC: 0.5864 (Simulation time: 01 hr 09 min 05 sec)
Heartbeat CPU 0 instructions: 300000043 cycles: 511120865 heartbeat IPC: 0.6037 cumulative IPC: 0.5869 (Simulation time: 01 hr 10 min 49 sec)
Heartbeat CPU 0 instructions: 310000044 cycles: 526986323 heartbeat IPC: 0.6303 cumulative IPC: 0.5883 (Simulation time: 01 hr 12 min 36 sec)
Heartbeat CPU 0 instructions: 320000044 cycles: 542873076 heartbeat IPC: 0.6295 cumulative IPC: 0.5895 (Simulation time: 01 hr 14 min 31 sec)
Heartbeat CPU 0 instructions: 330000045 cycles: 557878139 heartbeat IPC: 0.6664 cumulative IPC: 0.5915 (Simulation time: 01 hr 16 min 12 sec)
Heartbeat CPU 0 instructions: 340000046 cycles: 571042839 heartbeat IPC: 0.7596 cumulative IPC: 0.5954 (Simulation time: 01 hr 18 min 09 sec)
Heartbeat CPU 0 instructions: 350000047 cycles: 584212196 heartbeat IPC: 0.7593 cumulative IPC: 0.5991 (Simulation time: 01 hr 19 min 51 sec)
Heartbeat CPU 0 instructions: 360000047 cycles: 597352400 heartbeat IPC: 0.761 cumulative IPC: 0.6027 (Simulation time: 01 hr 21 min 20 sec)
Heartbeat CPU 0 instructions: 370000049 cycles: 610497273 heartbeat IPC: 0.7608 cumulative IPC: 0.6061 (Simulation time: 01 hr 22 min 43 sec)
Heartbeat CPU 0 instructions: 380000053 cycles: 623642050 heartbeat IPC: 0.7608 cumulative IPC: 0.6093 (Simulation time: 01 hr 24 min 05 sec)
Heartbeat CPU 0 instructions: 390000054 cycles: 636777885 heartbeat IPC: 0.7613 cumulative IPC: 0.6125 (Simulation time: 01 hr 25 min 40 sec)
Heartbeat CPU 0 instructions: 400000058 cycles: 649901028 heartbeat IPC: 0.762 cumulative IPC: 0.6155 (Simulation time: 01 hr 27 min 11 sec)
Heartbeat CPU 0 instructions: 410000061 cycles: 663045154 heartbeat IPC: 0.7608 cumulative IPC: 0.6184 (Simulation time: 01 hr 28 min 53 sec)
Heartbeat CPU 0 instructions: 420000061 cycles: 676175750 heartbeat IPC: 0.7616 cumulative IPC: 0.6211 (Simulation time: 01 hr 30 min 31 sec)
Heartbeat CPU 0 instructions: 430000064 cycles: 689327753 heartbeat IPC: 0.7603 cumulative IPC: 0.6238 (Simulation time: 01 hr 31 min 57 sec)
Heartbeat CPU 0 instructions: 440000067 cycles: 702441796 heartbeat IPC: 0.7625 cumulative IPC: 0.6264 (Simulation time: 01 hr 33 min 59 sec)
Heartbeat CPU 0 instructions: 450000071 cycles: 715596121 heartbeat IPC: 0.7602 cumulative IPC: 0.6288 (Simulation time: 01 hr 36 min 03 sec)
Heartbeat CPU 0 instructions: 460000072 cycles: 728732960 heartbeat IPC: 0.7612 cumulative IPC: 0.6312 (Simulation time: 01 hr 38 min 06 sec)
Heartbeat CPU 0 instructions: 470000074 cycles: 741860848 heartbeat IPC: 0.7617 cumulative IPC: 0.6335 (Simulation time: 01 hr 40 min 09 sec)
Heartbeat CPU 0 instructions: 480000075 cycles: 754987310 heartbeat IPC: 0.7618 cumulative IPC: 0.6358 (Simulation time: 01 hr 42 min 09 sec)
Heartbeat CPU 0 instructions: 490000076 cycles: 768135201 heartbeat IPC: 0.7606 cumulative IPC: 0.6379 (Simulation time: 01 hr 43 min 58 sec)
Heartbeat CPU 0 instructions: 500000076 cycles: 781293163 heartbeat IPC: 0.76 cumulative IPC: 0.64 (Simulation time: 01 hr 45 min 39 sec)
Heartbeat CPU 0 instructions: 510000079 cycles: 794428081 heartbeat IPC: 0.7613 cumulative IPC: 0.642 (Simulation time: 01 hr 47 min 38 sec)
Heartbeat CPU 0 instructions: 520000082 cycles: 807578016 heartbeat IPC: 0.7605 cumulative IPC: 0.6439 (Simulation time: 01 hr 49 min 23 sec)
Heartbeat CPU 0 instructions: 530000082 cycles: 820725199 heartbeat IPC: 0.7606 cumulative IPC: 0.6458 (Simulation time: 01 hr 51 min 25 sec)
Heartbeat CPU 0 instructions: 540000083 cycles: 833854352 heartbeat IPC: 0.7617 cumulative IPC: 0.6476 (Simulation time: 01 hr 53 min 26 sec)
Heartbeat CPU 0 instructions: 550000084 cycles: 846975953 heartbeat IPC: 0.7621 cumulative IPC: 0.6494 (Simulation time: 01 hr 55 min 20 sec)
Heartbeat CPU 0 instructions: 560000086 cycles: 860105906 heartbeat IPC: 0.7616 cumulative IPC: 0.6511 (Simulation time: 01 hr 57 min 15 sec)
Heartbeat CPU 0 instructions: 570000086 cycles: 873232181 heartbeat IPC: 0.7618 cumulative IPC: 0.6527 (Simulation time: 01 hr 59 min 19 sec)
Heartbeat CPU 0 instructions: 580000086 cycles: 886378050 heartbeat IPC: 0.7607 cumulative IPC: 0.6543 (Simulation time: 02 hr 01 min 17 sec)
Heartbeat CPU 0 instructions: 590000088 cycles: 899529085 heartbeat IPC: 0.7604 cumulative IPC: 0.6559 (Simulation time: 02 hr 02 min 37 sec)
Heartbeat CPU 0 instructions: 600000091 cycles: 912652843 heartbeat IPC: 0.762 cumulative IPC: 0.6574 (Simulation time: 02 hr 04 min 24 sec)
Heartbeat CPU 0 instructions: 610000093 cycles: 925373924 heartbeat IPC: 0.7861 cumulative IPC: 0.6592 (Simulation time: 02 hr 05 min 43 sec)
Heartbeat CPU 0 instructions: 620000095 cycles: 937055783 heartbeat IPC: 0.856 cumulative IPC: 0.6616 (Simulation time: 02 hr 07 min 24 sec)
Heartbeat CPU 0 instructions: 630000096 cycles: 948770727 heartbeat IPC: 0.8536 cumulative IPC: 0.664 (Simulation time: 02 hr 09 min 19 sec)
Heartbeat CPU 0 instructions: 640000096 cycles: 960459777 heartbeat IPC: 0.8555 cumulative IPC: 0.6663 (Simulation time: 02 hr 11 min 03 sec)
Heartbeat CPU 0 instructions: 650000096 cycles: 972172639 heartbeat IPC: 0.8538 cumulative IPC: 0.6686 (Simulation time: 02 hr 13 min 00 sec)
Heartbeat CPU 0 instructions: 660000097 cycles: 983858902 heartbeat IPC: 0.8557 cumulative IPC: 0.6708 (Simulation time: 02 hr 14 min 49 sec)
Heartbeat CPU 0 instructions: 670000097 cycles: 995586308 heartbeat IPC: 0.8527 cumulative IPC: 0.673 (Simulation time: 02 hr 16 min 21 sec)
Heartbeat CPU 0 instructions: 680000100 cycles: 1007438578 heartbeat IPC: 0.8437 cumulative IPC: 0.675 (Simulation time: 02 hr 18 min 05 sec)
Heartbeat CPU 0 instructions: 690000100 cycles: 1019514163 heartbeat IPC: 0.8281 cumulative IPC: 0.6768 (Simulation time: 02 hr 19 min 49 sec)
Heartbeat CPU 0 instructions: 700000104 cycles: 1030890850 heartbeat IPC: 0.879 cumulative IPC: 0.679 (Simulation time: 02 hr 21 min 30 sec)
Heartbeat CPU 0 instructions: 710000107 cycles: 1042289617 heartbeat IPC: 0.8773 cumulative IPC: 0.6812 (Simulation time: 02 hr 23 min 18 sec)
Heartbeat CPU 0 instructions: 720000111 cycles: 1053676746 heartbeat IPC: 0.8782 cumulative IPC: 0.6833 (Simulation time: 02 hr 24 min 59 sec)
Heartbeat CPU 0 instructions: 730000111 cycles: 1065074082 heartbeat IPC: 0.8774 cumulative IPC: 0.6854 (Simulation time: 02 hr 26 min 28 sec)
Heartbeat CPU 0 instructions: 740000113 cycles: 1076452362 heartbeat IPC: 0.8789 cumulative IPC: 0.6874 (Simulation time: 02 hr 28 min 14 sec)
Heartbeat CPU 0 instructions: 750000113 cycles: 1087850988 heartbeat IPC: 0.8773 cumulative IPC: 0.6894 (Simulation time: 02 hr 29 min 59 sec)
Heartbeat CPU 0 instructions: 760000117 cycles: 1099253770 heartbeat IPC: 0.877 cumulative IPC: 0.6914 (Simulation time: 02 hr 31 min 49 sec)
Heartbeat CPU 0 instructions: 770000118 cycles: 1110790851 heartbeat IPC: 0.8668 cumulative IPC: 0.6932 (Simulation time: 02 hr 33 min 41 sec)
Heartbeat CPU 0 instructions: 780000121 cycles: 1123543065 heartbeat IPC: 0.7842 cumulative IPC: 0.6942 (Simulation time: 02 hr 35 min 18 sec)
Heartbeat CPU 0 instructions: 790000123 cycles: 1136336580 heartbeat IPC: 0.7816 cumulative IPC: 0.6952 (Simulation time: 02 hr 37 min 17 sec)
Heartbeat CPU 0 instructions: 800000124 cycles: 1149050242 heartbeat IPC: 0.7866 cumulative IPC: 0.6962 (Simulation time: 02 hr 38 min 54 sec)
Heartbeat CPU 0 instructions: 810000126 cycles: 1161743382 heartbeat IPC: 0.7878 cumulative IPC: 0.6972 (Simulation time: 02 hr 40 min 20 sec)
Heartbeat CPU 0 instructions: 820000126 cycles: 1174030691 heartbeat IPC: 0.8138 cumulative IPC: 0.6984 (Simulation time: 02 hr 41 min 49 sec)
Heartbeat CPU 0 instructions: 830000130 cycles: 1186257451 heartbeat IPC: 0.8179 cumulative IPC: 0.6997 (Simulation time: 02 hr 43 min 24 sec)
Heartbeat CPU 0 instructions: 840000132 cycles: 1198483497 heartbeat IPC: 0.8179 cumulative IPC: 0.7009 (Simulation time: 02 hr 45 min 24 sec)
Heartbeat CPU 0 instructions: 850000133 cycles: 1210712731 heartbeat IPC: 0.8177 cumulative IPC: 0.7021 (Simulation time: 02 hr 47 min 22 sec)
Heartbeat CPU 0 instructions: 860000134 cycles: 1223208308 heartbeat IPC: 0.8003 cumulative IPC: 0.7031 (Simulation time: 02 hr 49 min 19 sec)
Heartbeat CPU 0 instructions: 870000138 cycles: 1235881807 heartbeat IPC: 0.789 cumulative IPC: 0.704 (Simulation time: 02 hr 50 min 48 sec)
Heartbeat CPU 0 instructions: 880000142 cycles: 1248573457 heartbeat IPC: 0.7879 cumulative IPC: 0.7048 (Simulation time: 02 hr 52 min 20 sec)
Heartbeat CPU 0 instructions: 890000145 cycles: 1261273183 heartbeat IPC: 0.7874 cumulative IPC: 0.7056 (Simulation time: 02 hr 53 min 47 sec)
Heartbeat CPU 0 instructions: 900000145 cycles: 1273850815 heartbeat IPC: 0.7951 cumulative IPC: 0.7065 (Simulation time: 02 hr 55 min 15 sec)
Heartbeat CPU 0 instructions: 910000146 cycles: 1286188308 heartbeat IPC: 0.8105 cumulative IPC: 0.7075 (Simulation time: 02 hr 56 min 37 sec)
Heartbeat CPU 0 instructions: 920000146 cycles: 1298474901 heartbeat IPC: 0.8139 cumulative IPC: 0.7085 (Simulation time: 02 hr 58 min 04 sec)
Heartbeat CPU 0 instructions: 930000146 cycles: 1310704922 heartbeat IPC: 0.8177 cumulative IPC: 0.7095 (Simulation time: 02 hr 59 min 58 sec)
Heartbeat CPU 0 instructions: 940000148 cycles: 1322943736 heartbeat IPC: 0.8171 cumulative IPC: 0.7105 (Simulation time: 03 hr 01 min 56 sec)
Heartbeat CPU 0 instructions: 950000151 cycles: 1335725511 heartbeat IPC: 0.7824 cumulative IPC: 0.7112 (Simulation time: 03 hr 03 min 57 sec)
Heartbeat CPU 0 instructions: 960000155 cycles: 1348496614 heartbeat IPC: 0.783 cumulative IPC: 0.7119 (Simulation time: 03 hr 05 min 57 sec)
Heartbeat CPU 0 instructions: 970000157 cycles: 1361208698 heartbeat IPC: 0.7867 cumulative IPC: 0.7126 (Simulation time: 03 hr 07 min 57 sec)
Heartbeat CPU 0 instructions: 980000157 cycles: 1373905873 heartbeat IPC: 0.7876 cumulative IPC: 0.7133 (Simulation time: 03 hr 09 min 59 sec)
Heartbeat CPU 0 instructions: 990000160 cycles: 1386218295 heartbeat IPC: 0.8122 cumulative IPC: 0.7142 (Simulation time: 03 hr 11 min 31 sec)
Heartbeat CPU 0 instructions: 1000000160 cycles: 1398466593 heartbeat IPC: 0.8164 cumulative IPC: 0.7151 (Simulation time: 03 hr 13 min 07 sec)
Heartbeat CPU 0 instructions: 1010000163 cycles: 1410720299 heartbeat IPC: 0.8161 cumulative IPC: 0.7159 (Simulation time: 03 hr 15 min 06 sec)
Heartbeat CPU 0 instructions: 1020000167 cycles: 1422951773 heartbeat IPC: 0.8176 cumulative IPC: 0.7168 (Simulation time: 03 hr 17 min 05 sec)
Heartbeat CPU 0 instructions: 1030000170 cycles: 1437116486 heartbeat IPC: 0.706 cumulative IPC: 0.7167 (Simulation time: 03 hr 18 min 52 sec)
Heartbeat CPU 0 instructions: 1040000173 cycles: 1449838680 heartbeat IPC: 0.786 cumulative IPC: 0.7173 (Simulation time: 03 hr 20 min 19 sec)
Heartbeat CPU 0 instructions: 1050000175 cycles: 1462183664 heartbeat IPC: 0.81 cumulative IPC: 0.7181 (Simulation time: 03 hr 21 min 51 sec)
Heartbeat CPU 0 instructions: 1060000178 cycles: 1474552126 heartbeat IPC: 0.8085 cumulative IPC: 0.7189 (Simulation time: 03 hr 23 min 40 sec)
Heartbeat CPU 0 instructions: 1070000182 cycles: 1486922825 heartbeat IPC: 0.8084 cumulative IPC: 0.7196 (Simulation time: 03 hr 25 min 39 sec)
Heartbeat CPU 0 instructions: 1080000183 cycles: 1499148065 heartbeat IPC: 0.818 cumulative IPC: 0.7204 (Simulation time: 03 hr 27 min 38 sec)
Heartbeat CPU 0 instructions: 1090000184 cycles: 1511190358 heartbeat IPC: 0.8304 cumulative IPC: 0.7213 (Simulation time: 03 hr 29 min 36 sec)
Heartbeat CPU 0 instructions: 1100000186 cycles: 1523220670 heartbeat IPC: 0.8312 cumulative IPC: 0.7222 (Simulation time: 03 hr 31 min 33 sec)
Heartbeat CPU 0 instructions: 1110000187 cycles: 1535152121 heartbeat IPC: 0.8381 cumulative IPC: 0.7231 (Simulation time: 03 hr 33 min 31 sec)
Heartbeat CPU 0 instructions: 1120000188 cycles: 1547109493 heartbeat IPC: 0.8363 cumulative IPC: 0.7239 (Simulation time: 03 hr 35 min 29 sec)
Heartbeat CPU 0 instructions: 1130000191 cycles: 1559566999 heartbeat IPC: 0.8027 cumulative IPC: 0.7246 (Simulation time: 03 hr 37 min 24 sec)
Heartbeat CPU 0 instructions: 1140000193 cycles: 1571986777 heartbeat IPC: 0.8052 cumulative IPC: 0.7252 (Simulation time: 03 hr 39 min 01 sec)
Heartbeat CPU 0 instructions: 1150000196 cycles: 1584411221 heartbeat IPC: 0.8049 cumulative IPC: 0.7258 (Simulation time: 03 hr 40 min 57 sec)
Heartbeat CPU 0 instructions: 1160000196 cycles: 1596777064 heartbeat IPC: 0.8087 cumulative IPC: 0.7265 (Simulation time: 03 hr 42 min 36 sec)
Heartbeat CPU 0 instructions: 1170000199 cycles: 1608835832 heartbeat IPC: 0.8293 cumulative IPC: 0.7272 (Simulation time: 03 hr 43 min 56 sec)
Heartbeat CPU 0 instructions: 1180000199 cycles: 1620778799 heartbeat IPC: 0.8373 cumulative IPC: 0.728 (Simulation time: 03 hr 45 min 18 sec)
Heartbeat CPU 0 instructions: 1190000200 cycles: 1632732243 heartbeat IPC: 0.8366 cumulative IPC: 0.7288 (Simulation time: 03 hr 46 min 36 sec)
Heartbeat CPU 0 instructions: 1200000201 cycles: 1644673459 heartbeat IPC: 0.8374 cumulative IPC: 0.7296 (Simulation time: 03 hr 48 min 18 sec)
Heartbeat CPU 0 instructions: 1210000202 cycles: 1656744435 heartbeat IPC: 0.8284 cumulative IPC: 0.7303 (Simulation time: 03 hr 50 min 18 sec)
Heartbeat CPU 0 instructions: 1220000205 cycles: 1669088425 heartbeat IPC: 0.8101 cumulative IPC: 0.7309 (Simulation time: 03 hr 52 min 20 sec)
Heartbeat CPU 0 instructions: 1230000206 cycles: 1681458056 heartbeat IPC: 0.8084 cumulative IPC: 0.7315 (Simulation time: 03 hr 53 min 52 sec)
Heartbeat CPU 0 instructions: 1240000208 cycles: 1693827493 heartbeat IPC: 0.8084 cumulative IPC: 0.7321 (Simulation time: 03 hr 55 min 14 sec)
Heartbeat CPU 0 instructions: 1250000210 cycles: 1706196743 heartbeat IPC: 0.8085 cumulative IPC: 0.7326 (Simulation time: 03 hr 57 min 15 sec)
Heartbeat CPU 0 instructions: 1260000210 cycles: 1718290516 heartbeat IPC: 0.8269 cumulative IPC: 0.7333 (Simulation time: 03 hr 58 min 58 sec)
Heartbeat CPU 0 instructions: 1270000214 cycles: 1730342480 heartbeat IPC: 0.8297 cumulative IPC: 0.734 (Simulation time: 04 hr 00 min 36 sec)
Heartbeat CPU 0 instructions: 1280000214 cycles: 1742297170 heartbeat IPC: 0.8365 cumulative IPC: 0.7347 (Simulation time: 04 hr 02 min 27 sec)
Heartbeat CPU 0 instructions: 1290000217 cycles: 1754202393 heartbeat IPC: 0.84 cumulative IPC: 0.7354 (Simulation time: 04 hr 04 min 05 sec)
Heartbeat CPU 0 instructions: 1300000217 cycles: 1814922974 heartbeat IPC: 0.1647 cumulative IPC: 0.7163 (Simulation time: 04 hr 11 min 06 sec)
Heartbeat CPU 0 instructions: 1310000219 cycles: 1828025928 heartbeat IPC: 0.7632 cumulative IPC: 0.7166 (Simulation time: 04 hr 12 min 51 sec)
Heartbeat CPU 0 instructions: 1320000219 cycles: 1840355934 heartbeat IPC: 0.811 cumulative IPC: 0.7173 (Simulation time: 04 hr 14 min 22 sec)
Heartbeat CPU 0 instructions: 1330000219 cycles: 1852684866 heartbeat IPC: 0.8111 cumulative IPC: 0.7179 (Simulation time: 04 hr 15 min 58 sec)
Heartbeat CPU 0 instructions: 1340000219 cycles: 1865024105 heartbeat IPC: 0.8104 cumulative IPC: 0.7185 (Simulation time: 04 hr 17 min 28 sec)
Heartbeat CPU 0 instructions: 1350000220 cycles: 1877388901 heartbeat IPC: 0.8087 cumulative IPC: 0.7191 (Simulation time: 04 hr 19 min 04 sec)
Heartbeat CPU 0 instructions: 1360000222 cycles: 1889517464 heartbeat IPC: 0.8245 cumulative IPC: 0.7198 (Simulation time: 04 hr 20 min 39 sec)
Heartbeat CPU 0 instructions: 1370000222 cycles: 1901477960 heartbeat IPC: 0.8361 cumulative IPC: 0.7205 (Simulation time: 04 hr 22 min 22 sec)
Heartbeat CPU 0 instructions: 1380000223 cycles: 1913755384 heartbeat IPC: 0.8145 cumulative IPC: 0.7211 (Simulation time: 04 hr 24 min 12 sec)
Heartbeat CPU 0 instructions: 1390000225 cycles: 1926049993 heartbeat IPC: 0.8134 cumulative IPC: 0.7217 (Simulation time: 04 hr 26 min 03 sec)
Heartbeat CPU 0 instructions: 1400000226 cycles: 1938266032 heartbeat IPC: 0.8186 cumulative IPC: 0.7223 (Simulation time: 04 hr 27 min 54 sec)
Heartbeat CPU 0 instructions: 1410000226 cycles: 1950827584 heartbeat IPC: 0.7961 cumulative IPC: 0.7228 (Simulation time: 04 hr 29 min 47 sec)
Heartbeat CPU 0 instructions: 1420000227 cycles: 1963655140 heartbeat IPC: 0.7796 cumulative IPC: 0.7231 (Simulation time: 04 hr 31 min 42 sec)
Heartbeat CPU 0 instructions: 1430000229 cycles: 1976361400 heartbeat IPC: 0.787 cumulative IPC: 0.7236 (Simulation time: 04 hr 33 min 36 sec)
Heartbeat CPU 0 instructions: 1440000229 cycles: 1988984053 heartbeat IPC: 0.7922 cumulative IPC: 0.724 (Simulation time: 04 hr 35 min 29 sec)
Heartbeat CPU 0 instructions: 1450000233 cycles: 2001313171 heartbeat IPC: 0.8111 cumulative IPC: 0.7245 (Simulation time: 04 hr 37 min 21 sec)
Heartbeat CPU 0 instructions: 1460000237 cycles: 2013676439 heartbeat IPC: 0.8088 cumulative IPC: 0.725 (Simulation time: 04 hr 39 min 01 sec)
Heartbeat CPU 0 instructions: 1470000240 cycles: 2026015379 heartbeat IPC: 0.8104 cumulative IPC: 0.7256 (Simulation time: 04 hr 40 min 29 sec)
Heartbeat CPU 0 instructions: 1480000243 cycles: 2038389867 heartbeat IPC: 0.8081 cumulative IPC: 0.7261 (Simulation time: 04 hr 42 min 17 sec)
Heartbeat CPU 0 instructions: 1490000245 cycles: 2050693484 heartbeat IPC: 0.8128 cumulative IPC: 0.7266 (Simulation time: 04 hr 43 min 55 sec)
Heartbeat CPU 0 instructions: 1500000246 cycles: 2062650313 heartbeat IPC: 0.8363 cumulative IPC: 0.7272 (Simulation time: 04 hr 45 min 20 sec)
Heartbeat CPU 0 instructions: 1510000246 cycles: 2074785902 heartbeat IPC: 0.824 cumulative IPC: 0.7278 (Simulation time: 04 hr 47 min 10 sec)
Heartbeat CPU 0 instructions: 1520000249 cycles: 2087103599 heartbeat IPC: 0.8118 cumulative IPC: 0.7283 (Simulation time: 04 hr 49 min 00 sec)
Heartbeat CPU 0 instructions: 1530000253 cycles: 2099345854 heartbeat IPC: 0.8168 cumulative IPC: 0.7288 (Simulation time: 04 hr 50 min 51 sec)
Heartbeat CPU 0 instructions: 1540000253 cycles: 2111679668 heartbeat IPC: 0.8108 cumulative IPC: 0.7293 (Simulation time: 04 hr 52 min 42 sec)
Heartbeat CPU 0 instructions: 1550000253 cycles: 2124518714 heartbeat IPC: 0.7789 cumulative IPC: 0.7296 (Simulation time: 04 hr 54 min 36 sec)
Heartbeat CPU 0 instructions: 1560000257 cycles: 2137276495 heartbeat IPC: 0.7838 cumulative IPC: 0.7299 (Simulation time: 04 hr 56 min 11 sec)
Heartbeat CPU 0 instructions: 1570000258 cycles: 2149949547 heartbeat IPC: 0.7891 cumulative IPC: 0.7302 (Simulation time: 04 hr 57 min 57 sec)
Heartbeat CPU 0 instructions: 1580000261 cycles: 2162349612 heartbeat IPC: 0.8064 cumulative IPC: 0.7307 (Simulation time: 04 hr 59 min 45 sec)
Heartbeat CPU 0 instructions: 1590000264 cycles: 2174689344 heartbeat IPC: 0.8104 cumulative IPC: 0.7311 (Simulation time: 05 hr 01 min 32 sec)
Heartbeat CPU 0 instructions: 1600000264 cycles: 2187014180 heartbeat IPC: 0.8114 cumulative IPC: 0.7316 (Simulation time: 05 hr 03 min 19 sec)
Heartbeat CPU 0 instructions: 1610000267 cycles: 2199366409 heartbeat IPC: 0.8096 cumulative IPC: 0.732 (Simulation time: 05 hr 04 min 54 sec)
Heartbeat CPU 0 instructions: 1620000270 cycles: 2211744852 heartbeat IPC: 0.8079 cumulative IPC: 0.7325 (Simulation time: 05 hr 06 min 45 sec)
Heartbeat CPU 0 instructions: 1630000271 cycles: 2223793670 heartbeat IPC: 0.83 cumulative IPC: 0.733 (Simulation time: 05 hr 08 min 25 sec)
Heartbeat CPU 0 instructions: 1640000274 cycles: 2235769228 heartbeat IPC: 0.835 cumulative IPC: 0.7335 (Simulation time: 05 hr 09 min 38 sec)
Heartbeat CPU 0 instructions: 1650000277 cycles: 2248070100 heartbeat IPC: 0.813 cumulative IPC: 0.734 (Simulation time: 05 hr 11 min 06 sec)
Heartbeat CPU 0 instructions: 1660000277 cycles: 2260341574 heartbeat IPC: 0.8149 cumulative IPC: 0.7344 (Simulation time: 05 hr 12 min 40 sec)
Heartbeat CPU 0 instructions: 1670000278 cycles: 2272555793 heartbeat IPC: 0.8187 cumulative IPC: 0.7349 (Simulation time: 05 hr 13 min 55 sec)
Heartbeat CPU 0 instructions: 1680000279 cycles: 2285250145 heartbeat IPC: 0.7878 cumulative IPC: 0.7351 (Simulation time: 05 hr 15 min 17 sec)
Heartbeat CPU 0 instructions: 1690000279 cycles: 2298082558 heartbeat IPC: 0.7793 cumulative IPC: 0.7354 (Simulation time: 05 hr 16 min 46 sec)
Heartbeat CPU 0 instructions: 1700000279 cycles: 2310735483 heartbeat IPC: 0.7903 cumulative IPC: 0.7357 (Simulation time: 05 hr 18 min 20 sec)
Heartbeat CPU 0 instructions: 1710000282 cycles: 2323263406 heartbeat IPC: 0.7982 cumulative IPC: 0.736 (Simulation time: 05 hr 20 min 12 sec)
Heartbeat CPU 0 instructions: 1720000284 cycles: 2335604718 heartbeat IPC: 0.8103 cumulative IPC: 0.7364 (Simulation time: 05 hr 22 min 00 sec)
Heartbeat CPU 0 instructions: 1730000284 cycles: 2347940054 heartbeat IPC: 0.8107 cumulative IPC: 0.7368 (Simulation time: 05 hr 23 min 36 sec)
Heartbeat CPU 0 instructions: 1740000285 cycles: 2360277918 heartbeat IPC: 0.8105 cumulative IPC: 0.7372 (Simulation time: 05 hr 25 min 28 sec)
Heartbeat CPU 0 instructions: 1750000287 cycles: 2372639825 heartbeat IPC: 0.8089 cumulative IPC: 0.7376 (Simulation time: 05 hr 27 min 20 sec)
Heartbeat CPU 0 instructions: 1760000287 cycles: 2384847429 heartbeat IPC: 0.8192 cumulative IPC: 0.738 (Simulation time: 05 hr 28 min 56 sec)
Heartbeat CPU 0 instructions: 1770000289 cycles: 2396789192 heartbeat IPC: 0.8374 cumulative IPC: 0.7385 (Simulation time: 05 hr 30 min 14 sec)
Heartbeat CPU 0 instructions: 1780000293 cycles: 2408998715 heartbeat IPC: 0.819 cumulative IPC: 0.7389 (Simulation time: 05 hr 32 min 05 sec)
Heartbeat CPU 0 instructions: 1790000295 cycles: 2421314053 heartbeat IPC: 0.812 cumulative IPC: 0.7393 (Simulation time: 05 hr 33 min 58 sec)
Heartbeat CPU 0 instructions: 1800000295 cycles: 2433538850 heartbeat IPC: 0.818 cumulative IPC: 0.7397 (Simulation time: 05 hr 35 min 50 sec)
Heartbeat CPU 0 instructions: 1810000297 cycles: 2445993008 heartbeat IPC: 0.8029 cumulative IPC: 0.74 (Simulation time: 05 hr 37 min 37 sec)
Heartbeat CPU 0 instructions: 1820000301 cycles: 2458843421 heartbeat IPC: 0.7782 cumulative IPC: 0.7402 (Simulation time: 05 hr 38 min 58 sec)
Heartbeat CPU 0 instructions: 1830000301 cycles: 2471551010 heartbeat IPC: 0.7869 cumulative IPC: 0.7404 (Simulation time: 05 hr 40 min 13 sec)
Heartbeat CPU 0 instructions: 1840000304 cycles: 2484212971 heartbeat IPC: 0.7898 cumulative IPC: 0.7407 (Simulation time: 05 hr 41 min 44 sec)
Heartbeat CPU 0 instructions: 1850000307 cycles: 2496563755 heartbeat IPC: 0.8097 cumulative IPC: 0.741 (Simulation time: 05 hr 43 min 34 sec)
Heartbeat CPU 0 instructions: 1860000308 cycles: 2508908305 heartbeat IPC: 0.8101 cumulative IPC: 0.7414 (Simulation time: 05 hr 45 min 25 sec)
Heartbeat CPU 0 instructions: 1870000309 cycles: 2521234654 heartbeat IPC: 0.8113 cumulative IPC: 0.7417 (Simulation time: 05 hr 46 min 46 sec)
Heartbeat CPU 0 instructions: 1880000310 cycles: 2533593899 heartbeat IPC: 0.8091 cumulative IPC: 0.742 (Simulation time: 05 hr 48 min 35 sec)
Heartbeat CPU 0 instructions: 1890000310 cycles: 2545962271 heartbeat IPC: 0.8085 cumulative IPC: 0.7424 (Simulation time: 05 hr 50 min 29 sec)
Heartbeat CPU 0 instructions: 1900000312 cycles: 2557911076 heartbeat IPC: 0.8369 cumulative IPC: 0.7428 (Simulation time: 05 hr 52 min 11 sec)
Heartbeat CPU 0 instructions: 1910000313 cycles: 2569982178 heartbeat IPC: 0.8284 cumulative IPC: 0.7432 (Simulation time: 05 hr 53 min 46 sec)
Heartbeat CPU 0 instructions: 1920000314 cycles: 2582282497 heartbeat IPC: 0.813 cumulative IPC: 0.7435 (Simulation time: 05 hr 55 min 35 sec)
Heartbeat CPU 0 instructions: 1930000317 cycles: 2594551857 heartbeat IPC: 0.815 cumulative IPC: 0.7439 (Simulation time: 05 hr 57 min 23 sec)
Heartbeat CPU 0 instructions: 1940000318 cycles: 2606768699 heartbeat IPC: 0.8185 cumulative IPC: 0.7442 (Simulation time: 05 hr 59 min 12 sec)
Heartbeat CPU 0 instructions: 1950000322 cycles: 2619619630 heartbeat IPC: 0.7782 cumulative IPC: 0.7444 (Simulation time: 06 hr 01 min 09 sec)
Heartbeat CPU 0 instructions: 1960000324 cycles: 2632390961 heartbeat IPC: 0.783 cumulative IPC: 0.7446 (Simulation time: 06 hr 03 min 04 sec)
Heartbeat CPU 0 instructions: 1970000324 cycles: 2645055164 heartbeat IPC: 0.7896 cumulative IPC: 0.7448 (Simulation time: 06 hr 04 min 59 sec)
Heartbeat CPU 0 instructions: 1980000324 cycles: 2657521821 heartbeat IPC: 0.8021 cumulative IPC: 0.7451 (Simulation time: 06 hr 06 min 52 sec)
Heartbeat CPU 0 instructions: 1990000324 cycles: 2669867815 heartbeat IPC: 0.81 cumulative IPC: 0.7454 (Simulation time: 06 hr 08 min 43 sec)

=== ERROR PAGE STATISTICS ===
Mode: CYCLE
Error Cycle Interval: 4648416149 CPU cycles
Total Error Accesses: 0
==============================
Simulation finished CPU 0 instructions: 1999999509 cycles: 2682203222 cumulative IPC: 0.7457 (Simulation time: 06 hr 10 min 34 sec)
Simulation complete CPU 0 instructions: 1999999509 cycles: 2682203222 cumulative IPC: 0.7457 (Simulation time: 06 hr 10 min 34 sec)

ChampSim completed all CPUs

=== Simulation ===
CPU 0 runs test_traces/649.fotonik3d_s-10881B.champsimtrace.xz

Region of Interest Statistics

CPU 0 cumulative IPC: 0.7457 instructions: 1999999509 cycles: 2682203222
CPU 0 Branch Prediction Accuracy: 97.24% MPKI: 0.2738 Average ROB Occupancy at Mispredict: 264.6
Branch type MPKI
BRANCH_DIRECT_JUMP: 5.5e-06
BRANCH_INDIRECT: 0
BRANCH_CONDITIONAL: 0.2738
BRANCH_DIRECT_CALL: 5e-07
BRANCH_INDIRECT_CALL: 0
BRANCH_RETURN: 5e-07

cpu0->cpu0_STLB TOTAL        ACCESS:    6979601 HIT:    3617818 MISS:    3361783 MSHR_MERGE:          0
cpu0->cpu0_STLB LOAD         ACCESS:    6979601 HIT:    3617818 MISS:    3361783 MSHR_MERGE:          0
cpu0->cpu0_STLB RFO          ACCESS:          0 HIT:          0 MISS:          0 MSHR_MERGE:          0
cpu0->cpu0_STLB PREFETCH     ACCESS:          0 HIT:          0 MISS:          0 MSHR_MERGE:          0
cpu0->cpu0_STLB WRITE        ACCESS:          0 HIT:          0 MISS:          0 MSHR_MERGE:          0
cpu0->cpu0_STLB TRANSLATION  ACCESS:          0 HIT:          0 MISS:          0 MSHR_MERGE:          0
cpu0->cpu0_STLB PREFETCH REQUESTED:          0 ISSUED:          0 USEFUL:          0 USELESS:          0
cpu0->cpu0_STLB AVERAGE MISS LATENCY: 339.3 cycles
cpu0->cpu0_L2C TOTAL        ACCESS:   51671992 HIT:   16866894 MISS:   34805098 MSHR_MERGE:          0
cpu0->cpu0_L2C LOAD         ACCESS:   36315986 HIT:    1511473 MISS:   34804513 MSHR_MERGE:          0
cpu0->cpu0_L2C RFO          ACCESS:       2046 HIT:       1998 MISS:         48 MSHR_MERGE:          0
cpu0->cpu0_L2C PREFETCH     ACCESS:          0 HIT:          0 MISS:          0 MSHR_MERGE:          0
cpu0->cpu0_L2C WRITE        ACCESS:   15353960 HIT:   15353423 MISS:        537 MSHR_MERGE:          0
cpu0->cpu0_L2C TRANSLATION  ACCESS:          0 HIT:          0 MISS:          0 MSHR_MERGE:          0
cpu0->cpu0_L2C PREFETCH REQUESTED:          0 ISSUED:          0 USEFUL:          0 USELESS:          0
cpu0->cpu0_L2C AVERAGE MISS LATENCY: 114.4 cycles
cpu0->cpu0_L1I TOTAL        ACCESS:  500930183 HIT:  500929250 MISS:        933 MSHR_MERGE:        394
cpu0->cpu0_L1I LOAD         ACCESS:  500930183 HIT:  500929250 MISS:        933 MSHR_MERGE:        394
cpu0->cpu0_L1I RFO          ACCESS:          0 HIT:          0 MISS:          0 MSHR_MERGE:          0
cpu0->cpu0_L1I PREFETCH     ACCESS:          0 HIT:          0 MISS:          0 MSHR_MERGE:          0
cpu0->cpu0_L1I WRITE        ACCESS:          0 HIT:          0 MISS:          0 MSHR_MERGE:          0
cpu0->cpu0_L1I TRANSLATION  ACCESS:          0 HIT:          0 MISS:          0 MSHR_MERGE:          0
cpu0->cpu0_L1I PREFETCH REQUESTED:          0 ISSUED:          0 USEFUL:          0 USELESS:          0
cpu0->cpu0_L1I AVERAGE MISS LATENCY: 144.5 cycles
cpu0->cpu0_L1D TOTAL        ACCESS:  960411597 HIT:  915410204 MISS:   45001393 MSHR_MERGE:    8683882
cpu0->cpu0_L1D LOAD         ACCESS:  842774155 HIT:  797776361 MISS:   44997794 MSHR_MERGE:    8682346
cpu0->cpu0_L1D RFO          ACCESS:          0 HIT:          0 MISS:          0 MSHR_MERGE:          0
cpu0->cpu0_L1D PREFETCH     ACCESS:          0 HIT:          0 MISS:          0 MSHR_MERGE:          0
cpu0->cpu0_L1D WRITE        ACCESS:  117637442 HIT:  117633843 MISS:       3599 MSHR_MERGE:       1536
cpu0->cpu0_L1D TRANSLATION  ACCESS:          0 HIT:          0 MISS:          0 MSHR_MERGE:          0
cpu0->cpu0_L1D PREFETCH REQUESTED:          0 ISSUED:          0 USEFUL:          0 USELESS:          0
cpu0->cpu0_L1D AVERAGE MISS LATENCY: 118.7 cycles
cpu0->cpu0_ITLB TOTAL        ACCESS:  433936350 HIT:  433936291 MISS:         59 MSHR_MERGE:         47
cpu0->cpu0_ITLB LOAD         ACCESS:  433936350 HIT:  433936291 MISS:         59 MSHR_MERGE:         47
cpu0->cpu0_ITLB RFO          ACCESS:          0 HIT:          0 MISS:          0 MSHR_MERGE:          0
cpu0->cpu0_ITLB PREFETCH     ACCESS:          0 HIT:          0 MISS:          0 MSHR_MERGE:          0
cpu0->cpu0_ITLB WRITE        ACCESS:          0 HIT:          0 MISS:          0 MSHR_MERGE:          0
cpu0->cpu0_ITLB TRANSLATION  ACCESS:          0 HIT:          0 MISS:          0 MSHR_MERGE:          0
cpu0->cpu0_ITLB PREFETCH REQUESTED:          0 ISSUED:          0 USEFUL:          0 USELESS:          0
cpu0->cpu0_ITLB AVERAGE MISS LATENCY: 784.1 cycles
cpu0->cpu0_DTLB TOTAL        ACCESS:  901423265 HIT:  892499500 MISS:    8923765 MSHR_MERGE:    1944176
cpu0->cpu0_DTLB LOAD         ACCESS:  901423265 HIT:  892499500 MISS:    8923765 MSHR_MERGE:    1944176
cpu0->cpu0_DTLB RFO          ACCESS:          0 HIT:          0 MISS:          0 MSHR_MERGE:          0
cpu0->cpu0_DTLB PREFETCH     ACCESS:          0 HIT:          0 MISS:          0 MSHR_MERGE:          0
cpu0->cpu0_DTLB WRITE        ACCESS:          0 HIT:          0 MISS:          0 MSHR_MERGE:          0
cpu0->cpu0_DTLB TRANSLATION  ACCESS:          0 HIT:          0 MISS:          0 MSHR_MERGE:          0
cpu0->cpu0_DTLB PREFETCH REQUESTED:          0 ISSUED:          0 USEFUL:          0 USELESS:          0
cpu0->cpu0_DTLB AVERAGE MISS LATENCY: 168.9 cycles
cpu0->LLC TOTAL        ACCESS:   50152582 HIT:   17637063 MISS:   32515519 MSHR_MERGE:          0
cpu0->LLC LOAD         ACCESS:   34804513 HIT:    2289370 MISS:   32515143 MSHR_MERGE:          0
cpu0->LLC RFO          ACCESS:         48 HIT:         25 MISS:         23 MSHR_MERGE:          0
cpu0->LLC PREFETCH     ACCESS:          0 HIT:          0 MISS:          0 MSHR_MERGE:          0
cpu0->LLC WRITE        ACCESS:   15348021 HIT:   15347668 MISS:        353 MSHR_MERGE:          0
cpu0->LLC TRANSLATION  ACCESS:          0 HIT:          0 MISS:          0 MSHR_MERGE:          0
cpu0->LLC PREFETCH REQUESTED:          0 ISSUED:          0 USEFUL:          0 USELESS:          0
cpu0->LLC AVERAGE MISS LATENCY: 105.4 cycles

DRAM Statistics

Channel 0 RQ ROW_BUFFER_HIT:     407161
  ROW_BUFFER_MISS:   19139670
  AVG DBUS CONGESTED CYCLE: 10.97
Channel 0 WQ ROW_BUFFER_HIT:    1366050
  ROW_BUFFER_MISS:    6303668
  FULL:          0
Channel 0 REFRESHES ISSUED:     223502

Channel 1 RQ ROW_BUFFER_HIT:     405279
  ROW_BUFFER_MISS:   19130903
  AVG DBUS CONGESTED CYCLE: 10.98
Channel 1 WQ ROW_BUFFER_HIT:    1368392
  ROW_BUFFER_MISS:    6301705
  FULL:          0
Channel 1 REFRESHES ISSUED:     223502
