
*** ChampSim Multicore Out-of-Order Simulator ***
Warmup Instructions: 0
Simulation Instructions: 9223372036854775807
Number of CPUs: 1
Page size: 1048576

Off-chip DRAM Size: 32 GiB Channels: 2 Width: 32-bit Data Rate: 4807 MT/s
[ERROR_PAGE_MANAGER] Error latency: 2459910500 
[ERROR_PAGE_MANAGER] Random seed: 54321 (fixed for preload reproducibility)
[ERROR_PAGE_MANAGER] Cycle-based error modeling enabled
[ERROR_PAGE_MANAGER] Errors per interval: 1
[ERROR_PAGE_MANAGER] Error cycle interval: 7053240154 cycles

=== ERROR PAGE STATISTICS ===
Mode: CYCLE
Error Cycle Interval: 7053240154 CPU cycles
Total Error Accesses: 0
==============================
Warmup finished CPU 0 instructions: 0 cycles: 1 cumulative IPC: 0 (Simulation time: 00 hr 00 min 00 sec)
Warmup complete CPU 0 instructions: 0 cycles: 1 cumulative IPC: 0 (Simulation time: 00 hr 00 min 00 sec)
Simulation CPU 0 panic: IPC 0 < 0.01
Simulation CPU 0 panic: IPC 1e-07 < 0.01
Simulation CPU 0 panic: IPC 0 < 0.01
Simulation CPU 0 panic: IPC 2e-07 < 0.01
Simulation CPU 0 panic: IPC 6e-07 < 0.01
Simulation CPU 0 panic: IPC 1.07e-05 < 0.01
Simulation CPU 0 panic: IPC 0.0061264 < 0.01
Simulation CPU 0 panic: IPC 1.4e-06 < 0.01
Simulation CPU 0 panic: IPC 0 < 0.01
Heartbeat CPU 0 instructions: 10000000 cycles: 119900097 heartbeat IPC: 0.0834 cumulative IPC: 0.0834 (Simulation time: 00 hr 11 min 25 sec)
Heartbeat CPU 0 instructions: 20000000 cycles: 138155263 heartbeat IPC: 0.5478 cumulative IPC: 0.1448 (Simulation time: 00 hr 13 min 31 sec)
Heartbeat CPU 0 instructions: 30000000 cycles: 156414130 heartbeat IPC: 0.5477 cumulative IPC: 0.1918 (Simulation time: 00 hr 15 min 35 sec)
Heartbeat CPU 0 instructions: 40000001 cycles: 174672054 heartbeat IPC: 0.5477 cumulative IPC: 0.229 (Simulation time: 00 hr 17 min 37 sec)
Simulation CPU 0 panic: IPC 4.15e-05 < 0.01
Simulation CPU 0 panic: IPC 2e-07 < 0.01
Simulation CPU 0 panic: IPC 1.6e-06 < 0.01
Simulation CPU 0 panic: IPC 5.75e-05 < 0.01
Simulation CPU 0 panic: IPC 0.0013368 < 0.01
Simulation CPU 0 panic: IPC 0.0019924 < 0.01
Simulation CPU 0 warning: IPC 0.045785 < 0.05
Simulation CPU 0 critical: IPC 0.011859 < 0.02
Simulation CPU 0 warning: IPC 0.021961 < 0.05
Simulation CPU 0 panic: IPC 0.0084677 < 0.01
Simulation CPU 0 warning: IPC 0.020324 < 0.05
Simulation CPU 0 warning: IPC 0.045785 < 0.05
Simulation CPU 0 critical: IPC 0.011859 < 0.02
Simulation CPU 0 warning: IPC 0.021961 < 0.05
Simulation CPU 0 warning: IPC 0.027887 < 0.05
Simulation CPU 0 warning: IPC 0.046547 < 0.05
Simulation CPU 0 critical: IPC 0.012002 < 0.02
Simulation CPU 0 critical: IPC 0.019373 < 0.02
Simulation CPU 0 panic: IPC 0.0025871 < 0.01
Simulation CPU 0 panic: IPC 0.006774 < 0.01
Simulation CPU 0 warning: IPC 0.020324 < 0.05
Simulation CPU 0 warning: IPC 0.046069 < 0.05
Simulation CPU 0 critical: IPC 0.012661 < 0.02
Simulation CPU 0 warning: IPC 0.022568 < 0.05
Simulation CPU 0 panic: IPC 4.77e-05 < 0.01
Simulation CPU 0 panic: IPC 0.0067263 < 0.01
Simulation CPU 0 critical: IPC 0.015004 < 0.02
Simulation CPU 0 panic: IPC 0.0053204 < 0.01
Simulation CPU 0 warning: IPC 0.045787 < 0.05
Simulation CPU 0 critical: IPC 0.01185 < 0.02
Simulation CPU 0 warning: IPC 0.02261 < 0.05
Simulation CPU 0 panic: IPC 0.0078242 < 0.01
Simulation CPU 0 warning: IPC 0.020324 < 0.05
Simulation CPU 0 warning: IPC 0.045787 < 0.05
Simulation CPU 0 critical: IPC 0.01185 < 0.02
Simulation CPU 0 warning: IPC 0.021967 < 0.05
Heartbeat CPU 0 instructions: 50000005 cycles: 540267419 heartbeat IPC: 0.02735 cumulative IPC: 0.09255 (Simulation time: 00 hr 56 min 58 sec)
Simulation CPU 0 warning: IPC 0.028792 < 0.05
Simulation CPU 0 warning: IPC 0.045787 < 0.05
Simulation CPU 0 critical: IPC 0.01185 < 0.02
Simulation CPU 0 critical: IPC 0.016055 < 0.02
Simulation CPU 0 panic: IPC 0.005912 < 0.01
Simulation CPU 0 panic: IPC 0.0082425 < 0.01
Simulation CPU 0 warning: IPC 0.020087 < 0.05
Simulation CPU 0 warning: IPC 0.04625 < 0.05
Simulation CPU 0 critical: IPC 0.01185 < 0.02
Simulation CPU 0 critical: IPC 0.018687 < 0.02
Simulation CPU 0 panic: IPC 0.0032803 < 0.01
Simulation CPU 0 warning: IPC 0.027099 < 0.05
Simulation CPU 0 panic: IPC 1e-07 < 0.01
Simulation CPU 0 panic: IPC 0.0045275 < 0.01
Simulation CPU 0 panic: IPC 0.0074089 < 0.01
Simulation CPU 0 critical: IPC 0.018933 < 0.02
Simulation CPU 0 panic: IPC 0.0074089 < 0.01
Simulation CPU 0 critical: IPC 0.018913 < 0.02
Simulation CPU 0 panic: IPC 0.0073801 < 0.01
Simulation CPU 0 critical: IPC 0.018655 < 0.02
Simulation CPU 0 panic: IPC 0.0073801 < 0.01
Simulation CPU 0 critical: IPC 0.018878 < 0.02
Simulation CPU 0 panic: IPC 0.0074089 < 0.01
Simulation CPU 0 critical: IPC 0.018933 < 0.02
Simulation CPU 0 panic: IPC 0.0074089 < 0.01
Simulation CPU 0 critical: IPC 0.018933 < 0.02
Simulation CPU 0 panic: IPC 0.0074089 < 0.01
Simulation CPU 0 critical: IPC 0.018933 < 0.02
Simulation CPU 0 panic: IPC 0.0074089 < 0.01
Simulation CPU 0 critical: IPC 0.014883 < 0.02
Simulation CPU 0 warning: IPC 0.049833 < 0.05
Heartbeat CPU 0 instructions: 60000005 cycles: 858351070 heartbeat IPC: 0.03144 cumulative IPC: 0.0699 (Simulation time: 01 hr 31 min 40 sec)
Heartbeat CPU 0 instructions: 70000008 cycles: 867377124 heartbeat IPC: 1.108 cumulative IPC: 0.0807 (Simulation time: 01 hr 32 min 37 sec)
Heartbeat CPU 0 instructions: 80000011 cycles: 876392253 heartbeat IPC: 1.109 cumulative IPC: 0.09128 (Simulation time: 01 hr 33 min 29 sec)
Heartbeat CPU 0 instructions: 90000011 cycles: 885390838 heartbeat IPC: 1.111 cumulative IPC: 0.1017 (Simulation time: 01 hr 34 min 17 sec)
Heartbeat CPU 0 instructions: 100000014 cycles: 894382527 heartbeat IPC: 1.112 cumulative IPC: 0.1118 (Simulation time: 01 hr 35 min 01 sec)
Heartbeat CPU 0 instructions: 110000014 cycles: 903379598 heartbeat IPC: 1.111 cumulative IPC: 0.1218 (Simulation time: 01 hr 35 min 47 sec)
Simulation CPU 0 warning: IPC 0.046977 < 0.05
Simulation CPU 0 warning: IPC 0.042846 < 0.05
Simulation CPU 0 warning: IPC 0.02199 < 0.05
Heartbeat CPU 0 instructions: 120000018 cycles: 960783494 heartbeat IPC: 0.1742 cumulative IPC: 0.1249 (Simulation time: 01 hr 41 min 41 sec)
Simulation CPU 0 critical: IPC 0.011851 < 0.02
Simulation CPU 0 warning: IPC 0.03152 < 0.05
Simulation CPU 0 warning: IPC 0.022492 < 0.05
Simulation CPU 0 critical: IPC 0.011851 < 0.02
Simulation CPU 0 critical: IPC 0.012378 < 0.02
Simulation CPU 0 critical: IPC 0.012571 < 0.02
Simulation CPU 0 panic: IPC 0.0036025 < 0.01
Simulation CPU 0 critical: IPC 0.011859 < 0.02
Simulation CPU 0 warning: IPC 0.02618 < 0.05
Simulation CPU 0 warning: IPC 0.026342 < 0.05
Simulation CPU 0 warning: IPC 0.026342 < 0.05
Simulation CPU 0 warning: IPC 0.026342 < 0.05
Simulation CPU 0 warning: IPC 0.0262 < 0.05
Simulation CPU 0 warning: IPC 0.026073 < 0.05
Simulation CPU 0 warning: IPC 0.026342 < 0.05
Heartbeat CPU 0 instructions: 130000019 cycles: 1172160098 heartbeat IPC: 0.04731 cumulative IPC: 0.1109 (Simulation time: 02 hr 04 min 01 sec)
Heartbeat CPU 0 instructions: 140000019 cycles: 1181192826 heartbeat IPC: 1.107 cumulative IPC: 0.1185 (Simulation time: 02 hr 04 min 56 sec)
Heartbeat CPU 0 instructions: 150000019 cycles: 1190208674 heartbeat IPC: 1.109 cumulative IPC: 0.126 (Simulation time: 02 hr 05 min 52 sec)
Heartbeat CPU 0 instructions: 160000020 cycles: 1199212691 heartbeat IPC: 1.111 cumulative IPC: 0.1334 (Simulation time: 02 hr 06 min 54 sec)
Heartbeat CPU 0 instructions: 170000020 cycles: 1208203467 heartbeat IPC: 1.112 cumulative IPC: 0.1407 (Simulation time: 02 hr 08 min 00 sec)
Heartbeat CPU 0 instructions: 180000023 cycles: 1217202717 heartbeat IPC: 1.111 cumulative IPC: 0.1479 (Simulation time: 02 hr 09 min 08 sec)
Heartbeat CPU 0 instructions: 190000026 cycles: 1226205177 heartbeat IPC: 1.111 cumulative IPC: 0.1549 (Simulation time: 02 hr 10 min 15 sec)
Simulation CPU 0 critical: IPC 0.011851 < 0.02
Simulation CPU 0 critical: IPC 0.011851 < 0.02
Simulation CPU 0 panic: IPC 0.0061422 < 0.01
Simulation CPU 0 panic: IPC 0.0057881 < 0.01
Simulation CPU 0 critical: IPC 0.012659 < 0.02
Simulation CPU 0 critical: IPC 0.011859 < 0.02
Simulation CPU 0 critical: IPC 0.011859 < 0.02
Simulation CPU 0 panic: IPC 0.0027398 < 0.01
Simulation CPU 0 panic: IPC 0.0091194 < 0.01
Simulation CPU 0 critical: IPC 0.011859 < 0.02
Heartbeat CPU 0 instructions: 200000027 cycles: 1418430249 heartbeat IPC: 0.05202 cumulative IPC: 0.141 (Simulation time: 02 hr 31 min 33 sec)
Simulation CPU 0 warning: IPC 0.026342 < 0.05
Simulation CPU 0 warning: IPC 0.026308 < 0.05
Simulation CPU 0 warning: IPC 0.026035 < 0.05
Simulation CPU 0 warning: IPC 0.026273 < 0.05
Simulation CPU 0 warning: IPC 0.026342 < 0.05
Simulation CPU 0 warning: IPC 0.026342 < 0.05
Simulation CPU 0 warning: IPC 0.026342 < 0.05
Heartbeat CPU 0 instructions: 210000029 cycles: 1495005747 heartbeat IPC: 0.1306 cumulative IPC: 0.1405 (Simulation time: 02 hr 39 min 59 sec)
Heartbeat CPU 0 instructions: 220000033 cycles: 1504024621 heartbeat IPC: 1.109 cumulative IPC: 0.1463 (Simulation time: 02 hr 41 min 04 sec)
Heartbeat CPU 0 instructions: 230000036 cycles: 1513035940 heartbeat IPC: 1.11 cumulative IPC: 0.152 (Simulation time: 02 hr 42 min 01 sec)
Heartbeat CPU 0 instructions: 240000039 cycles: 1522029624 heartbeat IPC: 1.112 cumulative IPC: 0.1577 (Simulation time: 02 hr 43 min 09 sec)
Heartbeat CPU 0 instructions: 250000039 cycles: 1531024609 heartbeat IPC: 1.112 cumulative IPC: 0.1633 (Simulation time: 02 hr 44 min 17 sec)
Heartbeat CPU 0 instructions: 260000039 cycles: 1540021208 heartbeat IPC: 1.112 cumulative IPC: 0.1688 (Simulation time: 02 hr 45 min 26 sec)
Simulation CPU 0 critical: IPC 0.012658 < 0.02
Simulation CPU 0 critical: IPC 0.012183 < 0.02
Simulation CPU 0 panic: IPC 0.0056663 < 0.01
Simulation CPU 0 critical: IPC 0.011859 < 0.02
Simulation CPU 0 critical: IPC 0.011859 < 0.02
Simulation CPU 0 critical: IPC 0.011859 < 0.02
Heartbeat CPU 0 instructions: 270000040 cycles: 1655079329 heartbeat IPC: 0.08691 cumulative IPC: 0.1631 (Simulation time: 02 hr 59 min 02 sec)
Simulation CPU 0 critical: IPC 0.012319 < 0.02
Simulation CPU 0 panic: IPC 0.0089976 < 0.01
Simulation CPU 0 critical: IPC 0.012622 < 0.02
Simulation CPU 0 critical: IPC 0.011856 < 0.02
Simulation CPU 0 warning: IPC 0.026166 < 0.05
Simulation CPU 0 warning: IPC 0.026342 < 0.05
Simulation CPU 0 warning: IPC 0.026342 < 0.05
Simulation CPU 0 warning: IPC 0.026342 < 0.05
Simulation CPU 0 warning: IPC 0.026215 < 0.05
Simulation CPU 0 warning: IPC 0.026058 < 0.05
Heartbeat CPU 0 instructions: 280000044 cycles: 1799526171 heartbeat IPC: 0.06923 cumulative IPC: 0.1556 (Simulation time: 03 hr 16 min 28 sec)
Heartbeat CPU 0 instructions: 290000047 cycles: 1808558462 heartbeat IPC: 1.107 cumulative IPC: 0.1603 (Simulation time: 03 hr 17 min 19 sec)
Heartbeat CPU 0 instructions: 300000048 cycles: 1817571239 heartbeat IPC: 1.11 cumulative IPC: 0.1651 (Simulation time: 03 hr 18 min 22 sec)
Heartbeat CPU 0 instructions: 310000050 cycles: 1826571172 heartbeat IPC: 1.111 cumulative IPC: 0.1697 (Simulation time: 03 hr 19 min 28 sec)
Heartbeat CPU 0 instructions: 320000054 cycles: 1835559610 heartbeat IPC: 1.113 cumulative IPC: 0.1743 (Simulation time: 03 hr 20 min 35 sec)
Heartbeat CPU 0 instructions: 330000056 cycles: 1844558347 heartbeat IPC: 1.111 cumulative IPC: 0.1789 (Simulation time: 03 hr 21 min 41 sec)
Simulation CPU 0 critical: IPC 0.011859 < 0.02
Simulation CPU 0 critical: IPC 0.011859 < 0.02
Heartbeat CPU 0 instructions: 340000059 cycles: 1891725979 heartbeat IPC: 0.212 cumulative IPC: 0.1797 (Simulation time: 03 hr 26 min 58 sec)
Simulation CPU 0 critical: IPC 0.019087 < 0.02
Simulation CPU 0 critical: IPC 0.011872 < 0.02
Simulation CPU 0 critical: IPC 0.012661 < 0.02
Simulation CPU 0 critical: IPC 0.011856 < 0.02
Simulation CPU 0 critical: IPC 0.011856 < 0.02
Simulation CPU 0 warning: IPC 0.022431 < 0.05
Simulation CPU 0 critical: IPC 0.011854 < 0.02
Simulation CPU 0 critical: IPC 0.011856 < 0.02
Heartbeat CPU 0 instructions: 350000059 cycles: 2039138856 heartbeat IPC: 0.06784 cumulative IPC: 0.1716 (Simulation time: 03 hr 42 min 47 sec)
Heartbeat CPU 0 instructions: 360000060 cycles: 2049448018 heartbeat IPC: 0.97 cumulative IPC: 0.1757 (Simulation time: 03 hr 43 min 58 sec)
Heartbeat CPU 0 instructions: 370000062 cycles: 2059727385 heartbeat IPC: 0.9728 cumulative IPC: 0.1796 (Simulation time: 03 hr 45 min 09 sec)
Heartbeat CPU 0 instructions: 380000062 cycles: 2069979994 heartbeat IPC: 0.9754 cumulative IPC: 0.1836 (Simulation time: 03 hr 46 min 21 sec)
Simulation CPU 0 critical: IPC 0.012668 < 0.02
Simulation CPU 0 critical: IPC 0.012244 < 0.02
Simulation CPU 0 warning: IPC 0.030838 < 0.05
Simulation CPU 0 critical: IPC 0.011856 < 0.02
Heartbeat CPU 0 instructions: 390000062 cycles: 2147027796 heartbeat IPC: 0.1298 cumulative IPC: 0.1816 (Simulation time: 03 hr 54 min 53 sec)
Simulation CPU 0 critical: IPC 0.011856 < 0.02
Simulation CPU 0 critical: IPC 0.011856 < 0.02
Simulation CPU 0 critical: IPC 0.012263 < 0.02
Simulation CPU 0 warning: IPC 0.034185 < 0.05
Simulation CPU 0 critical: IPC 0.012667 < 0.02
Simulation CPU 0 critical: IPC 0.011858 < 0.02
Simulation CPU 0 panic: IPC 4.68e-05 < 0.01
Simulation CPU 0 panic: IPC 0.0001208 < 0.01
Simulation CPU 0 panic: IPC 0 < 0.01
Simulation CPU 0 panic: IPC 1.5e-06 < 0.01
Simulation CPU 0 panic: IPC 0.0062593 < 0.01
Simulation CPU 0 panic: IPC 2.3e-06 < 0.01
Simulation CPU 0 panic: IPC 0.0031281 < 0.01
Simulation CPU 0 panic: IPC 0.0031304 < 0.01
Simulation CPU 0 panic: IPC 0.0031304 < 0.01
Simulation CPU 0 panic: IPC 0.0031304 < 0.01
Simulation CPU 0 panic: IPC 0.0062608 < 0.01
Simulation CPU 0 panic: IPC 0.0031304 < 0.01
Simulation CPU 0 panic: IPC 0.0031304 < 0.01
Simulation CPU 0 panic: IPC 0.0031304 < 0.01
Simulation CPU 0 panic: IPC 0.0031304 < 0.01
Simulation CPU 0 panic: IPC 0.0031304 < 0.01
Simulation CPU 0 panic: IPC 0.0031304 < 0.01
Simulation CPU 0 panic: IPC 0.0031304 < 0.01
Simulation CPU 0 panic: IPC 0.0031304 < 0.01
Simulation CPU 0 panic: IPC 0.0031304 < 0.01
Simulation CPU 0 panic: IPC 0.0031304 < 0.01
Simulation CPU 0 panic: IPC 0.0031304 < 0.01
Simulation CPU 0 panic: IPC 0.0031304 < 0.01
Simulation CPU 0 panic: IPC 0.0062608 < 0.01
Simulation CPU 0 panic: IPC 0.0031304 < 0.01
Simulation CPU 0 panic: IPC 0.0031304 < 0.01
Simulation CPU 0 panic: IPC 0.0031304 < 0.01
Simulation CPU 0 panic: IPC 0.0031304 < 0.01
Simulation CPU 0 panic: IPC 1.3e-06 < 0.01
Simulation CPU 0 panic: IPC 0.0062595 < 0.01
Simulation CPU 0 panic: IPC 0.0031304 < 0.01
Simulation CPU 0 panic: IPC 0.0031304 < 0.01
Simulation CPU 0 panic: IPC 0.0031304 < 0.01
Simulation CPU 0 panic: IPC 0.0031304 < 0.01
Simulation CPU 0 panic: IPC 0.0031304 < 0.01
Simulation CPU 0 panic: IPC 0.0031304 < 0.01
Simulation CPU 0 panic: IPC 0.0031304 < 0.01
Simulation CPU 0 panic: IPC 0.0031304 < 0.01
Simulation CPU 0 panic: IPC 0.0031304 < 0.01
Simulation CPU 0 panic: IPC 0.0031304 < 0.01
Simulation CPU 0 warning: IPC 0.041394 < 0.05
Simulation CPU 0 panic: IPC 0.0038988 < 0.01
Simulation CPU 0 panic: IPC 4.09e-05 < 0.01
Simulation CPU 0 panic: IPC 4.09e-05 < 0.01
Simulation CPU 0 panic: IPC 4.09e-05 < 0.01
Simulation CPU 0 panic: IPC 4.09e-05 < 0.01
Simulation CPU 0 panic: IPC 4.09e-05 < 0.01
Simulation CPU 0 panic: IPC 4.09e-05 < 0.01
Simulation CPU 0 panic: IPC 4.09e-05 < 0.01
Simulation CPU 0 panic: IPC 4.09e-05 < 0.01
Simulation CPU 0 panic: IPC 4.09e-05 < 0.01
Simulation CPU 0 panic: IPC 4.09e-05 < 0.01
Simulation CPU 0 panic: IPC 4.09e-05 < 0.01
Simulation CPU 0 panic: IPC 4.09e-05 < 0.01
Simulation CPU 0 panic: IPC 8.18e-05 < 0.01
Simulation CPU 0 panic: IPC 4.09e-05 < 0.01
Simulation CPU 0 panic: IPC 4.09e-05 < 0.01
Simulation CPU 0 panic: IPC 4.09e-05 < 0.01
Simulation CPU 0 panic: IPC 4.09e-05 < 0.01
Simulation CPU 0 panic: IPC 4.09e-05 < 0.01
Simulation CPU 0 panic: IPC 4.09e-05 < 0.01
Simulation CPU 0 panic: IPC 4.09e-05 < 0.01
Simulation CPU 0 panic: IPC 4.09e-05 < 0.01
Simulation CPU 0 panic: IPC 4.09e-05 < 0.01
Simulation CPU 0 panic: IPC 4.09e-05 < 0.01
Simulation CPU 0 panic: IPC 4.09e-05 < 0.01
Simulation CPU 0 panic: IPC 4.09e-05 < 0.01
Simulation CPU 0 panic: IPC 8.18e-05 < 0.01
Simulation CPU 0 panic: IPC 4.09e-05 < 0.01
Simulation CPU 0 panic: IPC 4.09e-05 < 0.01
Simulation CPU 0 panic: IPC 4.09e-05 < 0.01
Simulation CPU 0 panic: IPC 4.09e-05 < 0.01
Simulation CPU 0 panic: IPC 4.09e-05 < 0.01
Simulation CPU 0 panic: IPC 4.09e-05 < 0.01
Simulation CPU 0 panic: IPC 4.09e-05 < 0.01
Simulation CPU 0 panic: IPC 4.09e-05 < 0.01
Simulation CPU 0 panic: IPC 4.09e-05 < 0.01
Simulation CPU 0 panic: IPC 4.09e-05 < 0.01
Simulation CPU 0 panic: IPC 4.09e-05 < 0.01
Heartbeat CPU 0 instructions: 400000062 cycles: 3051777131 heartbeat IPC: 0.01105 cumulative IPC: 0.1311 (Simulation time: 05 hr 32 min 43 sec)
Simulation CPU 0 warning: IPC 0.032731 < 0.05
Simulation CPU 0 panic: IPC 3.8e-05 < 0.01
Heartbeat CPU 0 instructions: 410000062 cycles: 3104686606 heartbeat IPC: 0.189 cumulative IPC: 0.1321 (Simulation time: 05 hr 39 min 16 sec)
Simulation CPU 0 warning: IPC 0.034305 < 0.05
Heartbeat CPU 0 instructions: 420000064 cycles: 3139460558 heartbeat IPC: 0.2876 cumulative IPC: 0.1338 (Simulation time: 05 hr 43 min 38 sec)
Simulation CPU 0 warning: IPC 0.045619 < 0.05
Simulation CPU 0 warning: IPC 0.026382 < 0.05
Heartbeat CPU 0 instructions: 430000067 cycles: 3194087119 heartbeat IPC: 0.1831 cumulative IPC: 0.1346 (Simulation time: 05 hr 48 min 52 sec)
Simulation CPU 0 panic: IPC 9.6e-06 < 0.01
Simulation CPU 0 critical: IPC 0.01132 < 0.02
Simulation CPU 0 panic: IPC 9.6e-06 < 0.01
Simulation CPU 0 critical: IPC 0.011756 < 0.02
Simulation CPU 0 warning: IPC 0.034433 < 0.05
Simulation CPU 0 warning: IPC 0.045832 < 0.05
Simulation CPU 0 critical: IPC 0.012519 < 0.02
Heartbeat CPU 0 instructions: 440000067 cycles: 3313726113 heartbeat IPC: 0.08358 cumulative IPC: 0.1328 (Simulation time: 06 hr 02 min 15 sec)
Simulation CPU 0 critical: IPC 0.012519 < 0.02
Simulation CPU 0 panic: IPC 9.6e-06 < 0.01
Heartbeat CPU 0 instructions: 450000067 cycles: 3386810709 heartbeat IPC: 0.1368 cumulative IPC: 0.1329 (Simulation time: 06 hr 10 min 43 sec)
Simulation CPU 0 panic: IPC 0.000352 < 0.01
Simulation CPU 0 warning: IPC 0.032841 < 0.05
Simulation CPU 0 panic: IPC 9.6e-06 < 0.01
Simulation CPU 0 warning: IPC 0.034415 < 0.05
Heartbeat CPU 0 instructions: 460000069 cycles: 3478420650 heartbeat IPC: 0.1092 cumulative IPC: 0.1322 (Simulation time: 06 hr 21 min 05 sec)
Simulation CPU 0 warning: IPC 0.04551 < 0.05
Simulation CPU 0 warning: IPC 0.026491 < 0.05
Heartbeat CPU 0 instructions: 470000073 cycles: 3533079409 heartbeat IPC: 0.183 cumulative IPC: 0.133 (Simulation time: 06 hr 26 min 20 sec)
Simulation CPU 0 warning: IPC 0.045492 < 0.05
Simulation CPU 0 panic: IPC 9.6e-06 < 0.01
Simulation CPU 0 panic: IPC 9.6e-06 < 0.01
Simulation CPU 0 critical: IPC 0.011866 < 0.02
Simulation CPU 0 warning: IPC 0.034433 < 0.05
Simulation CPU 0 warning: IPC 0.045723 < 0.05
Simulation CPU 0 critical: IPC 0.019129 < 0.02
Heartbeat CPU 0 instructions: 480000074 cycles: 3652478305 heartbeat IPC: 0.08375 cumulative IPC: 0.1314 (Simulation time: 06 hr 37 min 45 sec)
Simulation CPU 0 critical: IPC 0.012519 < 0.02
Simulation CPU 0 critical: IPC 0.012519 < 0.02
Heartbeat CPU 0 instructions: 490000074 cycles: 3735050412 heartbeat IPC: 0.1211 cumulative IPC: 0.1312 (Simulation time: 06 hr 47 min 18 sec)
Simulation CPU 0 panic: IPC 9.6e-06 < 0.01
Simulation CPU 0 warning: IPC 0.032951 < 0.05
Simulation CPU 0 warning: IPC 0.048571 < 0.05
Simulation CPU 0 panic: IPC 9.6e-06 < 0.01
Simulation CPU 0 warning: IPC 0.034433 < 0.05
Heartbeat CPU 0 instructions: 500000076 cycles: 3845061293 heartbeat IPC: 0.0909 cumulative IPC: 0.13 (Simulation time: 06 hr 59 min 23 sec)
Simulation CPU 0 warning: IPC 0.0454 < 0.05
Simulation CPU 0 warning: IPC 0.026601 < 0.05
Heartbeat CPU 0 instructions: 510000079 cycles: 3899714773 heartbeat IPC: 0.183 cumulative IPC: 0.1308 (Simulation time: 07 hr 05 min 31 sec)
Simulation CPU 0 critical: IPC 0.011976 < 0.02
Simulation CPU 0 warning: IPC 0.034433 < 0.05
Simulation CPU 0 warning: IPC 0.045613 < 0.05
Heartbeat CPU 0 instructions: 520000083 cycles: 4009814131 heartbeat IPC: 0.09083 cumulative IPC: 0.1297 (Simulation time: 07 hr 18 min 17 sec)
Simulation CPU 0 critical: IPC 0.012519 < 0.02
Heartbeat CPU 0 instructions: 530000087 cycles: 4083158669 heartbeat IPC: 0.1363 cumulative IPC: 0.1298 (Simulation time: 07 hr 26 min 17 sec)
Simulation CPU 0 panic: IPC 9.6e-06 < 0.01
Simulation CPU 0 warning: IPC 0.033061 < 0.05
Simulation CPU 0 panic: IPC 9.6e-06 < 0.01
Simulation CPU 0 warning: IPC 0.034433 < 0.05
Heartbeat CPU 0 instructions: 540000087 cycles: 4202474552 heartbeat IPC: 0.08381 cumulative IPC: 0.1285 (Simulation time: 07 hr 39 min 21 sec)
Simulation CPU 0 warning: IPC 0.025137 < 0.05
Simulation CPU 0 warning: IPC 0.026711 < 0.05
Heartbeat CPU 0 instructions: 550000089 cycles: 4266356382 heartbeat IPC: 0.1565 cumulative IPC: 0.1289 (Simulation time: 07 hr 47 min 11 sec)
Simulation CPU 0 panic: IPC 9.6e-06 < 0.01
Simulation CPU 0 panic: IPC 9.6e-06 < 0.01
Simulation CPU 0 critical: IPC 0.012086 < 0.02
Simulation CPU 0 warning: IPC 0.034433 < 0.05
Simulation CPU 0 warning: IPC 0.045503 < 0.05
Simulation CPU 0 panic: IPC 9.6e-06 < 0.01
Heartbeat CPU 0 instructions: 560000090 cycles: 4385692920 heartbeat IPC: 0.0838 cumulative IPC: 0.1277 (Simulation time: 08 hr 00 min 29 sec)
Simulation CPU 0 critical: IPC 0.012519 < 0.02
Simulation CPU 0 critical: IPC 0.012519 < 0.02
Heartbeat CPU 0 instructions: 570000090 cycles: 4449633445 heartbeat IPC: 0.1564 cumulative IPC: 0.1281 (Simulation time: 08 hr 08 min 24 sec)
Simulation CPU 0 warning: IPC 0.027647 < 0.05
Simulation CPU 0 warning: IPC 0.045456 < 0.05
Simulation CPU 0 warning: IPC 0.037738 < 0.05
Heartbeat CPU 0 instructions: 580000090 cycles: 4560001355 heartbeat IPC: 0.09061 cumulative IPC: 0.1272 (Simulation time: 08 hr 21 min 33 sec)
Simulation CPU 0 warning: IPC 0.038751 < 0.05
Simulation CPU 0 warning: IPC 0.03743 < 0.05
Simulation CPU 0 warning: IPC 0.026821 < 0.05
Heartbeat CPU 0 instructions: 590000091 cycles: 4642238399 heartbeat IPC: 0.1216 cumulative IPC: 0.1271 (Simulation time: 08 hr 29 min 56 sec)
Simulation CPU 0 panic: IPC 9.6e-06 < 0.01
Simulation CPU 0 warning: IPC 0.029887 < 0.05
Simulation CPU 0 panic: IPC 9.6e-06 < 0.01
Simulation CPU 0 warning: IPC 0.034433 < 0.05
Simulation CPU 0 warning: IPC 0.045393 < 0.05
Simulation CPU 0 panic: IPC 9.6e-06 < 0.01
Heartbeat CPU 0 instructions: 600000095 cycles: 4761580577 heartbeat IPC: 0.08379 cumulative IPC: 0.126 (Simulation time: 08 hr 41 min 44 sec)
Simulation CPU 0 critical: IPC 0.012519 < 0.02
Heartbeat CPU 0 instructions: 610000097 cycles: 4786953684 heartbeat IPC: 0.3941 cumulative IPC: 0.1274 (Simulation time: 08 hr 45 min 07 sec)
Simulation CPU 0 critical: IPC 0.012519 < 0.02
Heartbeat CPU 0 instructions: 620000097 cycles: 4821359519 heartbeat IPC: 0.2906 cumulative IPC: 0.1286 (Simulation time: 08 hr 49 min 34 sec)
Simulation CPU 0 panic: IPC 3.8e-05 < 0.01
Heartbeat CPU 0 instructions: 630000099 cycles: 4855754982 heartbeat IPC: 0.2907 cumulative IPC: 0.1297 (Simulation time: 08 hr 54 min 03 sec)
Simulation CPU 0 warning: IPC 0.03328 < 0.05
Simulation CPU 0 panic: IPC 3.8e-05 < 0.01
Heartbeat CPU 0 instructions: 640000102 cycles: 4908633166 heartbeat IPC: 0.1891 cumulative IPC: 0.1304 (Simulation time: 09 hr 00 min 45 sec)
Heartbeat CPU 0 instructions: 650000103 cycles: 4952088306 heartbeat IPC: 0.2301 cumulative IPC: 0.1313 (Simulation time: 09 hr 06 min 17 sec)
Simulation CPU 0 warning: IPC 0.025357 < 0.05
Heartbeat CPU 0 instructions: 660000104 cycles: 4986257959 heartbeat IPC: 0.2927 cumulative IPC: 0.1324 (Simulation time: 09 hr 09 min 48 sec)
Simulation CPU 0 warning: IPC 0.026931 < 0.05
Heartbeat CPU 0 instructions: 670000104 cycles: 5011200740 heartbeat IPC: 0.4009 cumulative IPC: 0.1337 (Simulation time: 09 hr 13 min 01 sec)
Simulation CPU 0 panic: IPC 9.6e-06 < 0.01
Simulation CPU 0 panic: IPC 9.6e-06 < 0.01
Heartbeat CPU 0 instructions: 680000106 cycles: 5083154446 heartbeat IPC: 0.139 cumulative IPC: 0.1338 (Simulation time: 09 hr 21 min 35 sec)
Simulation CPU 0 warning: IPC 0.037686 < 0.05
Simulation CPU 0 panic: IPC 9.6e-06 < 0.01
Simulation CPU 0 critical: IPC 0.012519 < 0.02
Heartbeat CPU 0 instructions: 690000110 cycles: 5146007791 heartbeat IPC: 0.1591 cumulative IPC: 0.1341 (Simulation time: 09 hr 28 min 14 sec)
Simulation CPU 0 critical: IPC 0.012519 < 0.02
Heartbeat CPU 0 instructions: 700000110 cycles: 5180157033 heartbeat IPC: 0.2928 cumulative IPC: 0.1351 (Simulation time: 09 hr 32 min 39 sec)
Simulation CPU 0 warning: IPC 0.045713 < 0.05
Simulation CPU 0 panic: IPC 9.6e-06 < 0.01
Heartbeat CPU 0 instructions: 710000112 cycles: 5233415989 heartbeat IPC: 0.1878 cumulative IPC: 0.1357 (Simulation time: 09 hr 38 min 39 sec)
Simulation CPU 0 warning: IPC 0.030259 < 0.05
Simulation CPU 0 panic: IPC 9.6e-06 < 0.01
Simulation CPU 0 warning: IPC 0.034433 < 0.05
Simulation CPU 0 panic: IPC 9.6e-06 < 0.01
Simulation CPU 0 warning: IPC 0.025467 < 0.05
Heartbeat CPU 0 instructions: 720000115 cycles: 5353028821 heartbeat IPC: 0.0836 cumulative IPC: 0.1345 (Simulation time: 09 hr 51 min 29 sec)
Simulation CPU 0 warning: IPC 0.034433 < 0.05
Simulation CPU 0 warning: IPC 0.02704 < 0.05
Simulation CPU 0 warning: IPC 0.045527 < 0.05
Simulation CPU 0 panic: IPC 9.6e-06 < 0.01
Heartbeat CPU 0 instructions: 730000115 cycles: 5435368514 heartbeat IPC: 0.1214 cumulative IPC: 0.1343 (Simulation time: 10 hr 00 min 59 sec)
Simulation CPU 0 panic: IPC 9.6e-06 < 0.01
Simulation CPU 0 panic: IPC 9.6e-06 < 0.01
Simulation CPU 0 critical: IPC 0.012519 < 0.02
Heartbeat CPU 0 instructions: 740000118 cycles: 5517754391 heartbeat IPC: 0.1214 cumulative IPC: 0.1341 (Simulation time: 10 hr 09 min 14 sec)
Simulation CPU 0 critical: IPC 0.012519 < 0.02
Simulation CPU 0 warning: IPC 0.020012 < 0.05
Heartbeat CPU 0 instructions: 750000118 cycles: 5600139787 heartbeat IPC: 0.1214 cumulative IPC: 0.1339 (Simulation time: 10 hr 18 min 38 sec)
Simulation CPU 0 warning: IPC 0.034433 < 0.05
Simulation CPU 0 panic: IPC 0.0046481 < 0.01
Heartbeat CPU 0 instructions: 760000118 cycles: 5701053779 heartbeat IPC: 0.09909 cumulative IPC: 0.1333 (Simulation time: 10 hr 28 min 23 sec)
Simulation CPU 0 warning: IPC 0.034433 < 0.05
Simulation CPU 0 warning: IPC 0.02715 < 0.05
Simulation CPU 0 warning: IPC 0.045418 < 0.05
Heartbeat CPU 0 instructions: 770000120 cycles: 5774451446 heartbeat IPC: 0.1362 cumulative IPC: 0.1333 (Simulation time: 10 hr 36 min 10 sec)
Simulation CPU 0 panic: IPC 9.6e-06 < 0.01
Simulation CPU 0 panic: IPC 9.6e-06 < 0.01
Simulation CPU 0 critical: IPC 0.012519 < 0.02
Heartbeat CPU 0 instructions: 780000123 cycles: 5856684969 heartbeat IPC: 0.1216 cumulative IPC: 0.1332 (Simulation time: 10 hr 44 min 58 sec)
Simulation CPU 0 critical: IPC 0.012519 < 0.02
Simulation CPU 0 warning: IPC 0.046247 < 0.05
Heartbeat CPU 0 instructions: 790000123 cycles: 5911358776 heartbeat IPC: 0.1829 cumulative IPC: 0.1336 (Simulation time: 10 hr 50 min 18 sec)
Simulation CPU 0 panic: IPC 9.6e-06 < 0.01
Simulation CPU 0 warning: IPC 0.034433 < 0.05
Simulation CPU 0 panic: IPC 9.6e-06 < 0.01
Heartbeat CPU 0 instructions: 800000124 cycles: 6003011262 heartbeat IPC: 0.1091 cumulative IPC: 0.1333 (Simulation time: 11 hr 01 min 11 sec)
Simulation CPU 0 warning: IPC 0.046882 < 0.05
Simulation CPU 0 panic: IPC 0.0094627 < 0.01
Simulation CPU 0 warning: IPC 0.034433 < 0.05
Simulation CPU 0 critical: IPC 0.011036 < 0.02
Heartbeat CPU 0 instructions: 810000126 cycles: 6094807995 heartbeat IPC: 0.1089 cumulative IPC: 0.1329 (Simulation time: 11 hr 12 min 12 sec)
Simulation CPU 0 warning: IPC 0.048453 < 0.05
Simulation CPU 0 panic: IPC 9.6e-06 < 0.01
Simulation CPU 0 panic: IPC 9.6e-06 < 0.01
Simulation CPU 0 critical: IPC 0.012519 < 0.02
Heartbeat CPU 0 instructions: 820000126 cycles: 6214136025 heartbeat IPC: 0.0838 cumulative IPC: 0.132 (Simulation time: 11 hr 26 min 45 sec)
Simulation CPU 0 critical: IPC 0.012519 < 0.02
Simulation CPU 0 warning: IPC 0.046137 < 0.05
Heartbeat CPU 0 instructions: 830000128 cycles: 6268800151 heartbeat IPC: 0.1829 cumulative IPC: 0.1324 (Simulation time: 11 hr 33 min 31 sec)
Simulation CPU 0 warning: IPC 0.046913 < 0.05
Simulation CPU 0 warning: IPC 0.034433 < 0.05
Simulation CPU 0 warning: IPC 0.04858 < 0.05
Heartbeat CPU 0 instructions: 840000132 cycles: 6360407319 heartbeat IPC: 0.1092 cumulative IPC: 0.1321 (Simulation time: 11 hr 44 min 39 sec)
Simulation CPU 0 warning: IPC 0.046772 < 0.05
Simulation CPU 0 warning: IPC 0.044006 < 0.05
Simulation CPU 0 critical: IPC 0.011146 < 0.02
Heartbeat CPU 0 instructions: 850000132 cycles: 6452016077 heartbeat IPC: 0.1092 cumulative IPC: 0.1317 (Simulation time: 11 hr 53 min 24 sec)
Simulation CPU 0 panic: IPC 9.6e-06 < 0.01
Simulation CPU 0 panic: IPC 9.6e-06 < 0.01
Simulation CPU 0 critical: IPC 0.012519 < 0.02
Heartbeat CPU 0 instructions: 860000135 cycles: 6562432199 heartbeat IPC: 0.09057 cumulative IPC: 0.131 (Simulation time: 12 hr 06 min 05 sec)
Simulation CPU 0 critical: IPC 0.012519 < 0.02
Simulation CPU 0 warning: IPC 0.046028 < 0.05
Heartbeat CPU 0 instructions: 870000138 cycles: 6635414970 heartbeat IPC: 0.137 cumulative IPC: 0.1311 (Simulation time: 12 hr 12 min 31 sec)
Simulation CPU 0 panic: IPC 9.6e-06 < 0.01
Simulation CPU 0 warning: IPC 0.034433 < 0.05
Simulation CPU 0 panic: IPC 9.6e-06 < 0.01
Heartbeat CPU 0 instructions: 880000142 cycles: 6727032864 heartbeat IPC: 0.1091 cumulative IPC: 0.1308 (Simulation time: 12 hr 22 min 44 sec)
Simulation CPU 0 warning: IPC 0.046662 < 0.05
Simulation CPU 0 panic: IPC 0.0096823 < 0.01
Simulation CPU 0 warning: IPC 0.034433 < 0.05
Simulation CPU 0 critical: IPC 0.011256 < 0.02
Heartbeat CPU 0 instructions: 890000145 cycles: 6809397764 heartbeat IPC: 0.1214 cumulative IPC: 0.1307 (Simulation time: 12 hr 30 min 52 sec)
Simulation CPU 0 warning: IPC 0.025623 < 0.05
Heartbeat CPU 0 instructions: 900000145 cycles: 6910384893 heartbeat IPC: 0.09902 cumulative IPC: 0.1302 (Simulation time: 12 hr 41 min 23 sec)
Simulation CPU 0 critical: IPC 0.012519 < 0.02
Simulation CPU 0 warning: IPC 0.045918 < 0.05
Heartbeat CPU 0 instructions: 910000146 cycles: 6992817275 heartbeat IPC: 0.1213 cumulative IPC: 0.1301 (Simulation time: 12 hr 51 min 37 sec)
Simulation CPU 0 panic: IPC 9.6e-06 < 0.01
Simulation CPU 0 warning: IPC 0.034433 < 0.05
[ERROR_CYCLE] Error added at CPU cycle 7053240155, interval 1, pending count: 1
[DRAM_CYCLE_ERROR] Cycle-based error applied! address=0x8fa01bc0 additional_latency=2459910500 cycles
Simulation CPU 0 panic: IPC 6.1e-06 < 0.01
Simulation CPU 0 panic: IPC 9.6e-06 < 0.01
Heartbeat CPU 0 instructions: 920000149 cycles: 7094261005 heartbeat IPC: 0.09858 cumulative IPC: 0.1297 (Simulation time: 13 hr 02 min 39 sec)
Simulation CPU 0 warning: IPC 0.043422 < 0.05
Simulation CPU 0 panic: IPC 0.0097921 < 0.01
Simulation CPU 0 warning: IPC 0.034433 < 0.05
Simulation CPU 0 panic: IPC 9.6e-06 < 0.01
Simulation CPU 0 critical: IPC 0.011366 < 0.02
Heartbeat CPU 0 instructions: 930000149 cycles: 7195121867 heartbeat IPC: 0.09915 cumulative IPC: 0.1293 (Simulation time: 13 hr 13 min 37 sec)
Simulation CPU 0 panic: IPC 9.6e-06 < 0.01
Simulation CPU 0 panic: IPC 9.6e-06 < 0.01
Heartbeat CPU 0 instructions: 940000151 cycles: 7277493091 heartbeat IPC: 0.1214 cumulative IPC: 0.1292 (Simulation time: 13 hr 23 min 12 sec)
Simulation CPU 0 panic: IPC 9.6e-06 < 0.01
Simulation CPU 0 critical: IPC 0.012519 < 0.02
Simulation CPU 0 warning: IPC 0.045808 < 0.05
Heartbeat CPU 0 instructions: 950000151 cycles: 7369427927 heartbeat IPC: 0.1088 cumulative IPC: 0.1289 (Simulation time: 13 hr 33 min 41 sec)
Simulation CPU 0 panic: IPC 9.6e-06 < 0.01
Simulation CPU 0 warning: IPC 0.034433 < 0.05
Simulation CPU 0 panic: IPC 9.6e-06 < 0.01
Heartbeat CPU 0 instructions: 960000153 cycles: 7451705431 heartbeat IPC: 0.1215 cumulative IPC: 0.1288 (Simulation time: 13 hr 43 min 50 sec)
Simulation CPU 0 panic: IPC 0.0099019 < 0.01
Simulation CPU 0 warning: IPC 0.034433 < 0.05
Simulation CPU 0 panic: IPC 9.6e-06 < 0.01
Simulation CPU 0 critical: IPC 0.011476 < 0.02
Heartbeat CPU 0 instructions: 970000157 cycles: 7534107147 heartbeat IPC: 0.1214 cumulative IPC: 0.1287 (Simulation time: 13 hr 53 min 15 sec)
Simulation CPU 0 panic: IPC 9.6e-06 < 0.01
Simulation CPU 0 panic: IPC 9.6e-06 < 0.01
Heartbeat CPU 0 instructions: 980000157 cycles: 7616520575 heartbeat IPC: 0.1213 cumulative IPC: 0.1287 (Simulation time: 14 hr 02 min 27 sec)
Simulation CPU 0 panic: IPC 9.6e-06 < 0.01
Simulation CPU 0 critical: IPC 0.012519 < 0.02
Simulation CPU 0 warning: IPC 0.045698 < 0.05
Heartbeat CPU 0 instructions: 990000160 cycles: 7699018799 heartbeat IPC: 0.1212 cumulative IPC: 0.1286 (Simulation time: 14 hr 11 min 29 sec)
Simulation CPU 0 warning: IPC 0.045713 < 0.05
Simulation CPU 0 panic: IPC 9.6e-06 < 0.01
Simulation CPU 0 warning: IPC 0.031302 < 0.05
Heartbeat CPU 0 instructions: 1000000161 cycles: 7781548057 heartbeat IPC: 0.1212 cumulative IPC: 0.1285 (Simulation time: 14 hr 20 min 14 sec)
Simulation CPU 0 panic: IPC 9.6e-06 < 0.01
Simulation CPU 0 critical: IPC 0.010012 < 0.02
Simulation CPU 0 warning: IPC 0.034433 < 0.05
Simulation CPU 0 panic: IPC 9.6e-06 < 0.01
Simulation CPU 0 critical: IPC 0.011586 < 0.02
Simulation CPU 0 warning: IPC 0.034433 < 0.05
Heartbeat CPU 0 instructions: 1010000161 cycles: 7891596712 heartbeat IPC: 0.09087 cumulative IPC: 0.128 (Simulation time: 14 hr 32 min 50 sec)
Simulation CPU 0 panic: IPC 9.6e-06 < 0.01
Simulation CPU 0 panic: IPC 9.6e-06 < 0.01
Heartbeat CPU 0 instructions: 1020000165 cycles: 7973997947 heartbeat IPC: 0.1214 cumulative IPC: 0.1279 (Simulation time: 14 hr 42 min 16 sec)
Simulation CPU 0 panic: IPC 9.6e-06 < 0.01
Simulation CPU 0 critical: IPC 0.012519 < 0.02
Simulation CPU 0 warning: IPC 0.045588 < 0.05
Simulation CPU 0 warning: IPC 0.03267 < 0.05
Heartbeat CPU 0 instructions: 1030000169 cycles: 8056381324 heartbeat IPC: 0.1214 cumulative IPC: 0.1278 (Simulation time: 14 hr 52 min 26 sec)
Simulation CPU 0 panic: IPC 9.6e-06 < 0.01
Heartbeat CPU 0 instructions: 1040000170 cycles: 8139052802 heartbeat IPC: 0.121 cumulative IPC: 0.1278 (Simulation time: 15 hr 01 min 06 sec)
Simulation CPU 0 panic: IPC 9.6e-06 < 0.01
Simulation CPU 0 warning: IPC 0.036152 < 0.05
Simulation CPU 0 panic: IPC 9.6e-06 < 0.01
Simulation CPU 0 warning: IPC 0.031981 < 0.05
Heartbeat CPU 0 instructions: 1050000173 cycles: 8239885110 heartbeat IPC: 0.09917 cumulative IPC: 0.1274 (Simulation time: 15 hr 10 min 27 sec)
Simulation CPU 0 panic: IPC 9.6e-06 < 0.01
Heartbeat CPU 0 instructions: 1060000177 cycles: 8303814217 heartbeat IPC: 0.1564 cumulative IPC: 0.1277 (Simulation time: 15 hr 17 min 23 sec)
Simulation CPU 0 panic: IPC 9.6e-06 < 0.01
Simulation CPU 0 critical: IPC 0.012519 < 0.02
Simulation CPU 0 warning: IPC 0.045479 < 0.05
Simulation CPU 0 warning: IPC 0.03278 < 0.05
Heartbeat CPU 0 instructions: 1070000180 cycles: 8376956055 heartbeat IPC: 0.1367 cumulative IPC: 0.1277 (Simulation time: 15 hr 25 min 55 sec)
Heartbeat CPU 0 instructions: 1080000181 cycles: 8431681326 heartbeat IPC: 0.1827 cumulative IPC: 0.1281 (Simulation time: 15 hr 32 min 47 sec)
Simulation CPU 0 panic: IPC 9.6e-06 < 0.01
Simulation CPU 0 warning: IPC 0.040534 < 0.05
Simulation CPU 0 warning: IPC 0.041247 < 0.05
Simulation CPU 0 critical: IPC 0.010231 < 0.02
Simulation CPU 0 critical: IPC 0.011805 < 0.02
Simulation CPU 0 warning: IPC 0.034433 < 0.05
Heartbeat CPU 0 instructions: 1090000185 cycles: 8560506259 heartbeat IPC: 0.07762 cumulative IPC: 0.1273 (Simulation time: 15 hr 46 min 42 sec)
Simulation CPU 0 critical: IPC 0.012519 < 0.02
Simulation CPU 0 panic: IPC 9.6e-06 < 0.01
Heartbeat CPU 0 instructions: 1100000186 cycles: 8633533682 heartbeat IPC: 0.1369 cumulative IPC: 0.1274 (Simulation time: 15 hr 55 min 16 sec)
Simulation CPU 0 warning: IPC 0.031316 < 0.05
Simulation CPU 0 warning: IPC 0.045428 < 0.05
Simulation CPU 0 panic: IPC 9.6e-06 < 0.01
Simulation CPU 0 warning: IPC 0.03289 < 0.05
Heartbeat CPU 0 instructions: 1110000186 cycles: 8725157788 heartbeat IPC: 0.1091 cumulative IPC: 0.1272 (Simulation time: 16 hr 06 min 01 sec)
Heartbeat CPU 0 instructions: 1120000189 cycles: 8770615133 heartbeat IPC: 0.22 cumulative IPC: 0.1277 (Simulation time: 16 hr 11 min 38 sec)
Simulation CPU 0 panic: IPC 0.0031424 < 0.01
Simulation CPU 0 warning: IPC 0.044774 < 0.05
Simulation CPU 0 critical: IPC 0.016032 < 0.02
Heartbeat CPU 0 instructions: 1130000189 cycles: 8899392695 heartbeat IPC: 0.07765 cumulative IPC: 0.127 (Simulation time: 16 hr 26 min 25 sec)
Simulation CPU 0 warning: IPC 0.037898 < 0.05
Simulation CPU 0 critical: IPC 0.012519 < 0.02
Simulation CPU 0 panic: IPC 9.6e-06 < 0.01
Heartbeat CPU 0 instructions: 1140000189 cycles: 8991023780 heartbeat IPC: 0.1091 cumulative IPC: 0.1268 (Simulation time: 16 hr 37 min 03 sec)
Simulation CPU 0 warning: IPC 0.031426 < 0.05
Simulation CPU 0 panic: IPC 9.6e-06 < 0.01
Simulation CPU 0 warning: IPC 0.033 < 0.05
Heartbeat CPU 0 instructions: 1150000189 cycles: 9082667534 heartbeat IPC: 0.1091 cumulative IPC: 0.1266 (Simulation time: 16 hr 46 min 47 sec)
Simulation CPU 0 warning: IPC 0.046925 < 0.05
Simulation CPU 0 warning: IPC 0.025076 < 0.05
Heartbeat CPU 0 instructions: 1160000190 cycles: 9137363424 heartbeat IPC: 0.1828 cumulative IPC: 0.127 (Simulation time: 16 hr 52 min 47 sec)
Simulation CPU 0 panic: IPC 9.6e-06 < 0.01
Simulation CPU 0 critical: IPC 0.010451 < 0.02
Simulation CPU 0 warning: IPC 0.034433 < 0.05
Simulation CPU 0 panic: IPC 9.6e-06 < 0.01
Heartbeat CPU 0 instructions: 1170000194 cycles: 9238289830 heartbeat IPC: 0.09908 cumulative IPC: 0.1266 (Simulation time: 17 hr 03 min 13 sec)
Simulation CPU 0 critical: IPC 0.012025 < 0.02
Simulation CPU 0 warning: IPC 0.034433 < 0.05
Simulation CPU 0 critical: IPC 0.012519 < 0.02
Heartbeat CPU 0 instructions: 1180000194 cycles: 9320995926 heartbeat IPC: 0.1209 cumulative IPC: 0.1266 (Simulation time: 17 hr 11 min 44 sec)
Simulation CPU 0 warning: IPC 0.036466 < 0.05
Simulation CPU 0 warning: IPC 0.031536 < 0.05
Simulation CPU 0 warning: IPC 0.03227 < 0.05
Simulation CPU 0 warning: IPC 0.033109 < 0.05
Simulation CPU 0 panic: IPC 0.0038482 < 0.01
Heartbeat CPU 0 instructions: 1190000194 cycles: 9449465616 heartbeat IPC: 0.07784 cumulative IPC: 0.1259 (Simulation time: 17 hr 26 min 34 sec)
Simulation CPU 0 warning: IPC 0.046815 < 0.05
Simulation CPU 0 warning: IPC 0.025186 < 0.05
Heartbeat CPU 0 instructions: 1200000198 cycles: 9504151651 heartbeat IPC: 0.1829 cumulative IPC: 0.1263 (Simulation time: 17 hr 33 min 17 sec)
Simulation CPU 0 panic: IPC 9.6e-06 < 0.01
Simulation CPU 0 panic: IPC 0.0074301 < 0.01
Simulation CPU 0 warning: IPC 0.034433 < 0.05
Simulation CPU 0 panic: IPC 9.6e-06 < 0.01
Simulation CPU 0 panic: IPC 9.6e-06 < 0.01
Heartbeat CPU 0 instructions: 1210000199 cycles: 9614269297 heartbeat IPC: 0.09081 cumulative IPC: 0.1259 (Simulation time: 17 hr 46 min 50 sec)
Simulation CPU 0 critical: IPC 0.012134 < 0.02
Simulation CPU 0 warning: IPC 0.034433 < 0.05
Simulation CPU 0 critical: IPC 0.012519 < 0.02
Heartbeat CPU 0 instructions: 1220000202 cycles: 9696800152 heartbeat IPC: 0.1212 cumulative IPC: 0.1258 (Simulation time: 17 hr 55 min 46 sec)
Simulation CPU 0 panic: IPC 9.6e-06 < 0.01
Simulation CPU 0 warning: IPC 0.031645 < 0.05
Simulation CPU 0 panic: IPC 9.6e-06 < 0.01
Simulation CPU 0 warning: IPC 0.033219 < 0.05
Heartbeat CPU 0 instructions: 1230000203 cycles: 9788486602 heartbeat IPC: 0.1091 cumulative IPC: 0.1257 (Simulation time: 18 hr 05 min 47 sec)
Simulation CPU 0 panic: IPC 9.6e-06 < 0.01
Simulation CPU 0 warning: IPC 0.046705 < 0.05
Simulation CPU 0 warning: IPC 0.025296 < 0.05
Heartbeat CPU 0 instructions: 1240000203 cycles: 9861629702 heartbeat IPC: 0.1367 cumulative IPC: 0.1257 (Simulation time: 18 hr 13 min 50 sec)
Simulation CPU 0 panic: IPC 9.6e-06 < 0.01
Simulation CPU 0 warning: IPC 0.034433 < 0.05
Simulation CPU 0 warning: IPC 0.046918 < 0.05
Simulation CPU 0 panic: IPC 9.6e-06 < 0.01
Heartbeat CPU 0 instructions: 1250000203 cycles: 9953251906 heartbeat IPC: 0.1091 cumulative IPC: 0.1256 (Simulation time: 18 hr 22 min 47 sec)
Simulation CPU 0 panic: IPC 9.6e-06 < 0.01
Simulation CPU 0 critical: IPC 0.012244 < 0.02
Simulation CPU 0 critical: IPC 0.012519 < 0.02
Heartbeat CPU 0 instructions: 1260000203 cycles: 10026394136 heartbeat IPC: 0.1367 cumulative IPC: 0.1257 (Simulation time: 18 hr 29 min 44 sec)
Simulation CPU 0 panic: IPC 9.6e-06 < 0.01
Simulation CPU 0 warning: IPC 0.031755 < 0.05
Simulation CPU 0 panic: IPC 9.6e-06 < 0.01
Simulation CPU 0 warning: IPC 0.033329 < 0.05
Heartbeat CPU 0 instructions: 1270000204 cycles: 10127559523 heartbeat IPC: 0.09885 cumulative IPC: 0.1254 (Simulation time: 18 hr 40 min 08 sec)
Simulation CPU 0 panic: IPC 9.6e-06 < 0.01
Simulation CPU 0 warning: IPC 0.046595 < 0.05
Heartbeat CPU 0 instructions: 1280000205 cycles: 10200606004 heartbeat IPC: 0.1369 cumulative IPC: 0.1255 (Simulation time: 18 hr 47 min 17 sec)
Simulation CPU 0 warning: IPC 0.026979 < 0.05
Simulation CPU 0 warning: IPC 0.045713 < 0.05
Simulation CPU 0 panic: IPC 9.6e-06 < 0.01
Simulation CPU 0 warning: IPC 0.031302 < 0.05
Simulation CPU 0 warning: IPC 0.046809 < 0.05
Simulation CPU 0 panic: IPC 9.6e-06 < 0.01
Heartbeat CPU 0 instructions: 1290000208 cycles: 10292213076 heartbeat IPC: 0.1092 cumulative IPC: 0.1253 (Simulation time: 18 hr 56 min 27 sec)
Simulation CPU 0 panic: IPC 9.6e-06 < 0.01
Simulation CPU 0 critical: IPC 0.014464 < 0.02
Simulation CPU 0 critical: IPC 0.012354 < 0.02
Simulation CPU 0 critical: IPC 0.012519 < 0.02
Heartbeat CPU 0 instructions: 1300000209 cycles: 10393073233 heartbeat IPC: 0.09915 cumulative IPC: 0.1251 (Simulation time: 19 hr 08 min 40 sec)
Simulation CPU 0 warning: IPC 0.048856 < 0.05
Simulation CPU 0 panic: IPC 9.6e-06 < 0.01
Simulation CPU 0 panic: IPC 9.6e-06 < 0.01
Heartbeat CPU 0 instructions: 1310000212 cycles: 10494027001 heartbeat IPC: 0.09906 cumulative IPC: 0.1248 (Simulation time: 19 hr 20 min 14 sec)
Simulation CPU 0 warning: IPC 0.033439 < 0.05
Simulation CPU 0 panic: IPC 9.6e-06 < 0.01
Simulation CPU 0 warning: IPC 0.034433 < 0.05
Simulation CPU 0 warning: IPC 0.043355 < 0.05
Simulation CPU 0 warning: IPC 0.025515 < 0.05
Heartbeat CPU 0 instructions: 1320000212 cycles: 10585783863 heartbeat IPC: 0.109 cumulative IPC: 0.1247 (Simulation time: 19 hr 31 min 24 sec)
Simulation CPU 0 warning: IPC 0.027089 < 0.05
Simulation CPU 0 panic: IPC 9.6e-06 < 0.01
Simulation CPU 0 warning: IPC 0.046699 < 0.05
Simulation CPU 0 panic: IPC 9.6e-06 < 0.01
Heartbeat CPU 0 instructions: 1330000214 cycles: 10668121652 heartbeat IPC: 0.1215 cumulative IPC: 0.1247 (Simulation time: 19 hr 41 min 12 sec)
Simulation CPU 0 panic: IPC 9.6e-06 < 0.01
Simulation CPU 0 critical: IPC 0.012464 < 0.02
Heartbeat CPU 0 instructions: 1340000215 cycles: 10741278926 heartbeat IPC: 0.1367 cumulative IPC: 0.1248 (Simulation time: 19 hr 50 min 07 sec)
Simulation CPU 0 panic: IPC 9.6e-06 < 0.01
Heartbeat CPU 0 instructions: 1350000216 cycles: 10823649411 heartbeat IPC: 0.1214 cumulative IPC: 0.1247 (Simulation time: 19 hr 59 min 10 sec)
Simulation CPU 0 warning: IPC 0.033549 < 0.05
Simulation CPU 0 panic: IPC 9.6e-06 < 0.01
Simulation CPU 0 warning: IPC 0.034433 < 0.05
Simulation CPU 0 warning: IPC 0.025625 < 0.05
Heartbeat CPU 0 instructions: 1360000216 cycles: 10915549673 heartbeat IPC: 0.1088 cumulative IPC: 0.1246 (Simulation time: 20 hr 09 min 36 sec)
Simulation CPU 0 warning: IPC 0.046943 < 0.05
Simulation CPU 0 panic: IPC 0.0094017 < 0.01
Simulation CPU 0 warning: IPC 0.041819 < 0.05
Simulation CPU 0 warning: IPC 0.046589 < 0.05
Simulation CPU 0 panic: IPC 9.6e-06 < 0.01
Heartbeat CPU 0 instructions: 1370000217 cycles: 11007130357 heartbeat IPC: 0.1092 cumulative IPC: 0.1245 (Simulation time: 20 hr 19 min 49 sec)
Simulation CPU 0 panic: IPC 9.6e-06 < 0.01
Simulation CPU 0 critical: IPC 0.012519 < 0.02
Simulation CPU 0 critical: IPC 0.012519 < 0.02
Heartbeat CPU 0 instructions: 1380000217 cycles: 11080284091 heartbeat IPC: 0.1367 cumulative IPC: 0.1245 (Simulation time: 20 hr 27 min 11 sec)
Simulation CPU 0 critical: IPC 0.012519 < 0.02
Simulation CPU 0 panic: IPC 9.6e-06 < 0.01
Heartbeat CPU 0 instructions: 1390000220 cycles: 11153429475 heartbeat IPC: 0.1367 cumulative IPC: 0.1246 (Simulation time: 20 hr 36 min 12 sec)
Simulation CPU 0 warning: IPC 0.033658 < 0.05
Simulation CPU 0 warning: IPC 0.045428 < 0.05
Simulation CPU 0 panic: IPC 9.6e-06 < 0.01
Simulation CPU 0 warning: IPC 0.034433 < 0.05
Heartbeat CPU 0 instructions: 1400000220 cycles: 11254368125 heartbeat IPC: 0.09907 cumulative IPC: 0.1244 (Simulation time: 20 hr 47 min 49 sec)
Simulation CPU 0 warning: IPC 0.025735 < 0.05
Simulation CPU 0 warning: IPC 0.046833 < 0.05
Simulation CPU 0 panic: IPC 0.0095115 < 0.01
Simulation CPU 0 critical: IPC 0.010641 < 0.02
Simulation CPU 0 warning: IPC 0.046479 < 0.05
Heartbeat CPU 0 instructions: 1410000224 cycles: 11346249166 heartbeat IPC: 0.1088 cumulative IPC: 0.1243 (Simulation time: 20 hr 57 min 40 sec)
Simulation CPU 0 warning: IPC 0.048746 < 0.05
Simulation CPU 0 panic: IPC 9.6e-06 < 0.01
Simulation CPU 0 panic: IPC 9.6e-06 < 0.01
Simulation CPU 0 critical: IPC 0.012519 < 0.02
Simulation CPU 0 critical: IPC 0.016514 < 0.02
Simulation CPU 0 critical: IPC 0.012519 < 0.02
Heartbeat CPU 0 instructions: 1420000227 cycles: 11456260185 heartbeat IPC: 0.0909 cumulative IPC: 0.1239 (Simulation time: 21 hr 08 min 44 sec)
Simulation CPU 0 critical: IPC 0.012519 < 0.02
Simulation CPU 0 panic: IPC 9.6e-06 < 0.01
Heartbeat CPU 0 instructions: 1430000230 cycles: 11529408373 heartbeat IPC: 0.1367 cumulative IPC: 0.124 (Simulation time: 21 hr 16 min 42 sec)
Simulation CPU 0 panic: IPC 9.6e-06 < 0.01
Heartbeat CPU 0 instructions: 1440000234 cycles: 11621060679 heartbeat IPC: 0.1091 cumulative IPC: 0.1239 (Simulation time: 21 hr 26 min 16 sec)
Simulation CPU 0 warning: IPC 0.025845 < 0.05
Simulation CPU 0 warning: IPC 0.048979 < 0.05
Heartbeat CPU 0 instructions: 1450000236 cycles: 11664401360 heartbeat IPC: 0.2307 cumulative IPC: 0.1243 (Simulation time: 21 hr 31 min 12 sec)
Heartbeat CPU 0 instructions: 1460000237 cycles: 11680055834 heartbeat IPC: 0.6388 cumulative IPC: 0.125 (Simulation time: 21 hr 33 min 09 sec)
Simulation CPU 0 warning: IPC 0.046369 < 0.05
Simulation CPU 0 panic: IPC 4e-05 < 0.01
Heartbeat CPU 0 instructions: 1470000241 cycles: 11751142923 heartbeat IPC: 0.1407 cumulative IPC: 0.1251 (Simulation time: 21 hr 41 min 27 sec)
Simulation CPU 0 critical: IPC 0.012519 < 0.02
Heartbeat CPU 0 instructions: 1480000242 cycles: 11794512046 heartbeat IPC: 0.2306 cumulative IPC: 0.1255 (Simulation time: 21 hr 46 min 26 sec)
Simulation CPU 0 critical: IPC 0.012519 < 0.02
Heartbeat CPU 0 instructions: 1490000244 cycles: 11828646747 heartbeat IPC: 0.293 cumulative IPC: 0.126 (Simulation time: 21 hr 50 min 57 sec)
Simulation CPU 0 warning: IPC 0.030156 < 0.05
Heartbeat CPU 0 instructions: 1500000244 cycles: 11862778085 heartbeat IPC: 0.293 cumulative IPC: 0.1264 (Simulation time: 21 hr 55 min 29 sec)
Simulation CPU 0 panic: IPC 4e-05 < 0.01
Heartbeat CPU 0 instructions: 1510000244 cycles: 11915406335 heartbeat IPC: 0.19 cumulative IPC: 0.1267 (Simulation time: 22 hr 02 min 12 sec)
Simulation CPU 0 warning: IPC 0.033878 < 0.05
Simulation CPU 0 panic: IPC 4e-05 < 0.01
Heartbeat CPU 0 instructions: 1520000248 cycles: 11968013133 heartbeat IPC: 0.1901 cumulative IPC: 0.127 (Simulation time: 22 hr 08 min 19 sec)
Simulation CPU 0 warning: IPC 0.034433 < 0.05
Heartbeat CPU 0 instructions: 1530000248 cycles: 12020632956 heartbeat IPC: 0.19 cumulative IPC: 0.1273 (Simulation time: 22 hr 14 min 47 sec)
Simulation CPU 0 warning: IPC 0.025955 < 0.05
Simulation CPU 0 warning: IPC 0.046613 < 0.05
Simulation CPU 0 panic: IPC 0.0097311 < 0.01
Heartbeat CPU 0 instructions: 1540000248 cycles: 12063999156 heartbeat IPC: 0.2306 cumulative IPC: 0.1277 (Simulation time: 22 hr 20 min 06 sec)
Heartbeat CPU 0 instructions: 1550000251 cycles: 12079674208 heartbeat IPC: 0.638 cumulative IPC: 0.1283 (Simulation time: 22 hr 22 min 18 sec)
Simulation CPU 0 warning: IPC 0.04626 < 0.05
Simulation CPU 0 panic: IPC 4e-05 < 0.01
Heartbeat CPU 0 instructions: 1560000252 cycles: 12132270506 heartbeat IPC: 0.1901 cumulative IPC: 0.1286 (Simulation time: 22 hr 28 min 48 sec)
Simulation CPU 0 panic: IPC 4e-05 < 0.01
Simulation CPU 0 panic: IPC 0.0093882 < 0.01
Heartbeat CPU 0 instructions: 1570000253 cycles: 12184808254 heartbeat IPC: 0.1903 cumulative IPC: 0.1288 (Simulation time: 22 hr 35 min 28 sec)
Simulation CPU 0 panic: IPC 4e-05 < 0.01
Heartbeat CPU 0 instructions: 1580000255 cycles: 12209283296 heartbeat IPC: 0.4086 cumulative IPC: 0.1294 (Simulation time: 22 hr 38 min 49 sec)
Simulation CPU 0 critical: IPC 0.012519 < 0.02
Heartbeat CPU 0 instructions: 1590000255 cycles: 12234078794 heartbeat IPC: 0.4033 cumulative IPC: 0.13 (Simulation time: 22 hr 42 min 08 sec)
Simulation CPU 0 critical: IPC 0.012519 < 0.02
Heartbeat CPU 0 instructions: 1600000255 cycles: 12268209840 heartbeat IPC: 0.293 cumulative IPC: 0.1304 (Simulation time: 22 hr 46 min 39 sec)
Simulation CPU 0 panic: IPC 4e-05 < 0.01
Heartbeat CPU 0 instructions: 1610000255 cycles: 12320821689 heartbeat IPC: 0.1901 cumulative IPC: 0.1307 (Simulation time: 22 hr 53 min 24 sec)
Simulation CPU 0 warning: IPC 0.033988 < 0.05
Simulation CPU 0 warning: IPC 0.043914 < 0.05
Heartbeat CPU 0 instructions: 1620000255 cycles: 12382668806 heartbeat IPC: 0.1617 cumulative IPC: 0.1308 (Simulation time: 23 hr 00 min 08 sec)
Simulation CPU 0 warning: IPC 0.034433 < 0.05
Simulation CPU 0 panic: IPC 4e-05 < 0.01
Heartbeat CPU 0 instructions: 1630000256 cycles: 12426054997 heartbeat IPC: 0.2305 cumulative IPC: 0.1312 (Simulation time: 23 hr 04 min 20 sec)
Simulation CPU 0 warning: IPC 0.026064 < 0.05
Simulation CPU 0 warning: IPC 0.046504 < 0.05
Simulation CPU 0 panic: IPC 0.0098409 < 0.01
Heartbeat CPU 0 instructions: 1640000256 cycles: 12478698288 heartbeat IPC: 0.19 cumulative IPC: 0.1314 (Simulation time: 23 hr 09 min 54 sec)
Heartbeat CPU 0 instructions: 1650000256 cycles: 12494353120 heartbeat IPC: 0.6388 cumulative IPC: 0.1321 (Simulation time: 23 hr 11 min 22 sec)
Simulation CPU 0 panic: IPC 4e-05 < 0.01
Heartbeat CPU 0 instructions: 1660000258 cycles: 12537738365 heartbeat IPC: 0.2305 cumulative IPC: 0.1324 (Simulation time: 23 hr 15 min 35 sec)
Simulation CPU 0 panic: IPC 4e-05 < 0.01
Simulation CPU 0 panic: IPC 4e-05 < 0.01
Heartbeat CPU 0 instructions: 1670000258 cycles: 12599586065 heartbeat IPC: 0.1617 cumulative IPC: 0.1325 (Simulation time: 23 hr 22 min 29 sec)
Simulation CPU 0 critical: IPC 0.012519 < 0.02
Heartbeat CPU 0 instructions: 1680000260 cycles: 12624501105 heartbeat IPC: 0.4014 cumulative IPC: 0.1331 (Simulation time: 23 hr 25 min 53 sec)
Simulation CPU 0 critical: IPC 0.012519 < 0.02
Heartbeat CPU 0 instructions: 1690000261 cycles: 12658643350 heartbeat IPC: 0.2929 cumulative IPC: 0.1335 (Simulation time: 23 hr 30 min 23 sec)
Simulation CPU 0 panic: IPC 4e-05 < 0.01
Heartbeat CPU 0 instructions: 1700000265 cycles: 12692813010 heartbeat IPC: 0.2927 cumulative IPC: 0.1339 (Simulation time: 23 hr 34 min 53 sec)
Simulation CPU 0 warning: IPC 0.034098 < 0.05
Heartbeat CPU 0 instructions: 1710000267 cycles: 12726957863 heartbeat IPC: 0.2929 cumulative IPC: 0.1344 (Simulation time: 23 hr 39 min 12 sec)
Simulation CPU 0 panic: IPC 4e-05 < 0.01
Heartbeat CPU 0 instructions: 1720000269 cycles: 12760864561 heartbeat IPC: 0.2949 cumulative IPC: 0.1348 (Simulation time: 23 hr 43 min 44 sec)
Simulation CPU 0 warning: IPC 0.034433 < 0.05
Heartbeat CPU 0 instructions: 1730000269 cycles: 12794615905 heartbeat IPC: 0.2963 cumulative IPC: 0.1352 (Simulation time: 23 hr 47 min 34 sec)
Simulation CPU 0 warning: IPC 0.026174 < 0.05
Simulation CPU 0 warning: IPC 0.046394 < 0.05
Simulation CPU 0 panic: IPC 0.0099507 < 0.01
Heartbeat CPU 0 instructions: 1740000270 cycles: 12847245750 heartbeat IPC: 0.19 cumulative IPC: 0.1354 (Simulation time: 23 hr 54 min 03 sec)
Heartbeat CPU 0 instructions: 1750000273 cycles: 12872116021 heartbeat IPC: 0.4021 cumulative IPC: 0.136 (Simulation time: 23 hr 56 min 58 sec)
Simulation CPU 0 panic: IPC 4e-05 < 0.01
Simulation CPU 0 panic: IPC 4e-05 < 0.01
Heartbeat CPU 0 instructions: 1760000277 cycles: 12933963255 heartbeat IPC: 0.1617 cumulative IPC: 0.1361 (Simulation time: 00 hr 04 min 07 sec)
Simulation CPU 0 panic: IPC 0.0068769 < 0.01
Simulation CPU 0 panic: IPC 4e-05 < 0.01
Heartbeat CPU 0 instructions: 1770000278 cycles: 12986568263 heartbeat IPC: 0.1901 cumulative IPC: 0.1363 (Simulation time: 00 hr 10 min 25 sec)
Simulation CPU 0 critical: IPC 0.012519 < 0.02
Heartbeat CPU 0 instructions: 1780000281 cycles: 13020698795 heartbeat IPC: 0.293 cumulative IPC: 0.1367 (Simulation time: 00 hr 14 min 52 sec)
Simulation CPU 0 critical: IPC 0.012519 < 0.02
Heartbeat CPU 0 instructions: 1790000282 cycles: 13054824647 heartbeat IPC: 0.293 cumulative IPC: 0.1371 (Simulation time: 00 hr 19 min 00 sec)
Simulation CPU 0 panic: IPC 4e-05 < 0.01
Heartbeat CPU 0 instructions: 1800000283 cycles: 13098190757 heartbeat IPC: 0.2306 cumulative IPC: 0.1374 (Simulation time: 00 hr 22 min 53 sec)
Simulation CPU 0 warning: IPC 0.045145 < 0.05
Heartbeat CPU 0 instructions: 1810000283 cycles: 13141564977 heartbeat IPC: 0.2306 cumulative IPC: 0.1377 (Simulation time: 00 hr 26 min 53 sec)
Simulation CPU 0 warning: IPC 0.034433 < 0.05
Simulation CPU 0 panic: IPC 4e-05 < 0.01
Heartbeat CPU 0 instructions: 1820000283 cycles: 13184921085 heartbeat IPC: 0.2306 cumulative IPC: 0.138 (Simulation time: 00 hr 30 min 38 sec)
Simulation CPU 0 warning: IPC 0.023153 < 0.05
Simulation CPU 0 warning: IPC 0.046284 < 0.05
Simulation CPU 0 critical: IPC 0.01006 < 0.02
Simulation CPU 0 warning: IPC 0.034433 < 0.05
Heartbeat CPU 0 instructions: 1830000287 cycles: 13237531345 heartbeat IPC: 0.1901 cumulative IPC: 0.1382 (Simulation time: 00 hr 36 min 17 sec)
Heartbeat CPU 0 instructions: 1840000287 cycles: 13262403951 heartbeat IPC: 0.402 cumulative IPC: 0.1387 (Simulation time: 00 hr 39 min 35 sec)
Simulation CPU 0 panic: IPC 4e-05 < 0.01
Heartbeat CPU 0 instructions: 1850000290 cycles: 13305791943 heartbeat IPC: 0.2305 cumulative IPC: 0.139 (Simulation time: 00 hr 44 min 26 sec)
Simulation CPU 0 panic: IPC 4e-05 < 0.01
Heartbeat CPU 0 instructions: 1860000291 cycles: 13339941967 heartbeat IPC: 0.2928 cumulative IPC: 0.1394 (Simulation time: 00 hr 48 min 00 sec)
Simulation CPU 0 warning: IPC 0.04494 < 0.05
Simulation CPU 0 critical: IPC 0.012519 < 0.02
Heartbeat CPU 0 instructions: 1870000291 cycles: 13392148884 heartbeat IPC: 0.1915 cumulative IPC: 0.1396 (Simulation time: 00 hr 53 min 50 sec)
Heartbeat CPU 0 instructions: 1880000291 cycles: 13407581060 heartbeat IPC: 0.648 cumulative IPC: 0.1402 (Simulation time: 00 hr 56 min 06 sec)
Simulation CPU 0 critical: IPC 0.012519 < 0.02
Heartbeat CPU 0 instructions: 1890000291 cycles: 13432466358 heartbeat IPC: 0.4018 cumulative IPC: 0.1407 (Simulation time: 00 hr 59 min 29 sec)
Heartbeat CPU 0 instructions: 1900000295 cycles: 13466583142 heartbeat IPC: 0.2931 cumulative IPC: 0.1411 (Simulation time: 01 hr 03 min 59 sec)
Simulation CPU 0 panic: IPC 4e-05 < 0.01
Heartbeat CPU 0 instructions: 1910000297 cycles: 13509936135 heartbeat IPC: 0.2307 cumulative IPC: 0.1414 (Simulation time: 01 hr 09 min 34 sec)
Simulation CPU 0 warning: IPC 0.034433 < 0.05
Simulation CPU 0 critical: IPC 0.010833 < 0.02
Heartbeat CPU 0 instructions: 1920000297 cycles: 13553296441 heartbeat IPC: 0.2306 cumulative IPC: 0.1417 (Simulation time: 01 hr 14 min 03 sec)
Simulation CPU 0 warning: IPC 0.046174 < 0.05
Simulation CPU 0 critical: IPC 0.01017 < 0.02
Simulation CPU 0 warning: IPC 0.034433 < 0.05
Heartbeat CPU 0 instructions: 1930000297 cycles: 13596664915 heartbeat IPC: 0.2306 cumulative IPC: 0.1419 (Simulation time: 01 hr 18 min 07 sec)
Simulation CPU 0 critical: IPC 0.011744 < 0.02
Heartbeat CPU 0 instructions: 1940000298 cycles: 13630808692 heartbeat IPC: 0.2929 cumulative IPC: 0.1423 (Simulation time: 01 hr 21 min 43 sec)
Heartbeat CPU 0 instructions: 1950000298 cycles: 13655708417 heartbeat IPC: 0.4016 cumulative IPC: 0.1428 (Simulation time: 01 hr 25 min 05 sec)
Simulation CPU 0 panic: IPC 4e-05 < 0.01
Simulation CPU 0 panic: IPC 4e-05 < 0.01
Heartbeat CPU 0 instructions: 1960000300 cycles: 13717560710 heartbeat IPC: 0.1617 cumulative IPC: 0.1429 (Simulation time: 01 hr 31 min 30 sec)
Heartbeat CPU 0 instructions: 1970000304 cycles: 13760924836 heartbeat IPC: 0.2306 cumulative IPC: 0.1432 (Simulation time: 01 hr 35 min 18 sec)
Simulation CPU 0 critical: IPC 0.012519 < 0.02
Simulation CPU 0 warning: IPC 0.04543 < 0.05
Heartbeat CPU 0 instructions: 1980000307 cycles: 13795070315 heartbeat IPC: 0.2929 cumulative IPC: 0.1435 (Simulation time: 01 hr 39 min 08 sec)
Heartbeat CPU 0 instructions: 1990000308 cycles: 13819955491 heartbeat IPC: 0.4018 cumulative IPC: 0.144 (Simulation time: 01 hr 41 min 51 sec)

=== ERROR PAGE STATISTICS ===
Mode: CYCLE
Error Cycle Interval: 7053240154 CPU cycles
Total Error Accesses: 1
==============================
Simulation finished CPU 0 instructions: 1999999509 cycles: 13844859394 cumulative IPC: 0.1445 (Simulation time: 01 hr 44 min 14 sec)
Simulation complete CPU 0 instructions: 1999999509 cycles: 13844859394 cumulative IPC: 0.1445 (Simulation time: 01 hr 44 min 14 sec)

ChampSim completed all CPUs

=== Simulation ===
CPU 0 runs test_traces/654.roms_s-1007B.champsimtrace.xz

Region of Interest Statistics

CPU 0 cumulative IPC: 0.1445 instructions: 1999999509 cycles: 13844859394
CPU 0 Branch Prediction Accuracy: 95.85% MPKI: 3.086 Average ROB Occupancy at Mispredict: 45.57
Branch type MPKI
BRANCH_DIRECT_JUMP: 9.8e-05
BRANCH_INDIRECT: 6e-06
BRANCH_CONDITIONAL: 1.593
BRANCH_DIRECT_CALL: 3.65e-05
BRANCH_INDIRECT_CALL: 0
BRANCH_RETURN: 1.493

cpu0->cpu0_STLB TOTAL        ACCESS:   39121317 HIT:   39119793 MISS:       1524 MSHR_MERGE:          0
cpu0->cpu0_STLB LOAD         ACCESS:   39121317 HIT:   39119793 MISS:       1524 MSHR_MERGE:          0
cpu0->cpu0_STLB RFO          ACCESS:          0 HIT:          0 MISS:          0 MSHR_MERGE:          0
cpu0->cpu0_STLB PREFETCH     ACCESS:          0 HIT:          0 MISS:          0 MSHR_MERGE:          0
cpu0->cpu0_STLB WRITE        ACCESS:          0 HIT:          0 MISS:          0 MSHR_MERGE:          0
cpu0->cpu0_STLB TRANSLATION  ACCESS:          0 HIT:          0 MISS:          0 MSHR_MERGE:          0
cpu0->cpu0_STLB PREFETCH REQUESTED:          0 ISSUED:          0 USEFUL:          0 USELESS:          0
cpu0->cpu0_STLB AVERAGE MISS LATENCY: 9.237e+06 cycles
cpu0->cpu0_L2C TOTAL        ACCESS:   35188149 HIT:   15859192 MISS:   19328957 MSHR_MERGE:          0
cpu0->cpu0_L2C LOAD         ACCESS:   22564001 HIT:    7672695 MISS:   14891306 MSHR_MERGE:          0
cpu0->cpu0_L2C RFO          ACCESS:    5289509 HIT:     857678 MISS:    4431831 MSHR_MERGE:          0
cpu0->cpu0_L2C PREFETCH     ACCESS:          0 HIT:          0 MISS:          0 MSHR_MERGE:          0
cpu0->cpu0_L2C WRITE        ACCESS:    7334639 HIT:    7328819 MISS:       5820 MSHR_MERGE:          0
cpu0->cpu0_L2C TRANSLATION  ACCESS:          0 HIT:          0 MISS:          0 MSHR_MERGE:          0
cpu0->cpu0_L2C PREFETCH REQUESTED:          0 ISSUED:          0 USEFUL:          0 USELESS:          0
cpu0->cpu0_L2C AVERAGE MISS LATENCY: 59.76 cycles
cpu0->cpu0_L1I TOTAL        ACCESS:  419236635 HIT:  419236037 MISS:        598 MSHR_MERGE:        185
cpu0->cpu0_L1I LOAD         ACCESS:  419236635 HIT:  419236037 MISS:        598 MSHR_MERGE:        185
cpu0->cpu0_L1I RFO          ACCESS:          0 HIT:          0 MISS:          0 MSHR_MERGE:          0
cpu0->cpu0_L1I PREFETCH     ACCESS:          0 HIT:          0 MISS:          0 MSHR_MERGE:          0
cpu0->cpu0_L1I WRITE        ACCESS:          0 HIT:          0 MISS:          0 MSHR_MERGE:          0
cpu0->cpu0_L1I TRANSLATION  ACCESS:          0 HIT:          0 MISS:          0 MSHR_MERGE:          0
cpu0->cpu0_L1I PREFETCH REQUESTED:          0 ISSUED:          0 USEFUL:          0 USELESS:          0
cpu0->cpu0_L1I AVERAGE MISS LATENCY: 119.1 cycles
cpu0->cpu0_L1D TOTAL        ACCESS:  768645700 HIT:  729891259 MISS:   38754441 MSHR_MERGE:   10900817
cpu0->cpu0_L1D LOAD         ACCESS:  587566499 HIT:  557814558 MISS:   29751941 MSHR_MERGE:    7188349
cpu0->cpu0_L1D RFO          ACCESS:          0 HIT:          0 MISS:          0 MSHR_MERGE:          0
cpu0->cpu0_L1D PREFETCH     ACCESS:          0 HIT:          0 MISS:          0 MSHR_MERGE:          0
cpu0->cpu0_L1D WRITE        ACCESS:  181079201 HIT:  172076701 MISS:    9002500 MSHR_MERGE:    3712468
cpu0->cpu0_L1D TRANSLATION  ACCESS:          0 HIT:          0 MISS:          0 MSHR_MERGE:          0
cpu0->cpu0_L1D PREFETCH REQUESTED:          0 ISSUED:          0 USEFUL:          0 USELESS:          0
cpu0->cpu0_L1D AVERAGE MISS LATENCY: 50.21 cycles
cpu0->cpu0_ITLB TOTAL        ACCESS:  364548360 HIT:  364548358 MISS:          2 MSHR_MERGE:          0
cpu0->cpu0_ITLB LOAD         ACCESS:  364548360 HIT:  364548358 MISS:          2 MSHR_MERGE:          0
cpu0->cpu0_ITLB RFO          ACCESS:          0 HIT:          0 MISS:          0 MSHR_MERGE:          0
cpu0->cpu0_ITLB PREFETCH     ACCESS:          0 HIT:          0 MISS:          0 MSHR_MERGE:          0
cpu0->cpu0_ITLB WRITE        ACCESS:          0 HIT:          0 MISS:          0 MSHR_MERGE:          0
cpu0->cpu0_ITLB TRANSLATION  ACCESS:          0 HIT:          0 MISS:          0 MSHR_MERGE:          0
cpu0->cpu0_ITLB PREFETCH REQUESTED:          0 ISSUED:          0 USEFUL:          0 USELESS:          0
cpu0->cpu0_ITLB AVERAGE MISS LATENCY: 1.386e+07 cycles
cpu0->cpu0_DTLB TOTAL        ACCESS:  653179163 HIT:  614045525 MISS:   39133638 MSHR_MERGE:      12323
cpu0->cpu0_DTLB LOAD         ACCESS:  653179163 HIT:  614045525 MISS:   39133638 MSHR_MERGE:      12323
cpu0->cpu0_DTLB RFO          ACCESS:          0 HIT:          0 MISS:          0 MSHR_MERGE:          0
cpu0->cpu0_DTLB PREFETCH     ACCESS:          0 HIT:          0 MISS:          0 MSHR_MERGE:          0
cpu0->cpu0_DTLB WRITE        ACCESS:          0 HIT:          0 MISS:          0 MSHR_MERGE:          0
cpu0->cpu0_DTLB TRANSLATION  ACCESS:          0 HIT:          0 MISS:          0 MSHR_MERGE:          0
cpu0->cpu0_DTLB PREFETCH REQUESTED:          0 ISSUED:          0 USEFUL:          0 USELESS:          0
cpu0->cpu0_DTLB AVERAGE MISS LATENCY: 364.1 cycles
cpu0->LLC TOTAL        ACCESS:   25251976 HIT:   16383796 MISS:    8868180 MSHR_MERGE:          0
cpu0->LLC LOAD         ACCESS:   14891306 HIT:    7671962 MISS:    7219344 MSHR_MERGE:          0
cpu0->LLC RFO          ACCESS:    4431831 HIT:    2788318 MISS:    1643513 MSHR_MERGE:          0
cpu0->LLC PREFETCH     ACCESS:          0 HIT:          0 MISS:          0 MSHR_MERGE:          0
cpu0->LLC WRITE        ACCESS:    5928839 HIT:    5923516 MISS:       5323 MSHR_MERGE:          0
cpu0->LLC TRANSLATION  ACCESS:          0 HIT:          0 MISS:          0 MSHR_MERGE:          0
cpu0->LLC PREFETCH REQUESTED:          0 ISSUED:          0 USEFUL:          0 USELESS:          0
cpu0->LLC AVERAGE MISS LATENCY: 96.56 cycles

DRAM Statistics

Channel 0 RQ ROW_BUFFER_HIT:      78599
  ROW_BUFFER_MISS:    4354440
  AVG DBUS CONGESTED CYCLE: 11.43
Channel 0 WQ ROW_BUFFER_HIT:     180589
  ROW_BUFFER_MISS:     677853
  FULL:          0
Channel 0 REFRESHES ISSUED:    1153664

Channel 1 RQ ROW_BUFFER_HIT:      78815
  ROW_BUFFER_MISS:    4353916
  AVG DBUS CONGESTED CYCLE: 11.44
Channel 1 WQ ROW_BUFFER_HIT:     179960
  ROW_BUFFER_MISS:     678064
  FULL:          0
Channel 1 REFRESHES ISSUED:    1153664
