[VMEM] WARNING: physical memory size is smaller than virtual memory size.

*** ChampSim Multicore Out-of-Order Simulator ***
Warmup Instructions: 0
Simulation Instructions: 9223372036854775807
Number of CPUs: 1
Page size: 2097152

Off-chip DRAM Size: 32 GiB Channels: 2 Width: 32-bit Data Rate: 4807 MT/s
[ERROR_PAGE_MANAGER] Error latency: 1990500 
[ERROR_PAGE_MANAGER] Random seed: 54321 (fixed for preload reproducibility)
[ERROR_PAGE_MANAGER] Cycle-based error modeling enabled
[ERROR_PAGE_MANAGER] Errors per interval: 1
[ERROR_PAGE_MANAGER] Error cycle interval: 705324015 cycles

=== ERROR PAGE STATISTICS ===
Mode: CYCLE
Error Cycle Interval: 705324015 CPU cycles
Total Error Accesses: 0
==============================
Warmup finished CPU 0 instructions: 0 cycles: 1 cumulative IPC: 0 (Simulation time: 00 hr 00 min 00 sec)
Warmup complete CPU 0 instructions: 0 cycles: 1 cumulative IPC: 0 (Simulation time: 00 hr 00 min 00 sec)
Heartbeat CPU 0 instructions: 10000004 cycles: 7777938 heartbeat IPC: 1.286 cumulative IPC: 1.286 (Simulation time: 00 hr 01 min 12 sec)
Heartbeat CPU 0 instructions: 20000004 cycles: 15541985 heartbeat IPC: 1.288 cumulative IPC: 1.287 (Simulation time: 00 hr 02 min 17 sec)
Heartbeat CPU 0 instructions: 30000004 cycles: 23683304 heartbeat IPC: 1.228 cumulative IPC: 1.267 (Simulation time: 00 hr 03 min 15 sec)
Heartbeat CPU 0 instructions: 40000008 cycles: 31409445 heartbeat IPC: 1.294 cumulative IPC: 1.274 (Simulation time: 00 hr 04 min 13 sec)
Heartbeat CPU 0 instructions: 50000009 cycles: 39568740 heartbeat IPC: 1.226 cumulative IPC: 1.264 (Simulation time: 00 hr 05 min 15 sec)
Heartbeat CPU 0 instructions: 60000010 cycles: 47801686 heartbeat IPC: 1.215 cumulative IPC: 1.255 (Simulation time: 00 hr 06 min 28 sec)
Heartbeat CPU 0 instructions: 70000013 cycles: 55534803 heartbeat IPC: 1.293 cumulative IPC: 1.26 (Simulation time: 00 hr 07 min 40 sec)
Heartbeat CPU 0 instructions: 80000013 cycles: 63740227 heartbeat IPC: 1.219 cumulative IPC: 1.255 (Simulation time: 00 hr 08 min 56 sec)
Heartbeat CPU 0 instructions: 90000014 cycles: 71407919 heartbeat IPC: 1.304 cumulative IPC: 1.26 (Simulation time: 00 hr 10 min 08 sec)
Heartbeat CPU 0 instructions: 100000015 cycles: 79233742 heartbeat IPC: 1.278 cumulative IPC: 1.262 (Simulation time: 00 hr 11 min 20 sec)
Heartbeat CPU 0 instructions: 110000018 cycles: 87161988 heartbeat IPC: 1.261 cumulative IPC: 1.262 (Simulation time: 00 hr 12 min 34 sec)
Heartbeat CPU 0 instructions: 120000022 cycles: 95052978 heartbeat IPC: 1.267 cumulative IPC: 1.262 (Simulation time: 00 hr 13 min 48 sec)
Heartbeat CPU 0 instructions: 130000024 cycles: 103224122 heartbeat IPC: 1.224 cumulative IPC: 1.259 (Simulation time: 00 hr 15 min 03 sec)
Heartbeat CPU 0 instructions: 140000025 cycles: 111022781 heartbeat IPC: 1.282 cumulative IPC: 1.261 (Simulation time: 00 hr 16 min 16 sec)
Heartbeat CPU 0 instructions: 150000028 cycles: 118760826 heartbeat IPC: 1.292 cumulative IPC: 1.263 (Simulation time: 00 hr 17 min 29 sec)
Heartbeat CPU 0 instructions: 160000029 cycles: 126474553 heartbeat IPC: 1.296 cumulative IPC: 1.265 (Simulation time: 00 hr 18 min 33 sec)
Heartbeat CPU 0 instructions: 170000032 cycles: 134081493 heartbeat IPC: 1.315 cumulative IPC: 1.268 (Simulation time: 00 hr 19 min 27 sec)
Heartbeat CPU 0 instructions: 180000035 cycles: 141706579 heartbeat IPC: 1.311 cumulative IPC: 1.27 (Simulation time: 00 hr 20 min 33 sec)
Heartbeat CPU 0 instructions: 190000037 cycles: 149503550 heartbeat IPC: 1.283 cumulative IPC: 1.271 (Simulation time: 00 hr 21 min 46 sec)
Heartbeat CPU 0 instructions: 200000039 cycles: 157211159 heartbeat IPC: 1.297 cumulative IPC: 1.272 (Simulation time: 00 hr 22 min 58 sec)
Heartbeat CPU 0 instructions: 210000042 cycles: 165153258 heartbeat IPC: 1.259 cumulative IPC: 1.272 (Simulation time: 00 hr 24 min 10 sec)
Heartbeat CPU 0 instructions: 220000046 cycles: 173052664 heartbeat IPC: 1.266 cumulative IPC: 1.271 (Simulation time: 00 hr 25 min 22 sec)
Heartbeat CPU 0 instructions: 230000048 cycles: 180954362 heartbeat IPC: 1.266 cumulative IPC: 1.271 (Simulation time: 00 hr 26 min 36 sec)
Heartbeat CPU 0 instructions: 240000049 cycles: 188738795 heartbeat IPC: 1.285 cumulative IPC: 1.272 (Simulation time: 00 hr 27 min 46 sec)
Heartbeat CPU 0 instructions: 250000050 cycles: 196533947 heartbeat IPC: 1.283 cumulative IPC: 1.272 (Simulation time: 00 hr 28 min 58 sec)
Heartbeat CPU 0 instructions: 260000052 cycles: 204519418 heartbeat IPC: 1.252 cumulative IPC: 1.271 (Simulation time: 00 hr 30 min 11 sec)
Heartbeat CPU 0 instructions: 270000054 cycles: 212115643 heartbeat IPC: 1.316 cumulative IPC: 1.273 (Simulation time: 00 hr 31 min 13 sec)
Heartbeat CPU 0 instructions: 280000055 cycles: 219875541 heartbeat IPC: 1.289 cumulative IPC: 1.273 (Simulation time: 00 hr 32 min 11 sec)
Heartbeat CPU 0 instructions: 290000059 cycles: 227514013 heartbeat IPC: 1.309 cumulative IPC: 1.275 (Simulation time: 00 hr 33 min 13 sec)
Heartbeat CPU 0 instructions: 300000062 cycles: 235241275 heartbeat IPC: 1.294 cumulative IPC: 1.275 (Simulation time: 00 hr 34 min 25 sec)
Heartbeat CPU 0 instructions: 310000062 cycles: 242916914 heartbeat IPC: 1.303 cumulative IPC: 1.276 (Simulation time: 00 hr 35 min 26 sec)
Heartbeat CPU 0 instructions: 320000065 cycles: 250511399 heartbeat IPC: 1.317 cumulative IPC: 1.277 (Simulation time: 00 hr 36 min 30 sec)
Heartbeat CPU 0 instructions: 330000065 cycles: 258133025 heartbeat IPC: 1.312 cumulative IPC: 1.278 (Simulation time: 00 hr 37 min 39 sec)
Heartbeat CPU 0 instructions: 340000066 cycles: 265858034 heartbeat IPC: 1.294 cumulative IPC: 1.279 (Simulation time: 00 hr 38 min 51 sec)
Heartbeat CPU 0 instructions: 350000070 cycles: 273578635 heartbeat IPC: 1.295 cumulative IPC: 1.279 (Simulation time: 00 hr 39 min 54 sec)
Heartbeat CPU 0 instructions: 360000070 cycles: 281320494 heartbeat IPC: 1.292 cumulative IPC: 1.28 (Simulation time: 00 hr 40 min 47 sec)
Heartbeat CPU 0 instructions: 370000071 cycles: 289356252 heartbeat IPC: 1.244 cumulative IPC: 1.279 (Simulation time: 00 hr 41 min 42 sec)
Heartbeat CPU 0 instructions: 380000075 cycles: 297150044 heartbeat IPC: 1.283 cumulative IPC: 1.279 (Simulation time: 00 hr 42 min 47 sec)
Heartbeat CPU 0 instructions: 390000077 cycles: 305002198 heartbeat IPC: 1.274 cumulative IPC: 1.279 (Simulation time: 00 hr 44 min 01 sec)
Heartbeat CPU 0 instructions: 400000078 cycles: 312800583 heartbeat IPC: 1.282 cumulative IPC: 1.279 (Simulation time: 00 hr 45 min 13 sec)
Heartbeat CPU 0 instructions: 410000081 cycles: 320559673 heartbeat IPC: 1.289 cumulative IPC: 1.279 (Simulation time: 00 hr 46 min 26 sec)
Heartbeat CPU 0 instructions: 420000081 cycles: 328483560 heartbeat IPC: 1.262 cumulative IPC: 1.279 (Simulation time: 00 hr 47 min 34 sec)
Heartbeat CPU 0 instructions: 430000081 cycles: 336405990 heartbeat IPC: 1.262 cumulative IPC: 1.278 (Simulation time: 00 hr 48 min 40 sec)
Heartbeat CPU 0 instructions: 440000085 cycles: 344355809 heartbeat IPC: 1.258 cumulative IPC: 1.278 (Simulation time: 00 hr 49 min 52 sec)
Heartbeat CPU 0 instructions: 450000086 cycles: 352242944 heartbeat IPC: 1.268 cumulative IPC: 1.278 (Simulation time: 00 hr 51 min 05 sec)
Heartbeat CPU 0 instructions: 460000087 cycles: 359917666 heartbeat IPC: 1.303 cumulative IPC: 1.278 (Simulation time: 00 hr 52 min 16 sec)
Heartbeat CPU 0 instructions: 470000088 cycles: 367676453 heartbeat IPC: 1.289 cumulative IPC: 1.278 (Simulation time: 00 hr 53 min 27 sec)
Heartbeat CPU 0 instructions: 480000089 cycles: 375387491 heartbeat IPC: 1.297 cumulative IPC: 1.279 (Simulation time: 00 hr 54 min 38 sec)
Heartbeat CPU 0 instructions: 490000091 cycles: 383270464 heartbeat IPC: 1.269 cumulative IPC: 1.278 (Simulation time: 00 hr 55 min 47 sec)
Heartbeat CPU 0 instructions: 500000092 cycles: 390993768 heartbeat IPC: 1.295 cumulative IPC: 1.279 (Simulation time: 00 hr 56 min 51 sec)
Heartbeat CPU 0 instructions: 510000092 cycles: 398731168 heartbeat IPC: 1.292 cumulative IPC: 1.279 (Simulation time: 00 hr 58 min 03 sec)
Heartbeat CPU 0 instructions: 520000096 cycles: 406619567 heartbeat IPC: 1.268 cumulative IPC: 1.279 (Simulation time: 00 hr 59 min 06 sec)
Heartbeat CPU 0 instructions: 530000100 cycles: 414266361 heartbeat IPC: 1.308 cumulative IPC: 1.279 (Simulation time: 00 hr 59 min 53 sec)
Heartbeat CPU 0 instructions: 540000102 cycles: 421943466 heartbeat IPC: 1.303 cumulative IPC: 1.28 (Simulation time: 01 hr 00 min 46 sec)
Heartbeat CPU 0 instructions: 550000103 cycles: 429547851 heartbeat IPC: 1.315 cumulative IPC: 1.28 (Simulation time: 01 hr 01 min 46 sec)
Heartbeat CPU 0 instructions: 560000106 cycles: 437151434 heartbeat IPC: 1.315 cumulative IPC: 1.281 (Simulation time: 01 hr 02 min 56 sec)
Heartbeat CPU 0 instructions: 570000107 cycles: 444769435 heartbeat IPC: 1.313 cumulative IPC: 1.282 (Simulation time: 01 hr 04 min 07 sec)
Heartbeat CPU 0 instructions: 580000111 cycles: 452369067 heartbeat IPC: 1.316 cumulative IPC: 1.282 (Simulation time: 01 hr 05 min 19 sec)
Heartbeat CPU 0 instructions: 590000112 cycles: 459993793 heartbeat IPC: 1.312 cumulative IPC: 1.283 (Simulation time: 01 hr 06 min 17 sec)
Heartbeat CPU 0 instructions: 600000112 cycles: 467648017 heartbeat IPC: 1.306 cumulative IPC: 1.283 (Simulation time: 01 hr 07 min 11 sec)
Heartbeat CPU 0 instructions: 610000112 cycles: 475715255 heartbeat IPC: 1.24 cumulative IPC: 1.282 (Simulation time: 01 hr 08 min 18 sec)
Heartbeat CPU 0 instructions: 620000113 cycles: 483839798 heartbeat IPC: 1.231 cumulative IPC: 1.281 (Simulation time: 01 hr 09 min 14 sec)
Heartbeat CPU 0 instructions: 630000117 cycles: 491528260 heartbeat IPC: 1.301 cumulative IPC: 1.282 (Simulation time: 01 hr 10 min 01 sec)
Heartbeat CPU 0 instructions: 640000118 cycles: 499279467 heartbeat IPC: 1.29 cumulative IPC: 1.282 (Simulation time: 01 hr 10 min 48 sec)
Heartbeat CPU 0 instructions: 650000122 cycles: 507031325 heartbeat IPC: 1.29 cumulative IPC: 1.282 (Simulation time: 01 hr 11 min 34 sec)
Heartbeat CPU 0 instructions: 660000123 cycles: 514639189 heartbeat IPC: 1.314 cumulative IPC: 1.282 (Simulation time: 01 hr 12 min 19 sec)
Heartbeat CPU 0 instructions: 670000127 cycles: 522272211 heartbeat IPC: 1.31 cumulative IPC: 1.283 (Simulation time: 01 hr 13 min 05 sec)
Heartbeat CPU 0 instructions: 680000128 cycles: 529928081 heartbeat IPC: 1.306 cumulative IPC: 1.283 (Simulation time: 01 hr 13 min 53 sec)
Heartbeat CPU 0 instructions: 690000131 cycles: 537792814 heartbeat IPC: 1.271 cumulative IPC: 1.283 (Simulation time: 01 hr 14 min 53 sec)
Heartbeat CPU 0 instructions: 700000133 cycles: 545677580 heartbeat IPC: 1.268 cumulative IPC: 1.283 (Simulation time: 01 hr 16 min 04 sec)
Heartbeat CPU 0 instructions: 710000134 cycles: 553344213 heartbeat IPC: 1.304 cumulative IPC: 1.283 (Simulation time: 01 hr 17 min 13 sec)
Heartbeat CPU 0 instructions: 720000138 cycles: 560946293 heartbeat IPC: 1.315 cumulative IPC: 1.284 (Simulation time: 01 hr 18 min 22 sec)
Heartbeat CPU 0 instructions: 730000140 cycles: 568687470 heartbeat IPC: 1.292 cumulative IPC: 1.284 (Simulation time: 01 hr 19 min 27 sec)
Heartbeat CPU 0 instructions: 740000140 cycles: 576600760 heartbeat IPC: 1.264 cumulative IPC: 1.283 (Simulation time: 01 hr 20 min 39 sec)
Heartbeat CPU 0 instructions: 750000144 cycles: 584729257 heartbeat IPC: 1.23 cumulative IPC: 1.283 (Simulation time: 01 hr 21 min 54 sec)
Heartbeat CPU 0 instructions: 760000145 cycles: 592894133 heartbeat IPC: 1.225 cumulative IPC: 1.282 (Simulation time: 01 hr 22 min 49 sec)
Heartbeat CPU 0 instructions: 770000145 cycles: 601006412 heartbeat IPC: 1.233 cumulative IPC: 1.281 (Simulation time: 01 hr 24 min 02 sec)
Heartbeat CPU 0 instructions: 780000147 cycles: 608804509 heartbeat IPC: 1.282 cumulative IPC: 1.281 (Simulation time: 01 hr 25 min 11 sec)
Heartbeat CPU 0 instructions: 790000148 cycles: 616484539 heartbeat IPC: 1.302 cumulative IPC: 1.281 (Simulation time: 01 hr 26 min 12 sec)
Heartbeat CPU 0 instructions: 800000150 cycles: 624148902 heartbeat IPC: 1.305 cumulative IPC: 1.282 (Simulation time: 01 hr 26 min 59 sec)
Heartbeat CPU 0 instructions: 810000153 cycles: 631786010 heartbeat IPC: 1.309 cumulative IPC: 1.282 (Simulation time: 01 hr 27 min 57 sec)
Heartbeat CPU 0 instructions: 820000154 cycles: 639428039 heartbeat IPC: 1.309 cumulative IPC: 1.282 (Simulation time: 01 hr 28 min 59 sec)
Heartbeat CPU 0 instructions: 830000157 cycles: 647067423 heartbeat IPC: 1.309 cumulative IPC: 1.283 (Simulation time: 01 hr 29 min 45 sec)
Heartbeat CPU 0 instructions: 840000159 cycles: 655185772 heartbeat IPC: 1.232 cumulative IPC: 1.282 (Simulation time: 01 hr 30 min 50 sec)
Heartbeat CPU 0 instructions: 850000162 cycles: 663247669 heartbeat IPC: 1.24 cumulative IPC: 1.282 (Simulation time: 01 hr 31 min 47 sec)
Heartbeat CPU 0 instructions: 860000162 cycles: 670869723 heartbeat IPC: 1.312 cumulative IPC: 1.282 (Simulation time: 01 hr 32 min 55 sec)
Heartbeat CPU 0 instructions: 870000163 cycles: 678482157 heartbeat IPC: 1.314 cumulative IPC: 1.282 (Simulation time: 01 hr 34 min 05 sec)
Heartbeat CPU 0 instructions: 880000164 cycles: 686077295 heartbeat IPC: 1.317 cumulative IPC: 1.283 (Simulation time: 01 hr 35 min 16 sec)
Heartbeat CPU 0 instructions: 890000167 cycles: 693658347 heartbeat IPC: 1.319 cumulative IPC: 1.283 (Simulation time: 01 hr 36 min 25 sec)
Heartbeat CPU 0 instructions: 900000167 cycles: 701230290 heartbeat IPC: 1.321 cumulative IPC: 1.283 (Simulation time: 01 hr 37 min 33 sec)
[ERROR_CYCLE] Error added at CPU cycle 705324016, interval 1, pending count: 1
[DRAM_CYCLE_ERROR] Cycle-based error applied! address=0xe0a01c00 additional_latency=1990500 cycles
Heartbeat CPU 0 instructions: 910000170 cycles: 708826740 heartbeat IPC: 1.316 cumulative IPC: 1.284 (Simulation time: 01 hr 38 min 23 sec)
Heartbeat CPU 0 instructions: 920000172 cycles: 716465808 heartbeat IPC: 1.309 cumulative IPC: 1.284 (Simulation time: 01 hr 39 min 18 sec)
Heartbeat CPU 0 instructions: 930000172 cycles: 724195475 heartbeat IPC: 1.294 cumulative IPC: 1.284 (Simulation time: 01 hr 40 min 13 sec)
Heartbeat CPU 0 instructions: 940000173 cycles: 732368586 heartbeat IPC: 1.224 cumulative IPC: 1.284 (Simulation time: 01 hr 41 min 14 sec)
Heartbeat CPU 0 instructions: 950000174 cycles: 740169825 heartbeat IPC: 1.282 cumulative IPC: 1.283 (Simulation time: 01 hr 42 min 10 sec)
Heartbeat CPU 0 instructions: 960000175 cycles: 747908616 heartbeat IPC: 1.292 cumulative IPC: 1.284 (Simulation time: 01 hr 43 min 02 sec)
Heartbeat CPU 0 instructions: 970000177 cycles: 755829488 heartbeat IPC: 1.262 cumulative IPC: 1.283 (Simulation time: 01 hr 43 min 53 sec)
Heartbeat CPU 0 instructions: 980000178 cycles: 763936200 heartbeat IPC: 1.234 cumulative IPC: 1.283 (Simulation time: 01 hr 44 min 42 sec)
Heartbeat CPU 0 instructions: 990000178 cycles: 771743439 heartbeat IPC: 1.281 cumulative IPC: 1.283 (Simulation time: 01 hr 45 min 33 sec)
Heartbeat CPU 0 instructions: 1000000180 cycles: 779662610 heartbeat IPC: 1.263 cumulative IPC: 1.283 (Simulation time: 01 hr 46 min 31 sec)
Heartbeat CPU 0 instructions: 1010000180 cycles: 787371068 heartbeat IPC: 1.297 cumulative IPC: 1.283 (Simulation time: 01 hr 47 min 18 sec)
Heartbeat CPU 0 instructions: 1020000183 cycles: 795005618 heartbeat IPC: 1.31 cumulative IPC: 1.283 (Simulation time: 01 hr 48 min 08 sec)
Heartbeat CPU 0 instructions: 1030000184 cycles: 802932574 heartbeat IPC: 1.262 cumulative IPC: 1.283 (Simulation time: 01 hr 49 min 00 sec)
Heartbeat CPU 0 instructions: 1040000185 cycles: 810782841 heartbeat IPC: 1.274 cumulative IPC: 1.283 (Simulation time: 01 hr 49 min 47 sec)
Heartbeat CPU 0 instructions: 1050000186 cycles: 818421414 heartbeat IPC: 1.309 cumulative IPC: 1.283 (Simulation time: 01 hr 50 min 39 sec)
Heartbeat CPU 0 instructions: 1060000190 cycles: 826069437 heartbeat IPC: 1.308 cumulative IPC: 1.283 (Simulation time: 01 hr 51 min 43 sec)
Heartbeat CPU 0 instructions: 1070000194 cycles: 833770497 heartbeat IPC: 1.299 cumulative IPC: 1.283 (Simulation time: 01 hr 52 min 28 sec)
Heartbeat CPU 0 instructions: 1080000194 cycles: 841389301 heartbeat IPC: 1.313 cumulative IPC: 1.284 (Simulation time: 01 hr 53 min 14 sec)
Heartbeat CPU 0 instructions: 1090000194 cycles: 849061096 heartbeat IPC: 1.303 cumulative IPC: 1.284 (Simulation time: 01 hr 54 min 04 sec)
Heartbeat CPU 0 instructions: 1100000194 cycles: 856773106 heartbeat IPC: 1.297 cumulative IPC: 1.284 (Simulation time: 01 hr 55 min 03 sec)
Heartbeat CPU 0 instructions: 1110000195 cycles: 864531117 heartbeat IPC: 1.289 cumulative IPC: 1.284 (Simulation time: 01 hr 56 min 02 sec)
Heartbeat CPU 0 instructions: 1120000195 cycles: 872372335 heartbeat IPC: 1.275 cumulative IPC: 1.284 (Simulation time: 01 hr 57 min 12 sec)
Heartbeat CPU 0 instructions: 1130000196 cycles: 880167781 heartbeat IPC: 1.283 cumulative IPC: 1.284 (Simulation time: 01 hr 58 min 22 sec)
Heartbeat CPU 0 instructions: 1140000199 cycles: 888147537 heartbeat IPC: 1.253 cumulative IPC: 1.284 (Simulation time: 01 hr 59 min 33 sec)
Heartbeat CPU 0 instructions: 1150000199 cycles: 896037186 heartbeat IPC: 1.267 cumulative IPC: 1.283 (Simulation time: 02 hr 00 min 43 sec)
Heartbeat CPU 0 instructions: 1160000201 cycles: 903953931 heartbeat IPC: 1.263 cumulative IPC: 1.283 (Simulation time: 02 hr 01 min 53 sec)
Heartbeat CPU 0 instructions: 1170000201 cycles: 911818771 heartbeat IPC: 1.271 cumulative IPC: 1.283 (Simulation time: 02 hr 03 min 02 sec)
Heartbeat CPU 0 instructions: 1180000204 cycles: 919604709 heartbeat IPC: 1.284 cumulative IPC: 1.283 (Simulation time: 02 hr 04 min 12 sec)
Heartbeat CPU 0 instructions: 1190000205 cycles: 927204764 heartbeat IPC: 1.316 cumulative IPC: 1.283 (Simulation time: 02 hr 05 min 20 sec)
Heartbeat CPU 0 instructions: 1200000206 cycles: 934982349 heartbeat IPC: 1.286 cumulative IPC: 1.283 (Simulation time: 02 hr 06 min 30 sec)
Heartbeat CPU 0 instructions: 1210000206 cycles: 942585667 heartbeat IPC: 1.315 cumulative IPC: 1.284 (Simulation time: 02 hr 07 min 38 sec)
Heartbeat CPU 0 instructions: 1220000209 cycles: 950204869 heartbeat IPC: 1.312 cumulative IPC: 1.284 (Simulation time: 02 hr 08 min 47 sec)
Heartbeat CPU 0 instructions: 1230000210 cycles: 957838806 heartbeat IPC: 1.31 cumulative IPC: 1.284 (Simulation time: 02 hr 09 min 55 sec)
Heartbeat CPU 0 instructions: 1240000210 cycles: 965496414 heartbeat IPC: 1.306 cumulative IPC: 1.284 (Simulation time: 02 hr 10 min 49 sec)
Heartbeat CPU 0 instructions: 1250000211 cycles: 973147718 heartbeat IPC: 1.307 cumulative IPC: 1.284 (Simulation time: 02 hr 11 min 38 sec)
Heartbeat CPU 0 instructions: 1260000215 cycles: 980752025 heartbeat IPC: 1.315 cumulative IPC: 1.285 (Simulation time: 02 hr 12 min 31 sec)
Heartbeat CPU 0 instructions: 1270000215 cycles: 988377646 heartbeat IPC: 1.311 cumulative IPC: 1.285 (Simulation time: 02 hr 13 min 38 sec)
Heartbeat CPU 0 instructions: 1280000216 cycles: 996061923 heartbeat IPC: 1.301 cumulative IPC: 1.285 (Simulation time: 02 hr 14 min 48 sec)
Heartbeat CPU 0 instructions: 1290000217 cycles: 1003691105 heartbeat IPC: 1.311 cumulative IPC: 1.285 (Simulation time: 02 hr 15 min 57 sec)
Heartbeat CPU 0 instructions: 1300000220 cycles: 1011570442 heartbeat IPC: 1.269 cumulative IPC: 1.285 (Simulation time: 02 hr 16 min 51 sec)
Heartbeat CPU 0 instructions: 1310000221 cycles: 1019314654 heartbeat IPC: 1.291 cumulative IPC: 1.285 (Simulation time: 02 hr 17 min 53 sec)
Heartbeat CPU 0 instructions: 1320000221 cycles: 1026946264 heartbeat IPC: 1.31 cumulative IPC: 1.285 (Simulation time: 02 hr 18 min 48 sec)
Heartbeat CPU 0 instructions: 1330000221 cycles: 1034656168 heartbeat IPC: 1.297 cumulative IPC: 1.285 (Simulation time: 02 hr 19 min 56 sec)
Heartbeat CPU 0 instructions: 1340000223 cycles: 1042380410 heartbeat IPC: 1.295 cumulative IPC: 1.286 (Simulation time: 02 hr 20 min 55 sec)
Heartbeat CPU 0 instructions: 1350000226 cycles: 1050154454 heartbeat IPC: 1.286 cumulative IPC: 1.286 (Simulation time: 02 hr 21 min 55 sec)
Heartbeat CPU 0 instructions: 1360000227 cycles: 1058372811 heartbeat IPC: 1.217 cumulative IPC: 1.285 (Simulation time: 02 hr 23 min 10 sec)
Heartbeat CPU 0 instructions: 1370000228 cycles: 1066511952 heartbeat IPC: 1.229 cumulative IPC: 1.285 (Simulation time: 02 hr 24 min 16 sec)
Heartbeat CPU 0 instructions: 1380000231 cycles: 1074266280 heartbeat IPC: 1.29 cumulative IPC: 1.285 (Simulation time: 02 hr 25 min 28 sec)
Heartbeat CPU 0 instructions: 1390000231 cycles: 1081918959 heartbeat IPC: 1.307 cumulative IPC: 1.285 (Simulation time: 02 hr 26 min 21 sec)
Heartbeat CPU 0 instructions: 1400000232 cycles: 1089940514 heartbeat IPC: 1.247 cumulative IPC: 1.284 (Simulation time: 02 hr 27 min 20 sec)
Heartbeat CPU 0 instructions: 1410000233 cycles: 1097911376 heartbeat IPC: 1.255 cumulative IPC: 1.284 (Simulation time: 02 hr 28 min 18 sec)
Heartbeat CPU 0 instructions: 1420000237 cycles: 1105609317 heartbeat IPC: 1.299 cumulative IPC: 1.284 (Simulation time: 02 hr 29 min 27 sec)
Heartbeat CPU 0 instructions: 1430000239 cycles: 1113365949 heartbeat IPC: 1.289 cumulative IPC: 1.284 (Simulation time: 02 hr 30 min 38 sec)
Heartbeat CPU 0 instructions: 1440000242 cycles: 1120998497 heartbeat IPC: 1.31 cumulative IPC: 1.285 (Simulation time: 02 hr 31 min 39 sec)
Heartbeat CPU 0 instructions: 1450000243 cycles: 1128604849 heartbeat IPC: 1.315 cumulative IPC: 1.285 (Simulation time: 02 hr 32 min 33 sec)
Heartbeat CPU 0 instructions: 1460000243 cycles: 1136470923 heartbeat IPC: 1.271 cumulative IPC: 1.285 (Simulation time: 02 hr 33 min 41 sec)
Heartbeat CPU 0 instructions: 1470000245 cycles: 1144207918 heartbeat IPC: 1.292 cumulative IPC: 1.285 (Simulation time: 02 hr 34 min 51 sec)
Heartbeat CPU 0 instructions: 1480000245 cycles: 1151847234 heartbeat IPC: 1.309 cumulative IPC: 1.285 (Simulation time: 02 hr 36 min 00 sec)
Heartbeat CPU 0 instructions: 1490000248 cycles: 1159482785 heartbeat IPC: 1.31 cumulative IPC: 1.285 (Simulation time: 02 hr 37 min 10 sec)
Heartbeat CPU 0 instructions: 1500000249 cycles: 1167305229 heartbeat IPC: 1.278 cumulative IPC: 1.285 (Simulation time: 02 hr 38 min 20 sec)
Heartbeat CPU 0 instructions: 1510000252 cycles: 1175272568 heartbeat IPC: 1.255 cumulative IPC: 1.285 (Simulation time: 02 hr 39 min 32 sec)
Heartbeat CPU 0 instructions: 1520000256 cycles: 1183421328 heartbeat IPC: 1.227 cumulative IPC: 1.284 (Simulation time: 02 hr 40 min 44 sec)
Heartbeat CPU 0 instructions: 1530000258 cycles: 1191580285 heartbeat IPC: 1.226 cumulative IPC: 1.284 (Simulation time: 02 hr 41 min 56 sec)
Heartbeat CPU 0 instructions: 1540000259 cycles: 1199693510 heartbeat IPC: 1.233 cumulative IPC: 1.284 (Simulation time: 02 hr 43 min 08 sec)
Heartbeat CPU 0 instructions: 1550000260 cycles: 1207734713 heartbeat IPC: 1.244 cumulative IPC: 1.283 (Simulation time: 02 hr 44 min 06 sec)
Heartbeat CPU 0 instructions: 1560000263 cycles: 1215368226 heartbeat IPC: 1.31 cumulative IPC: 1.284 (Simulation time: 02 hr 44 min 52 sec)
Heartbeat CPU 0 instructions: 1570000264 cycles: 1223262855 heartbeat IPC: 1.267 cumulative IPC: 1.283 (Simulation time: 02 hr 45 min 46 sec)
Heartbeat CPU 0 instructions: 1580000264 cycles: 1230844302 heartbeat IPC: 1.319 cumulative IPC: 1.284 (Simulation time: 02 hr 46 min 45 sec)
Heartbeat CPU 0 instructions: 1590000267 cycles: 1238601901 heartbeat IPC: 1.289 cumulative IPC: 1.284 (Simulation time: 02 hr 47 min 56 sec)
Heartbeat CPU 0 instructions: 1600000268 cycles: 1246365681 heartbeat IPC: 1.288 cumulative IPC: 1.284 (Simulation time: 02 hr 49 min 08 sec)
Heartbeat CPU 0 instructions: 1610000269 cycles: 1254531022 heartbeat IPC: 1.225 cumulative IPC: 1.283 (Simulation time: 02 hr 50 min 07 sec)
Heartbeat CPU 0 instructions: 1620000270 cycles: 1262121772 heartbeat IPC: 1.317 cumulative IPC: 1.284 (Simulation time: 02 hr 50 min 59 sec)
Heartbeat CPU 0 instructions: 1630000271 cycles: 1269728939 heartbeat IPC: 1.315 cumulative IPC: 1.284 (Simulation time: 02 hr 51 min 56 sec)
Heartbeat CPU 0 instructions: 1640000271 cycles: 1277397552 heartbeat IPC: 1.304 cumulative IPC: 1.284 (Simulation time: 02 hr 53 min 06 sec)
Heartbeat CPU 0 instructions: 1650000274 cycles: 1285041776 heartbeat IPC: 1.308 cumulative IPC: 1.284 (Simulation time: 02 hr 54 min 17 sec)
Heartbeat CPU 0 instructions: 1660000275 cycles: 1292827531 heartbeat IPC: 1.284 cumulative IPC: 1.284 (Simulation time: 02 hr 55 min 29 sec)
Heartbeat CPU 0 instructions: 1670000278 cycles: 1300560553 heartbeat IPC: 1.293 cumulative IPC: 1.284 (Simulation time: 02 hr 56 min 41 sec)
Heartbeat CPU 0 instructions: 1680000280 cycles: 1308241106 heartbeat IPC: 1.302 cumulative IPC: 1.284 (Simulation time: 02 hr 57 min 52 sec)
Heartbeat CPU 0 instructions: 1690000284 cycles: 1316098015 heartbeat IPC: 1.273 cumulative IPC: 1.284 (Simulation time: 02 hr 59 min 05 sec)
Heartbeat CPU 0 instructions: 1700000285 cycles: 1323744602 heartbeat IPC: 1.308 cumulative IPC: 1.284 (Simulation time: 03 hr 00 min 16 sec)
Heartbeat CPU 0 instructions: 1710000286 cycles: 1331372789 heartbeat IPC: 1.311 cumulative IPC: 1.284 (Simulation time: 03 hr 01 min 27 sec)
Heartbeat CPU 0 instructions: 1720000287 cycles: 1338932332 heartbeat IPC: 1.323 cumulative IPC: 1.285 (Simulation time: 03 hr 02 min 39 sec)
Heartbeat CPU 0 instructions: 1730000288 cycles: 1346761663 heartbeat IPC: 1.277 cumulative IPC: 1.285 (Simulation time: 03 hr 03 min 51 sec)
Heartbeat CPU 0 instructions: 1740000290 cycles: 1354385824 heartbeat IPC: 1.312 cumulative IPC: 1.285 (Simulation time: 03 hr 04 min 42 sec)
Heartbeat CPU 0 instructions: 1750000291 cycles: 1362353139 heartbeat IPC: 1.255 cumulative IPC: 1.285 (Simulation time: 03 hr 05 min 49 sec)
Heartbeat CPU 0 instructions: 1760000294 cycles: 1370352710 heartbeat IPC: 1.25 cumulative IPC: 1.284 (Simulation time: 03 hr 07 min 02 sec)
Heartbeat CPU 0 instructions: 1770000294 cycles: 1378264096 heartbeat IPC: 1.264 cumulative IPC: 1.284 (Simulation time: 03 hr 08 min 14 sec)
Heartbeat CPU 0 instructions: 1780000298 cycles: 1386239172 heartbeat IPC: 1.254 cumulative IPC: 1.284 (Simulation time: 03 hr 09 min 27 sec)
Heartbeat CPU 0 instructions: 1790000301 cycles: 1393915102 heartbeat IPC: 1.303 cumulative IPC: 1.284 (Simulation time: 03 hr 10 min 38 sec)
Heartbeat CPU 0 instructions: 1800000303 cycles: 1401723309 heartbeat IPC: 1.281 cumulative IPC: 1.284 (Simulation time: 03 hr 11 min 50 sec)
Heartbeat CPU 0 instructions: 1810000303 cycles: 1409648990 heartbeat IPC: 1.262 cumulative IPC: 1.284 (Simulation time: 03 hr 12 min 59 sec)
[ERROR_CYCLE] Error added at CPU cycle 1410648031, interval 2, pending count: 1
[DRAM_CYCLE_ERROR] Cycle-based error applied! address=0x2ba949380 additional_latency=1990500 cycles
Heartbeat CPU 0 instructions: 1820000304 cycles: 1417394093 heartbeat IPC: 1.291 cumulative IPC: 1.284 (Simulation time: 03 hr 13 min 53 sec)
Heartbeat CPU 0 instructions: 1830000305 cycles: 1424989706 heartbeat IPC: 1.317 cumulative IPC: 1.284 (Simulation time: 03 hr 14 min 47 sec)
Heartbeat CPU 0 instructions: 1840000309 cycles: 1433043289 heartbeat IPC: 1.242 cumulative IPC: 1.284 (Simulation time: 03 hr 15 min 45 sec)
Heartbeat CPU 0 instructions: 1850000310 cycles: 1440670522 heartbeat IPC: 1.311 cumulative IPC: 1.284 (Simulation time: 03 hr 16 min 36 sec)
Heartbeat CPU 0 instructions: 1860000312 cycles: 1448629207 heartbeat IPC: 1.256 cumulative IPC: 1.284 (Simulation time: 03 hr 17 min 46 sec)
Heartbeat CPU 0 instructions: 1870000314 cycles: 1456289418 heartbeat IPC: 1.305 cumulative IPC: 1.284 (Simulation time: 03 hr 18 min 50 sec)
Heartbeat CPU 0 instructions: 1880000318 cycles: 1464093415 heartbeat IPC: 1.281 cumulative IPC: 1.284 (Simulation time: 03 hr 19 min 57 sec)
Heartbeat CPU 0 instructions: 1890000319 cycles: 1471757186 heartbeat IPC: 1.305 cumulative IPC: 1.284 (Simulation time: 03 hr 20 min 56 sec)
Heartbeat CPU 0 instructions: 1900000319 cycles: 1479499800 heartbeat IPC: 1.292 cumulative IPC: 1.284 (Simulation time: 03 hr 21 min 43 sec)
Heartbeat CPU 0 instructions: 1910000322 cycles: 1487246646 heartbeat IPC: 1.291 cumulative IPC: 1.284 (Simulation time: 03 hr 22 min 38 sec)
Heartbeat CPU 0 instructions: 1920000323 cycles: 1495130687 heartbeat IPC: 1.268 cumulative IPC: 1.284 (Simulation time: 03 hr 23 min 42 sec)
Heartbeat CPU 0 instructions: 1930000324 cycles: 1502808675 heartbeat IPC: 1.302 cumulative IPC: 1.284 (Simulation time: 03 hr 24 min 53 sec)
Heartbeat CPU 0 instructions: 1940000325 cycles: 1510923683 heartbeat IPC: 1.232 cumulative IPC: 1.284 (Simulation time: 03 hr 26 min 06 sec)
Heartbeat CPU 0 instructions: 1950000326 cycles: 1518612640 heartbeat IPC: 1.301 cumulative IPC: 1.284 (Simulation time: 03 hr 27 min 16 sec)
Heartbeat CPU 0 instructions: 1960000330 cycles: 1526284861 heartbeat IPC: 1.303 cumulative IPC: 1.284 (Simulation time: 03 hr 28 min 26 sec)
Heartbeat CPU 0 instructions: 1970000334 cycles: 1534023301 heartbeat IPC: 1.292 cumulative IPC: 1.284 (Simulation time: 03 hr 29 min 36 sec)
Heartbeat CPU 0 instructions: 1980000335 cycles: 1541731920 heartbeat IPC: 1.297 cumulative IPC: 1.284 (Simulation time: 03 hr 30 min 47 sec)
Heartbeat CPU 0 instructions: 1990000336 cycles: 1549356156 heartbeat IPC: 1.312 cumulative IPC: 1.284 (Simulation time: 03 hr 31 min 56 sec)

=== ERROR PAGE STATISTICS ===
Mode: CYCLE
Error Cycle Interval: 705324015 CPU cycles
Total Error Accesses: 2
==============================
Simulation finished CPU 0 instructions: 1999999656 cycles: 1557182666 cumulative IPC: 1.284 (Simulation time: 03 hr 33 min 07 sec)
Simulation complete CPU 0 instructions: 1999999656 cycles: 1557182666 cumulative IPC: 1.284 (Simulation time: 03 hr 33 min 07 sec)

ChampSim completed all CPUs

=== Simulation ===
CPU 0 runs test_traces/603.bwaves_s-2931B.champsimtrace.xz

Region of Interest Statistics

CPU 0 cumulative IPC: 1.284 instructions: 1999999656 cycles: 1557182666
CPU 0 Branch Prediction Accuracy: 80.62% MPKI: 1.636 Average ROB Occupancy at Mispredict: 300.1
Branch type MPKI
BRANCH_DIRECT_JUMP: 0
BRANCH_INDIRECT: 0
BRANCH_CONDITIONAL: 1.636
BRANCH_DIRECT_CALL: 0
BRANCH_INDIRECT_CALL: 0
BRANCH_RETURN: 0

cpu0->cpu0_STLB TOTAL        ACCESS:        759 HIT:          8 MISS:        751 MSHR_MERGE:          0
cpu0->cpu0_STLB LOAD         ACCESS:        759 HIT:          8 MISS:        751 MSHR_MERGE:          0
cpu0->cpu0_STLB RFO          ACCESS:          0 HIT:          0 MISS:          0 MSHR_MERGE:          0
cpu0->cpu0_STLB PREFETCH     ACCESS:          0 HIT:          0 MISS:          0 MSHR_MERGE:          0
cpu0->cpu0_STLB WRITE        ACCESS:          0 HIT:          0 MISS:          0 MSHR_MERGE:          0
cpu0->cpu0_STLB TRANSLATION  ACCESS:          0 HIT:          0 MISS:          0 MSHR_MERGE:          0
cpu0->cpu0_STLB PREFETCH REQUESTED:          0 ISSUED:          0 USEFUL:          0 USELESS:          0
cpu0->cpu0_STLB AVERAGE MISS LATENCY: 8766 cycles
cpu0->cpu0_L2C TOTAL        ACCESS:   46478821 HIT:   16682974 MISS:   29795847 MSHR_MERGE:          0
cpu0->cpu0_L2C LOAD         ACCESS:   20689604 HIT:    2801625 MISS:   17887979 MSHR_MERGE:          0
cpu0->cpu0_L2C RFO          ACCESS:   12817686 HIT:     909993 MISS:   11907693 MSHR_MERGE:          0
cpu0->cpu0_L2C PREFETCH     ACCESS:          0 HIT:          0 MISS:          0 MSHR_MERGE:          0
cpu0->cpu0_L2C WRITE        ACCESS:   12971531 HIT:   12971356 MISS:        175 MSHR_MERGE:          0
cpu0->cpu0_L2C TRANSLATION  ACCESS:          0 HIT:          0 MISS:          0 MSHR_MERGE:          0
cpu0->cpu0_L2C PREFETCH REQUESTED:          0 ISSUED:          0 USEFUL:          0 USELESS:          0
cpu0->cpu0_L2C AVERAGE MISS LATENCY: 117 cycles
cpu0->cpu0_L1I TOTAL        ACCESS:  226241535 HIT:  226241462 MISS:         73 MSHR_MERGE:         24
cpu0->cpu0_L1I LOAD         ACCESS:  226241535 HIT:  226241462 MISS:         73 MSHR_MERGE:         24
cpu0->cpu0_L1I RFO          ACCESS:          0 HIT:          0 MISS:          0 MSHR_MERGE:          0
cpu0->cpu0_L1I PREFETCH     ACCESS:          0 HIT:          0 MISS:          0 MSHR_MERGE:          0
cpu0->cpu0_L1I WRITE        ACCESS:          0 HIT:          0 MISS:          0 MSHR_MERGE:          0
cpu0->cpu0_L1I TRANSLATION  ACCESS:          0 HIT:          0 MISS:          0 MSHR_MERGE:          0
cpu0->cpu0_L1I PREFETCH REQUESTED:          0 ISSUED:          0 USEFUL:          0 USELESS:          0
cpu0->cpu0_L1I AVERAGE MISS LATENCY: 142.9 cycles
cpu0->cpu0_L1D TOTAL        ACCESS:  656928652 HIT:  604614412 MISS:   52314240 MSHR_MERGE:   18792823
cpu0->cpu0_L1D LOAD         ACCESS:  290990299 HIT:  270046205 MISS:   20944094 MSHR_MERGE:     254260
cpu0->cpu0_L1D RFO          ACCESS:          0 HIT:          0 MISS:          0 MSHR_MERGE:          0
cpu0->cpu0_L1D PREFETCH     ACCESS:          0 HIT:          0 MISS:          0 MSHR_MERGE:          0
cpu0->cpu0_L1D WRITE        ACCESS:  365938353 HIT:  334568207 MISS:   31370146 MSHR_MERGE:   18538563
cpu0->cpu0_L1D TRANSLATION  ACCESS:          0 HIT:          0 MISS:          0 MSHR_MERGE:          0
cpu0->cpu0_L1D PREFETCH REQUESTED:          0 ISSUED:          0 USEFUL:          0 USELESS:          0
cpu0->cpu0_L1D AVERAGE MISS LATENCY: 113.1 cycles
cpu0->cpu0_ITLB TOTAL        ACCESS:  180588331 HIT:  180588324 MISS:          7 MSHR_MERGE:          6
cpu0->cpu0_ITLB LOAD         ACCESS:  180588331 HIT:  180588324 MISS:          7 MSHR_MERGE:          6
cpu0->cpu0_ITLB RFO          ACCESS:          0 HIT:          0 MISS:          0 MSHR_MERGE:          0
cpu0->cpu0_ITLB PREFETCH     ACCESS:          0 HIT:          0 MISS:          0 MSHR_MERGE:          0
cpu0->cpu0_ITLB WRITE        ACCESS:          0 HIT:          0 MISS:          0 MSHR_MERGE:          0
cpu0->cpu0_ITLB TRANSLATION  ACCESS:          0 HIT:          0 MISS:          0 MSHR_MERGE:          0
cpu0->cpu0_ITLB PREFETCH REQUESTED:          0 ISSUED:          0 USEFUL:          0 USELESS:          0
cpu0->cpu0_ITLB AVERAGE MISS LATENCY: 1.722e+04 cycles
cpu0->cpu0_DTLB TOTAL        ACCESS:  551875633 HIT:  551869392 MISS:       6241 MSHR_MERGE:       5483
cpu0->cpu0_DTLB LOAD         ACCESS:  551875633 HIT:  551869392 MISS:       6241 MSHR_MERGE:       5483
cpu0->cpu0_DTLB RFO          ACCESS:          0 HIT:          0 MISS:          0 MSHR_MERGE:          0
cpu0->cpu0_DTLB PREFETCH     ACCESS:          0 HIT:          0 MISS:          0 MSHR_MERGE:          0
cpu0->cpu0_DTLB WRITE        ACCESS:          0 HIT:          0 MISS:          0 MSHR_MERGE:          0
cpu0->cpu0_DTLB TRANSLATION  ACCESS:          0 HIT:          0 MISS:          0 MSHR_MERGE:          0
cpu0->cpu0_DTLB PREFETCH REQUESTED:          0 ISSUED:          0 USEFUL:          0 USELESS:          0
cpu0->cpu0_DTLB AVERAGE MISS LATENCY: 8668 cycles
cpu0->LLC TOTAL        ACCESS:   41701069 HIT:   14441937 MISS:   27259132 MSHR_MERGE:          0
cpu0->LLC LOAD         ACCESS:   17887979 HIT:    2536774 MISS:   15351205 MSHR_MERGE:          0
cpu0->LLC RFO          ACCESS:   11907693 HIT:          0 MISS:   11907693 MSHR_MERGE:          0
cpu0->LLC PREFETCH     ACCESS:          0 HIT:          0 MISS:          0 MSHR_MERGE:          0
cpu0->LLC WRITE        ACCESS:   11905397 HIT:   11905163 MISS:        234 MSHR_MERGE:          0
cpu0->LLC TRANSLATION  ACCESS:          0 HIT:          0 MISS:          0 MSHR_MERGE:          0
cpu0->LLC PREFETCH REQUESTED:          0 ISSUED:          0 USEFUL:          0 USELESS:          0
cpu0->LLC AVERAGE MISS LATENCY: 110.5 cycles

DRAM Statistics

Channel 0 RQ ROW_BUFFER_HIT:     261818
  ROW_BUFFER_MISS:   13368468
  AVG DBUS CONGESTED CYCLE: 10.89
Channel 0 WQ ROW_BUFFER_HIT:    2699824
  ROW_BUFFER_MISS:    3247181
  FULL:          0
Channel 0 REFRESHES ISSUED:     129756

Channel 1 RQ ROW_BUFFER_HIT:     262172
  ROW_BUFFER_MISS:   13367951
  AVG DBUS CONGESTED CYCLE: 10.88
Channel 1 WQ ROW_BUFFER_HIT:    2698834
  ROW_BUFFER_MISS:    3248265
  FULL:          0
Channel 1 REFRESHES ISSUED:     129756
