
*** ChampSim Multicore Out-of-Order Simulator ***
Warmup Instructions: 0
Simulation Instructions: 9223372036854775807
Number of CPUs: 1
Page size: 1048576

Off-chip DRAM Size: 128 GiB Channels: 2 Width: 32-bit Data Rate: 4807 MT/s
[ERROR_PAGE_MANAGER] Error latency: 0 
[ERROR_PAGE_MANAGER] Random seed: 54321 (fixed for preload reproducibility)
[ERROR_PAGE_MANAGER] Error pages off

=== ERROR PAGE STATISTICS ===
Mode: OFF
Total Error Accesses: 0
==============================
Warmup finished CPU 0 instructions: 0 cycles: 1 cumulative IPC: 0 (Simulation time: 00 hr 00 min 00 sec)
Warmup complete CPU 0 instructions: 0 cycles: 1 cumulative IPC: 0 (Simulation time: 00 hr 00 min 00 sec)
Simulation CPU 0 panic: IPC 0 < 0.01
Simulation CPU 0 panic: IPC 1e-07 < 0.01
Simulation CPU 0 panic: IPC 0 < 0.01
Simulation CPU 0 panic: IPC 1e-07 < 0.01
Simulation CPU 0 panic: IPC 2.1e-06 < 0.01
Simulation CPU 0 panic: IPC 2.3e-05 < 0.01
Simulation CPU 0 panic: IPC 0.0004727 < 0.01
Simulation CPU 0 panic: IPC 1e-06 < 0.01
Simulation CPU 0 panic: IPC 0.0002725 < 0.01
Simulation CPU 0 panic: IPC 0.0029129 < 0.01
Simulation CPU 0 panic: IPC 0.0020414 < 0.01
Simulation CPU 0 panic: IPC 0.0001183 < 0.01
Simulation CPU 0 panic: IPC 1.6e-06 < 0.01
Simulation CPU 0 panic: IPC 4.4e-06 < 0.01
Simulation CPU 0 panic: IPC 0 < 0.01
Simulation CPU 0 panic: IPC 0.0022093 < 0.01
Simulation CPU 0 panic: IPC 0 < 0.01
Simulation CPU 0 panic: IPC 0.0019384 < 0.01
Simulation CPU 0 panic: IPC 0.0002613 < 0.01
Simulation CPU 0 panic: IPC 5e-07 < 0.01
Simulation CPU 0 panic: IPC 1.4e-06 < 0.01
Simulation CPU 0 panic: IPC 5.38e-05 < 0.01
Simulation CPU 0 panic: IPC 3.4e-06 < 0.01
Simulation CPU 0 panic: IPC 1.05e-05 < 0.01
Simulation CPU 0 panic: IPC 6e-07 < 0.01
Simulation CPU 0 panic: IPC 0.0002537 < 0.01
Simulation CPU 0 panic: IPC 0.0004514 < 0.01
Simulation CPU 0 panic: IPC 0.0009248 < 0.01
Simulation CPU 0 panic: IPC 0.000379 < 0.01
Simulation CPU 0 panic: IPC 0.0044689 < 0.01
Simulation CPU 0 panic: IPC 0.0035715 < 0.01
Simulation CPU 0 panic: IPC 0.0010914 < 0.01
Simulation CPU 0 panic: IPC 0.000521 < 0.01
Simulation CPU 0 panic: IPC 0.0036923 < 0.01
Simulation CPU 0 panic: IPC 0.0012109 < 0.01
Simulation CPU 0 panic: IPC 0.0004728 < 0.01
Simulation CPU 0 panic: IPC 0.0002884 < 0.01
Simulation CPU 0 panic: IPC 0.0018766 < 0.01
Simulation CPU 0 panic: IPC 0.0018104 < 0.01
Simulation CPU 0 panic: IPC 0.0007074 < 0.01
Simulation CPU 0 panic: IPC 9e-06 < 0.01
Simulation CPU 0 panic: IPC 1.42e-05 < 0.01
Simulation CPU 0 panic: IPC 1.42e-05 < 0.01
Simulation CPU 0 panic: IPC 1.42e-05 < 0.01
Simulation CPU 0 panic: IPC 0.0036294 < 0.01
Simulation CPU 0 panic: IPC 0.0020797 < 0.01
Simulation CPU 0 panic: IPC 0.0064004 < 0.01
Simulation CPU 0 panic: IPC 0.0004234 < 0.01
Simulation CPU 0 panic: IPC 0.0004521 < 0.01
Simulation CPU 0 panic: IPC 0.000695 < 0.01
Simulation CPU 0 panic: IPC 0.0004567 < 0.01
Simulation CPU 0 panic: IPC 0.0004498 < 0.01
Simulation CPU 0 panic: IPC 0.0004484 < 0.01
Simulation CPU 0 panic: IPC 0.0002466 < 0.01
Simulation CPU 0 panic: IPC 0.0007072 < 0.01
Simulation CPU 0 panic: IPC 0.0065293 < 0.01
Simulation CPU 0 critical: IPC 0.011599 < 0.02
Simulation CPU 0 panic: IPC 0.0002464 < 0.01
Simulation CPU 0 panic: IPC 0.0007731 < 0.01
Simulation CPU 0 panic: IPC 7.59e-05 < 0.01
Simulation CPU 0 panic: IPC 0.0002137 < 0.01
Simulation CPU 0 panic: IPC 0.0047619 < 0.01
Simulation CPU 0 panic: IPC 4.4e-06 < 0.01
Simulation CPU 0 panic: IPC 3.4e-06 < 0.01
Simulation CPU 0 panic: IPC 0.0001809 < 0.01
Simulation CPU 0 panic: IPC 0.0003701 < 0.01
Simulation CPU 0 panic: IPC 0.0005202 < 0.01
Simulation CPU 0 panic: IPC 0.0045808 < 0.01
Simulation CPU 0 panic: IPC 0.0004161 < 0.01
Simulation CPU 0 panic: IPC 0.0002493 < 0.01
Simulation CPU 0 panic: IPC 0.000416 < 0.01
Simulation CPU 0 panic: IPC 0.0002537 < 0.01
Simulation CPU 0 panic: IPC 0.0002387 < 0.01
Simulation CPU 0 panic: IPC 0.0019012 < 0.01
Simulation CPU 0 panic: IPC 0.0004001 < 0.01
Simulation CPU 0 panic: IPC 0.0002481 < 0.01
Simulation CPU 0 panic: IPC 0.0002475 < 0.01
Simulation CPU 0 panic: IPC 0.0007423 < 0.01
Simulation CPU 0 panic: IPC 0.001547 < 0.01
Simulation CPU 0 panic: IPC 0.0020238 < 0.01
Simulation CPU 0 panic: IPC 0.0006807 < 0.01
Simulation CPU 0 panic: IPC 0.0038324 < 0.01
Simulation CPU 0 panic: IPC 0.0057279 < 0.01
Simulation CPU 0 panic: IPC 0.0074519 < 0.01
Simulation CPU 0 critical: IPC 0.011126 < 0.02
Simulation CPU 0 panic: IPC 0.0002364 < 0.01
Simulation CPU 0 panic: IPC 0.0003667 < 0.01
Simulation CPU 0 panic: IPC 0.0006031 < 0.01
Simulation CPU 0 panic: IPC 0.0002563 < 0.01
Simulation CPU 0 panic: IPC 0.0002463 < 0.01
Simulation CPU 0 panic: IPC 0.0002461 < 0.01
Heartbeat CPU 0 instructions: 10000002 cycles: 930089334 heartbeat IPC: 0.01075 cumulative IPC: 0.01075 (Simulation time: 01 hr 20 min 21 sec)
Heartbeat CPU 0 instructions: 20000003 cycles: 945195749 heartbeat IPC: 0.662 cumulative IPC: 0.02116 (Simulation time: 01 hr 21 min 55 sec)
Heartbeat CPU 0 instructions: 30000006 cycles: 951056879 heartbeat IPC: 1.706 cumulative IPC: 0.03154 (Simulation time: 01 hr 22 min 48 sec)
Heartbeat CPU 0 instructions: 40000006 cycles: 984653421 heartbeat IPC: 0.2976 cumulative IPC: 0.04062 (Simulation time: 01 hr 26 min 35 sec)
Simulation CPU 0 panic: IPC 0.0065411 < 0.01
Heartbeat CPU 0 instructions: 50000010 cycles: 1036614030 heartbeat IPC: 0.1925 cumulative IPC: 0.04823 (Simulation time: 01 hr 32 min 03 sec)
Heartbeat CPU 0 instructions: 60000011 cycles: 1051592829 heartbeat IPC: 0.6676 cumulative IPC: 0.05706 (Simulation time: 01 hr 33 min 42 sec)
Heartbeat CPU 0 instructions: 70000011 cycles: 1057175756 heartbeat IPC: 1.791 cumulative IPC: 0.06621 (Simulation time: 01 hr 34 min 25 sec)
Simulation CPU 0 panic: IPC 1e-06 < 0.01
Simulation CPU 0 panic: IPC 1.4e-06 < 0.01
Simulation CPU 0 panic: IPC 3e-07 < 0.01
Simulation CPU 0 panic: IPC 9.82e-05 < 0.01
Simulation CPU 0 critical: IPC 0.010314 < 0.02
Simulation CPU 0 panic: IPC 0.0092325 < 0.01
Simulation CPU 0 warning: IPC 0.043496 < 0.05
Simulation CPU 0 panic: IPC 1.16e-05 < 0.01
Simulation CPU 0 panic: IPC 0.003754 < 0.01
Simulation CPU 0 panic: IPC 0.0004161 < 0.01
Simulation CPU 0 panic: IPC 0.0004913 < 0.01
Simulation CPU 0 panic: IPC 0.0031098 < 0.01
Simulation CPU 0 panic: IPC 0.0002447 < 0.01
Simulation CPU 0 panic: IPC 0.0002405 < 0.01
Simulation CPU 0 panic: IPC 0.0002343 < 0.01
Simulation CPU 0 panic: IPC 0.0002301 < 0.01
Simulation CPU 0 warning: IPC 0.045435 < 0.05
Heartbeat CPU 0 instructions: 80000014 cycles: 1256361325 heartbeat IPC: 0.0502 cumulative IPC: 0.06368 (Simulation time: 01 hr 52 min 42 sec)
Heartbeat CPU 0 instructions: 90000016 cycles: 1271743309 heartbeat IPC: 0.6501 cumulative IPC: 0.07077 (Simulation time: 01 hr 54 min 13 sec)
Simulation CPU 0 panic: IPC 0.0077634 < 0.01
Simulation CPU 0 warning: IPC 0.02519 < 0.05
Simulation CPU 0 panic: IPC 0.0006831 < 0.01
Heartbeat CPU 0 instructions: 100000020 cycles: 1323266800 heartbeat IPC: 0.1941 cumulative IPC: 0.07557 (Simulation time: 01 hr 59 min 11 sec)
Simulation CPU 0 critical: IPC 0.014643 < 0.02
Simulation CPU 0 critical: IPC 0.014642 < 0.02
Simulation CPU 0 warning: IPC 0.024537 < 0.05
Simulation CPU 0 panic: IPC 0.0003929 < 0.01
Simulation CPU 0 critical: IPC 0.014938 < 0.02
Heartbeat CPU 0 instructions: 110000020 cycles: 1421098010 heartbeat IPC: 0.1022 cumulative IPC: 0.0774 (Simulation time: 02 hr 07 min 57 sec)
Heartbeat CPU 0 instructions: 120000021 cycles: 1463244987 heartbeat IPC: 0.2373 cumulative IPC: 0.08201 (Simulation time: 02 hr 12 min 25 sec)
Simulation CPU 0 critical: IPC 0.011778 < 0.02
Simulation CPU 0 warning: IPC 0.022124 < 0.05
Heartbeat CPU 0 instructions: 130000024 cycles: 1514289041 heartbeat IPC: 0.1959 cumulative IPC: 0.08585 (Simulation time: 02 hr 16 min 33 sec)
Simulation CPU 0 critical: IPC 0.012534 < 0.02
Heartbeat CPU 0 instructions: 140000028 cycles: 1546042636 heartbeat IPC: 0.3149 cumulative IPC: 0.09055 (Simulation time: 02 hr 19 min 13 sec)
Heartbeat CPU 0 instructions: 150000030 cycles: 1550540940 heartbeat IPC: 2.223 cumulative IPC: 0.09674 (Simulation time: 02 hr 19 min 49 sec)
Simulation CPU 0 critical: IPC 0.012398 < 0.02
Heartbeat CPU 0 instructions: 160000030 cycles: 1573262480 heartbeat IPC: 0.4401 cumulative IPC: 0.1017 (Simulation time: 02 hr 22 min 06 sec)
Simulation CPU 0 panic: IPC 0.0002463 < 0.01
Simulation CPU 0 panic: IPC 0.0002463 < 0.01
Simulation CPU 0 critical: IPC 0.015926 < 0.02
Simulation CPU 0 panic: IPC 0.0019382 < 0.01
Heartbeat CPU 0 instructions: 170000030 cycles: 1624300224 heartbeat IPC: 0.1959 cumulative IPC: 0.1047 (Simulation time: 02 hr 26 min 13 sec)
Heartbeat CPU 0 instructions: 180000031 cycles: 1648895680 heartbeat IPC: 0.4066 cumulative IPC: 0.1092 (Simulation time: 02 hr 28 min 15 sec)
Heartbeat CPU 0 instructions: 190000031 cycles: 1654951875 heartbeat IPC: 1.651 cumulative IPC: 0.1148 (Simulation time: 02 hr 29 min 10 sec)
Heartbeat CPU 0 instructions: 200000032 cycles: 1661026169 heartbeat IPC: 1.646 cumulative IPC: 0.1204 (Simulation time: 02 hr 30 min 04 sec)
Heartbeat CPU 0 instructions: 210000032 cycles: 1676321675 heartbeat IPC: 0.6538 cumulative IPC: 0.1253 (Simulation time: 02 hr 31 min 46 sec)
Heartbeat CPU 0 instructions: 220000032 cycles: 1682366680 heartbeat IPC: 1.654 cumulative IPC: 0.1308 (Simulation time: 02 hr 32 min 27 sec)
Heartbeat CPU 0 instructions: 230000035 cycles: 1688379666 heartbeat IPC: 1.663 cumulative IPC: 0.1362 (Simulation time: 02 hr 33 min 18 sec)
Heartbeat CPU 0 instructions: 240000036 cycles: 1694356548 heartbeat IPC: 1.673 cumulative IPC: 0.1416 (Simulation time: 02 hr 34 min 12 sec)
Heartbeat CPU 0 instructions: 250000039 cycles: 1718601778 heartbeat IPC: 0.4125 cumulative IPC: 0.1455 (Simulation time: 02 hr 36 min 51 sec)
Heartbeat CPU 0 instructions: 260000043 cycles: 1743198479 heartbeat IPC: 0.4066 cumulative IPC: 0.1492 (Simulation time: 02 hr 39 min 02 sec)
Heartbeat CPU 0 instructions: 270000044 cycles: 1758437904 heartbeat IPC: 0.6562 cumulative IPC: 0.1535 (Simulation time: 02 hr 40 min 49 sec)
Heartbeat CPU 0 instructions: 280000046 cycles: 1773491900 heartbeat IPC: 0.6643 cumulative IPC: 0.1579 (Simulation time: 02 hr 42 min 30 sec)
Simulation CPU 0 warning: IPC 0.023305 < 0.05
Simulation CPU 0 panic: IPC 0.004895 < 0.01
Heartbeat CPU 0 instructions: 290000050 cycles: 1825314576 heartbeat IPC: 0.193 cumulative IPC: 0.1589 (Simulation time: 02 hr 47 min 15 sec)
Heartbeat CPU 0 instructions: 300000050 cycles: 1839894216 heartbeat IPC: 0.6859 cumulative IPC: 0.1631 (Simulation time: 02 hr 48 min 45 sec)
Heartbeat CPU 0 instructions: 310000051 cycles: 1844991930 heartbeat IPC: 1.962 cumulative IPC: 0.168 (Simulation time: 02 hr 49 min 23 sec)
Heartbeat CPU 0 instructions: 320000051 cycles: 1849270660 heartbeat IPC: 2.337 cumulative IPC: 0.173 (Simulation time: 02 hr 49 min 51 sec)
Heartbeat CPU 0 instructions: 330000055 cycles: 1854758169 heartbeat IPC: 1.822 cumulative IPC: 0.1779 (Simulation time: 02 hr 50 min 19 sec)
Simulation CPU 0 critical: IPC 0.0124 < 0.02
Heartbeat CPU 0 instructions: 340000056 cycles: 1877891634 heartbeat IPC: 0.4323 cumulative IPC: 0.1811 (Simulation time: 02 hr 52 min 13 sec)
Heartbeat CPU 0 instructions: 350000056 cycles: 1882718013 heartbeat IPC: 2.072 cumulative IPC: 0.1859 (Simulation time: 02 hr 52 min 41 sec)
Heartbeat CPU 0 instructions: 360000058 cycles: 1898088379 heartbeat IPC: 0.6506 cumulative IPC: 0.1897 (Simulation time: 02 hr 54 min 00 sec)
Heartbeat CPU 0 instructions: 370000059 cycles: 1904302487 heartbeat IPC: 1.609 cumulative IPC: 0.1943 (Simulation time: 02 hr 54 min 52 sec)
Heartbeat CPU 0 instructions: 380000059 cycles: 1910531333 heartbeat IPC: 1.605 cumulative IPC: 0.1989 (Simulation time: 02 hr 55 min 47 sec)
Heartbeat CPU 0 instructions: 390000059 cycles: 1916771415 heartbeat IPC: 1.603 cumulative IPC: 0.2035 (Simulation time: 02 hr 56 min 43 sec)
Heartbeat CPU 0 instructions: 400000059 cycles: 1922988171 heartbeat IPC: 1.609 cumulative IPC: 0.208 (Simulation time: 02 hr 57 min 38 sec)
Heartbeat CPU 0 instructions: 410000063 cycles: 1938418273 heartbeat IPC: 0.6481 cumulative IPC: 0.2115 (Simulation time: 02 hr 59 min 26 sec)
Heartbeat CPU 0 instructions: 420000063 cycles: 1953744904 heartbeat IPC: 0.6525 cumulative IPC: 0.215 (Simulation time: 03 hr 01 min 20 sec)
Heartbeat CPU 0 instructions: 430000065 cycles: 1959687553 heartbeat IPC: 1.683 cumulative IPC: 0.2194 (Simulation time: 03 hr 02 min 10 sec)
Simulation CPU 0 panic: IPC 0.0002104 < 0.01
Simulation CPU 0 critical: IPC 0.018348 < 0.02
Heartbeat CPU 0 instructions: 440000065 cycles: 2020471181 heartbeat IPC: 0.1645 cumulative IPC: 0.2178 (Simulation time: 03 hr 08 min 21 sec)
Heartbeat CPU 0 instructions: 450000066 cycles: 2036644604 heartbeat IPC: 0.6183 cumulative IPC: 0.221 (Simulation time: 03 hr 10 min 10 sec)
Heartbeat CPU 0 instructions: 460000069 cycles: 2041964243 heartbeat IPC: 1.88 cumulative IPC: 0.2253 (Simulation time: 03 hr 10 min 59 sec)
Simulation CPU 0 panic: IPC 0.0081597 < 0.01
Heartbeat CPU 0 instructions: 470000072 cycles: 2084838894 heartbeat IPC: 0.2332 cumulative IPC: 0.2254 (Simulation time: 03 hr 15 min 43 sec)
Heartbeat CPU 0 instructions: 480000072 cycles: 2108773649 heartbeat IPC: 0.4178 cumulative IPC: 0.2276 (Simulation time: 03 hr 18 min 32 sec)
Heartbeat CPU 0 instructions: 490000072 cycles: 2113553342 heartbeat IPC: 2.092 cumulative IPC: 0.2318 (Simulation time: 03 hr 19 min 14 sec)
Simulation CPU 0 critical: IPC 0.012516 < 0.02
Heartbeat CPU 0 instructions: 500000075 cycles: 2136697629 heartbeat IPC: 0.4321 cumulative IPC: 0.234 (Simulation time: 03 hr 21 min 41 sec)
Heartbeat CPU 0 instructions: 510000076 cycles: 2141353652 heartbeat IPC: 2.148 cumulative IPC: 0.2382 (Simulation time: 03 hr 22 min 20 sec)
Simulation CPU 0 critical: IPC 0.0124 < 0.02
Heartbeat CPU 0 instructions: 520000078 cycles: 2165325836 heartbeat IPC: 0.4172 cumulative IPC: 0.2401 (Simulation time: 03 hr 25 min 02 sec)
Heartbeat CPU 0 instructions: 530000079 cycles: 2169742425 heartbeat IPC: 2.264 cumulative IPC: 0.2443 (Simulation time: 03 hr 25 min 40 sec)
Heartbeat CPU 0 instructions: 540000079 cycles: 2184869397 heartbeat IPC: 0.6611 cumulative IPC: 0.2472 (Simulation time: 03 hr 27 min 18 sec)
Heartbeat CPU 0 instructions: 550000079 cycles: 2190926513 heartbeat IPC: 1.651 cumulative IPC: 0.251 (Simulation time: 03 hr 28 min 13 sec)
Heartbeat CPU 0 instructions: 560000081 cycles: 2206254261 heartbeat IPC: 0.6524 cumulative IPC: 0.2538 (Simulation time: 03 hr 30 min 01 sec)
Heartbeat CPU 0 instructions: 570000084 cycles: 2212367615 heartbeat IPC: 1.636 cumulative IPC: 0.2576 (Simulation time: 03 hr 30 min 56 sec)
Heartbeat CPU 0 instructions: 580000084 cycles: 2227703709 heartbeat IPC: 0.6521 cumulative IPC: 0.2604 (Simulation time: 03 hr 32 min 52 sec)
Heartbeat CPU 0 instructions: 590000084 cycles: 2243024312 heartbeat IPC: 0.6527 cumulative IPC: 0.263 (Simulation time: 03 hr 34 min 43 sec)
Heartbeat CPU 0 instructions: 600000087 cycles: 2249074334 heartbeat IPC: 1.653 cumulative IPC: 0.2668 (Simulation time: 03 hr 35 min 25 sec)
Heartbeat CPU 0 instructions: 610000090 cycles: 2255167283 heartbeat IPC: 1.641 cumulative IPC: 0.2705 (Simulation time: 03 hr 36 min 02 sec)
Heartbeat CPU 0 instructions: 620000094 cycles: 2269164721 heartbeat IPC: 0.7144 cumulative IPC: 0.2732 (Simulation time: 03 hr 37 min 31 sec)
Heartbeat CPU 0 instructions: 630000096 cycles: 2295468359 heartbeat IPC: 0.3802 cumulative IPC: 0.2745 (Simulation time: 03 hr 39 min 44 sec)
Heartbeat CPU 0 instructions: 640000096 cycles: 2301353189 heartbeat IPC: 1.699 cumulative IPC: 0.2781 (Simulation time: 03 hr 40 min 25 sec)
Heartbeat CPU 0 instructions: 650000097 cycles: 2316385293 heartbeat IPC: 0.6652 cumulative IPC: 0.2806 (Simulation time: 03 hr 41 min 52 sec)
Heartbeat CPU 0 instructions: 660000097 cycles: 2340558118 heartbeat IPC: 0.4137 cumulative IPC: 0.282 (Simulation time: 03 hr 44 min 20 sec)
Heartbeat CPU 0 instructions: 670000097 cycles: 2354393308 heartbeat IPC: 0.7228 cumulative IPC: 0.2846 (Simulation time: 03 hr 45 min 34 sec)
Simulation CPU 0 warning: IPC 0.024074 < 0.05
Simulation CPU 0 warning: IPC 0.044044 < 0.05
Simulation CPU 0 critical: IPC 0.012575 < 0.02
Heartbeat CPU 0 instructions: 680000098 cycles: 2405968326 heartbeat IPC: 0.1939 cumulative IPC: 0.2826 (Simulation time: 03 hr 50 min 03 sec)
Heartbeat CPU 0 instructions: 690000101 cycles: 2409556766 heartbeat IPC: 2.787 cumulative IPC: 0.2864 (Simulation time: 03 hr 50 min 35 sec)
Heartbeat CPU 0 instructions: 700000105 cycles: 2415864653 heartbeat IPC: 1.585 cumulative IPC: 0.2898 (Simulation time: 03 hr 51 min 25 sec)
Heartbeat CPU 0 instructions: 710000108 cycles: 2429848497 heartbeat IPC: 0.7151 cumulative IPC: 0.2922 (Simulation time: 03 hr 52 min 57 sec)
Heartbeat CPU 0 instructions: 720000109 cycles: 2444417067 heartbeat IPC: 0.6864 cumulative IPC: 0.2945 (Simulation time: 03 hr 54 min 38 sec)
Heartbeat CPU 0 instructions: 730000110 cycles: 2460055156 heartbeat IPC: 0.6395 cumulative IPC: 0.2967 (Simulation time: 03 hr 56 min 35 sec)
Heartbeat CPU 0 instructions: 740000114 cycles: 2466121922 heartbeat IPC: 1.648 cumulative IPC: 0.3001 (Simulation time: 03 hr 57 min 25 sec)
Heartbeat CPU 0 instructions: 750000117 cycles: 2472238669 heartbeat IPC: 1.635 cumulative IPC: 0.3034 (Simulation time: 03 hr 58 min 12 sec)
Heartbeat CPU 0 instructions: 760000118 cycles: 2487582614 heartbeat IPC: 0.6517 cumulative IPC: 0.3055 (Simulation time: 03 hr 59 min 50 sec)
Heartbeat CPU 0 instructions: 770000118 cycles: 2502176318 heartbeat IPC: 0.6852 cumulative IPC: 0.3077 (Simulation time: 04 hr 01 min 29 sec)
Heartbeat CPU 0 instructions: 780000119 cycles: 2517611270 heartbeat IPC: 0.6479 cumulative IPC: 0.3098 (Simulation time: 04 hr 03 min 15 sec)
Heartbeat CPU 0 instructions: 790000122 cycles: 2533031679 heartbeat IPC: 0.6485 cumulative IPC: 0.3119 (Simulation time: 04 hr 05 min 03 sec)
Heartbeat CPU 0 instructions: 800000126 cycles: 2538351238 heartbeat IPC: 1.88 cumulative IPC: 0.3152 (Simulation time: 04 hr 05 min 52 sec)
Heartbeat CPU 0 instructions: 810000126 cycles: 2582327381 heartbeat IPC: 0.2274 cumulative IPC: 0.3137 (Simulation time: 04 hr 10 min 37 sec)
Heartbeat CPU 0 instructions: 820000127 cycles: 2588250857 heartbeat IPC: 1.688 cumulative IPC: 0.3168 (Simulation time: 04 hr 11 min 21 sec)
Heartbeat CPU 0 instructions: 830000129 cycles: 2603048906 heartbeat IPC: 0.6758 cumulative IPC: 0.3189 (Simulation time: 04 hr 12 min 59 sec)
Simulation CPU 0 warning: IPC 0.039497 < 0.05
Heartbeat CPU 0 instructions: 840000130 cycles: 2654380092 heartbeat IPC: 0.1948 cumulative IPC: 0.3165 (Simulation time: 04 hr 17 min 25 sec)
Heartbeat CPU 0 instructions: 850000134 cycles: 2668905413 heartbeat IPC: 0.6885 cumulative IPC: 0.3185 (Simulation time: 04 hr 18 min 59 sec)
Heartbeat CPU 0 instructions: 860000134 cycles: 2674129029 heartbeat IPC: 1.914 cumulative IPC: 0.3216 (Simulation time: 04 hr 19 min 44 sec)
Simulation CPU 0 critical: IPC 0.012519 < 0.02
Heartbeat CPU 0 instructions: 870000135 cycles: 2696807744 heartbeat IPC: 0.4409 cumulative IPC: 0.3226 (Simulation time: 04 hr 21 min 55 sec)
Heartbeat CPU 0 instructions: 880000136 cycles: 2702900829 heartbeat IPC: 1.641 cumulative IPC: 0.3256 (Simulation time: 04 hr 22 min 42 sec)
Heartbeat CPU 0 instructions: 890000138 cycles: 2717122309 heartbeat IPC: 0.7032 cumulative IPC: 0.3276 (Simulation time: 04 hr 24 min 20 sec)
Heartbeat CPU 0 instructions: 900000140 cycles: 2721931537 heartbeat IPC: 2.079 cumulative IPC: 0.3306 (Simulation time: 04 hr 25 min 01 sec)
Heartbeat CPU 0 instructions: 910000140 cycles: 2737255897 heartbeat IPC: 0.6526 cumulative IPC: 0.3324 (Simulation time: 04 hr 26 min 46 sec)
Heartbeat CPU 0 instructions: 920000144 cycles: 2743311036 heartbeat IPC: 1.651 cumulative IPC: 0.3354 (Simulation time: 04 hr 27 min 40 sec)
Heartbeat CPU 0 instructions: 930000145 cycles: 2758644193 heartbeat IPC: 0.6522 cumulative IPC: 0.3371 (Simulation time: 04 hr 29 min 22 sec)
Heartbeat CPU 0 instructions: 940000148 cycles: 2764692068 heartbeat IPC: 1.653 cumulative IPC: 0.34 (Simulation time: 04 hr 30 min 16 sec)
Heartbeat CPU 0 instructions: 950000148 cycles: 2779943184 heartbeat IPC: 0.6557 cumulative IPC: 0.3417 (Simulation time: 04 hr 32 min 04 sec)
Heartbeat CPU 0 instructions: 960000151 cycles: 2785964637 heartbeat IPC: 1.661 cumulative IPC: 0.3446 (Simulation time: 04 hr 32 min 57 sec)
Heartbeat CPU 0 instructions: 970000152 cycles: 2792111927 heartbeat IPC: 1.627 cumulative IPC: 0.3474 (Simulation time: 04 hr 33 min 51 sec)
Heartbeat CPU 0 instructions: 980000152 cycles: 2807514615 heartbeat IPC: 0.6492 cumulative IPC: 0.3491 (Simulation time: 04 hr 35 min 35 sec)
Heartbeat CPU 0 instructions: 990000152 cycles: 2831134366 heartbeat IPC: 0.4234 cumulative IPC: 0.3497 (Simulation time: 04 hr 38 min 16 sec)
Heartbeat CPU 0 instructions: 1000000153 cycles: 2838349097 heartbeat IPC: 1.386 cumulative IPC: 0.3523 (Simulation time: 04 hr 39 min 11 sec)
Heartbeat CPU 0 instructions: 1010000153 cycles: 2843848030 heartbeat IPC: 1.819 cumulative IPC: 0.3552 (Simulation time: 04 hr 40 min 00 sec)
Heartbeat CPU 0 instructions: 1020000153 cycles: 2858925718 heartbeat IPC: 0.6632 cumulative IPC: 0.3568 (Simulation time: 04 hr 41 min 59 sec)
Heartbeat CPU 0 instructions: 1030000157 cycles: 2910607117 heartbeat IPC: 0.1935 cumulative IPC: 0.3539 (Simulation time: 04 hr 47 min 37 sec)
Heartbeat CPU 0 instructions: 1040000157 cycles: 2924773001 heartbeat IPC: 0.7059 cumulative IPC: 0.3556 (Simulation time: 04 hr 48 min 55 sec)
Simulation CPU 0 warning: IPC 0.021947 < 0.05
Simulation CPU 0 critical: IPC 0.012568 < 0.02
Heartbeat CPU 0 instructions: 1050000158 cycles: 2975879494 heartbeat IPC: 0.1957 cumulative IPC: 0.3528 (Simulation time: 04 hr 53 min 33 sec)
Heartbeat CPU 0 instructions: 1060000158 cycles: 2980464061 heartbeat IPC: 2.181 cumulative IPC: 0.3556 (Simulation time: 04 hr 54 min 02 sec)
Simulation CPU 0 critical: IPC 0.012394 < 0.02
Heartbeat CPU 0 instructions: 1070000161 cycles: 3005240537 heartbeat IPC: 0.4036 cumulative IPC: 0.356 (Simulation time: 04 hr 56 min 34 sec)
Heartbeat CPU 0 instructions: 1080000163 cycles: 3009633099 heartbeat IPC: 2.277 cumulative IPC: 0.3588 (Simulation time: 04 hr 57 min 12 sec)
Heartbeat CPU 0 instructions: 1090000166 cycles: 3024553515 heartbeat IPC: 0.6702 cumulative IPC: 0.3604 (Simulation time: 04 hr 58 min 52 sec)
Heartbeat CPU 0 instructions: 1100000168 cycles: 3039989547 heartbeat IPC: 0.6478 cumulative IPC: 0.3618 (Simulation time: 05 hr 00 min 46 sec)
Heartbeat CPU 0 instructions: 1110000169 cycles: 3046041598 heartbeat IPC: 1.652 cumulative IPC: 0.3644 (Simulation time: 05 hr 01 min 40 sec)
Heartbeat CPU 0 instructions: 1120000172 cycles: 3052105008 heartbeat IPC: 1.649 cumulative IPC: 0.367 (Simulation time: 05 hr 02 min 33 sec)
Heartbeat CPU 0 instructions: 1130000174 cycles: 3058207892 heartbeat IPC: 1.639 cumulative IPC: 0.3695 (Simulation time: 05 hr 03 min 28 sec)
Heartbeat CPU 0 instructions: 1140000174 cycles: 3064270141 heartbeat IPC: 1.65 cumulative IPC: 0.372 (Simulation time: 05 hr 04 min 22 sec)
Heartbeat CPU 0 instructions: 1150000174 cycles: 3079579987 heartbeat IPC: 0.6532 cumulative IPC: 0.3734 (Simulation time: 05 hr 06 min 16 sec)
Heartbeat CPU 0 instructions: 1160000174 cycles: 3085807567 heartbeat IPC: 1.606 cumulative IPC: 0.3759 (Simulation time: 05 hr 07 min 01 sec)
Heartbeat CPU 0 instructions: 1170000177 cycles: 3100030306 heartbeat IPC: 0.7031 cumulative IPC: 0.3774 (Simulation time: 05 hr 08 min 38 sec)
Heartbeat CPU 0 instructions: 1180000177 cycles: 3144458743 heartbeat IPC: 0.2251 cumulative IPC: 0.3753 (Simulation time: 05 hr 13 min 02 sec)
Heartbeat CPU 0 instructions: 1190000178 cycles: 3150430275 heartbeat IPC: 1.675 cumulative IPC: 0.3777 (Simulation time: 05 hr 13 min 44 sec)
Heartbeat CPU 0 instructions: 1200000181 cycles: 3183960436 heartbeat IPC: 0.2982 cumulative IPC: 0.3769 (Simulation time: 05 hr 16 min 38 sec)
Heartbeat CPU 0 instructions: 1210000185 cycles: 3216557620 heartbeat IPC: 0.3068 cumulative IPC: 0.3762 (Simulation time: 05 hr 19 min 52 sec)
Heartbeat CPU 0 instructions: 1220000187 cycles: 3221785164 heartbeat IPC: 1.913 cumulative IPC: 0.3787 (Simulation time: 05 hr 20 min 38 sec)
Heartbeat CPU 0 instructions: 1230000190 cycles: 3227455222 heartbeat IPC: 1.764 cumulative IPC: 0.3811 (Simulation time: 05 hr 21 min 28 sec)
Heartbeat CPU 0 instructions: 1240000191 cycles: 3230739653 heartbeat IPC: 3.045 cumulative IPC: 0.3838 (Simulation time: 05 hr 21 min 51 sec)
Heartbeat CPU 0 instructions: 1250000194 cycles: 3237440806 heartbeat IPC: 1.492 cumulative IPC: 0.3861 (Simulation time: 05 hr 22 min 29 sec)
Simulation CPU 0 critical: IPC 0.012401 < 0.02
Heartbeat CPU 0 instructions: 1260000194 cycles: 3260511729 heartbeat IPC: 0.4334 cumulative IPC: 0.3864 (Simulation time: 05 hr 24 min 51 sec)
Heartbeat CPU 0 instructions: 1270000194 cycles: 3274934902 heartbeat IPC: 0.6933 cumulative IPC: 0.3878 (Simulation time: 05 hr 26 min 25 sec)
Heartbeat CPU 0 instructions: 1280000194 cycles: 3290452853 heartbeat IPC: 0.6444 cumulative IPC: 0.389 (Simulation time: 05 hr 28 min 20 sec)
Heartbeat CPU 0 instructions: 1290000194 cycles: 3296541482 heartbeat IPC: 1.642 cumulative IPC: 0.3913 (Simulation time: 05 hr 29 min 15 sec)
Heartbeat CPU 0 instructions: 1300000198 cycles: 3311889370 heartbeat IPC: 0.6516 cumulative IPC: 0.3925 (Simulation time: 05 hr 31 min 00 sec)
Heartbeat CPU 0 instructions: 1310000198 cycles: 3317954801 heartbeat IPC: 1.649 cumulative IPC: 0.3948 (Simulation time: 05 hr 31 min 38 sec)
Heartbeat CPU 0 instructions: 1320000198 cycles: 3323996401 heartbeat IPC: 1.655 cumulative IPC: 0.3971 (Simulation time: 05 hr 32 min 31 sec)
Heartbeat CPU 0 instructions: 1330000201 cycles: 3339273004 heartbeat IPC: 0.6546 cumulative IPC: 0.3983 (Simulation time: 05 hr 34 min 20 sec)
Heartbeat CPU 0 instructions: 1340000201 cycles: 3345552821 heartbeat IPC: 1.592 cumulative IPC: 0.4005 (Simulation time: 05 hr 35 min 16 sec)
Heartbeat CPU 0 instructions: 1350000204 cycles: 3369891282 heartbeat IPC: 0.4109 cumulative IPC: 0.4006 (Simulation time: 05 hr 37 min 56 sec)
Simulation CPU 0 panic: IPC 0.0086739 < 0.01
Simulation CPU 0 panic: IPC 0.0063234 < 0.01
Heartbeat CPU 0 instructions: 1360000206 cycles: 3422728712 heartbeat IPC: 0.1893 cumulative IPC: 0.3973 (Simulation time: 05 hr 43 min 31 sec)
Heartbeat CPU 0 instructions: 1370000209 cycles: 3428659472 heartbeat IPC: 1.686 cumulative IPC: 0.3996 (Simulation time: 05 hr 44 min 20 sec)
Heartbeat CPU 0 instructions: 1380000213 cycles: 3443637231 heartbeat IPC: 0.6677 cumulative IPC: 0.4007 (Simulation time: 05 hr 46 min 04 sec)
Simulation CPU 0 panic: IPC 0.0081597 < 0.01
Heartbeat CPU 0 instructions: 1390000215 cycles: 3485960706 heartbeat IPC: 0.2363 cumulative IPC: 0.3987 (Simulation time: 05 hr 50 min 16 sec)
Heartbeat CPU 0 instructions: 1400000215 cycles: 3500518395 heartbeat IPC: 0.6869 cumulative IPC: 0.3999 (Simulation time: 05 hr 52 min 07 sec)
Heartbeat CPU 0 instructions: 1410000216 cycles: 3505820685 heartbeat IPC: 1.886 cumulative IPC: 0.4022 (Simulation time: 05 hr 52 min 53 sec)
Simulation CPU 0 critical: IPC 0.012532 < 0.02
Heartbeat CPU 0 instructions: 1420000217 cycles: 3528507650 heartbeat IPC: 0.4408 cumulative IPC: 0.4024 (Simulation time: 05 hr 55 min 05 sec)
Heartbeat CPU 0 instructions: 1430000219 cycles: 3534612962 heartbeat IPC: 1.638 cumulative IPC: 0.4046 (Simulation time: 05 hr 55 min 52 sec)
Simulation CPU 0 critical: IPC 0.012398 < 0.02
Heartbeat CPU 0 instructions: 1440000219 cycles: 3558236238 heartbeat IPC: 0.4233 cumulative IPC: 0.4047 (Simulation time: 05 hr 58 min 25 sec)
Heartbeat CPU 0 instructions: 1450000219 cycles: 3563048716 heartbeat IPC: 2.078 cumulative IPC: 0.407 (Simulation time: 05 hr 58 min 58 sec)
Heartbeat CPU 0 instructions: 1460000220 cycles: 3578472095 heartbeat IPC: 0.6484 cumulative IPC: 0.408 (Simulation time: 06 hr 00 min 18 sec)
Heartbeat CPU 0 instructions: 1470000221 cycles: 3584618953 heartbeat IPC: 1.627 cumulative IPC: 0.4101 (Simulation time: 06 hr 01 min 03 sec)
Heartbeat CPU 0 instructions: 1480000225 cycles: 3600025108 heartbeat IPC: 0.6491 cumulative IPC: 0.4111 (Simulation time: 06 hr 02 min 31 sec)
Heartbeat CPU 0 instructions: 1490000225 cycles: 3606157670 heartbeat IPC: 1.631 cumulative IPC: 0.4132 (Simulation time: 06 hr 03 min 26 sec)
Heartbeat CPU 0 instructions: 1500000226 cycles: 3621486694 heartbeat IPC: 0.6524 cumulative IPC: 0.4142 (Simulation time: 06 hr 05 min 12 sec)
Heartbeat CPU 0 instructions: 1510000229 cycles: 3627638435 heartbeat IPC: 1.626 cumulative IPC: 0.4162 (Simulation time: 06 hr 06 min 08 sec)
Heartbeat CPU 0 instructions: 1520000232 cycles: 3643138784 heartbeat IPC: 0.6451 cumulative IPC: 0.4172 (Simulation time: 06 hr 08 min 02 sec)
Heartbeat CPU 0 instructions: 1530000232 cycles: 3649381751 heartbeat IPC: 1.602 cumulative IPC: 0.4192 (Simulation time: 06 hr 08 min 57 sec)
Heartbeat CPU 0 instructions: 1540000234 cycles: 3663796605 heartbeat IPC: 0.6937 cumulative IPC: 0.4203 (Simulation time: 06 hr 10 min 47 sec)
Heartbeat CPU 0 instructions: 1550000238 cycles: 3679920670 heartbeat IPC: 0.6202 cumulative IPC: 0.4212 (Simulation time: 06 hr 12 min 47 sec)
Heartbeat CPU 0 instructions: 1560000240 cycles: 3685729520 heartbeat IPC: 1.722 cumulative IPC: 0.4233 (Simulation time: 06 hr 13 min 40 sec)
Simulation CPU 0 warning: IPC 0.035974 < 0.05
Heartbeat CPU 0 instructions: 1570000244 cycles: 3710121684 heartbeat IPC: 0.41 cumulative IPC: 0.4232 (Simulation time: 06 hr 16 min 11 sec)
Heartbeat CPU 0 instructions: 1580000244 cycles: 3734194929 heartbeat IPC: 0.4154 cumulative IPC: 0.4231 (Simulation time: 06 hr 19 min 06 sec)
Heartbeat CPU 0 instructions: 1590000245 cycles: 3748137051 heartbeat IPC: 0.7173 cumulative IPC: 0.4242 (Simulation time: 06 hr 20 min 36 sec)
Simulation CPU 0 warning: IPC 0.023814 < 0.05
Simulation CPU 0 critical: IPC 0.012525 < 0.02
Heartbeat CPU 0 instructions: 1600000248 cycles: 3799507833 heartbeat IPC: 0.1947 cumulative IPC: 0.4211 (Simulation time: 06 hr 25 min 50 sec)
Heartbeat CPU 0 instructions: 1610000250 cycles: 3803556748 heartbeat IPC: 2.47 cumulative IPC: 0.4233 (Simulation time: 06 hr 26 min 25 sec)
Heartbeat CPU 0 instructions: 1620000252 cycles: 3809948781 heartbeat IPC: 1.564 cumulative IPC: 0.4252 (Simulation time: 06 hr 27 min 17 sec)
Heartbeat CPU 0 instructions: 1630000256 cycles: 3823808613 heartbeat IPC: 0.7215 cumulative IPC: 0.4263 (Simulation time: 06 hr 28 min 50 sec)
Heartbeat CPU 0 instructions: 1640000257 cycles: 3829255344 heartbeat IPC: 1.836 cumulative IPC: 0.4283 (Simulation time: 06 hr 29 min 37 sec)
Heartbeat CPU 0 instructions: 1650000257 cycles: 3835674532 heartbeat IPC: 1.558 cumulative IPC: 0.4302 (Simulation time: 06 hr 30 min 34 sec)
Heartbeat CPU 0 instructions: 1660000257 cycles: 3841793780 heartbeat IPC: 1.634 cumulative IPC: 0.4321 (Simulation time: 06 hr 31 min 30 sec)
Heartbeat CPU 0 instructions: 1670000259 cycles: 3847906412 heartbeat IPC: 1.636 cumulative IPC: 0.434 (Simulation time: 06 hr 32 min 25 sec)
Heartbeat CPU 0 instructions: 1680000262 cycles: 3872507599 heartbeat IPC: 0.4065 cumulative IPC: 0.4338 (Simulation time: 06 hr 35 min 10 sec)
Heartbeat CPU 0 instructions: 1690000262 cycles: 3878648142 heartbeat IPC: 1.629 cumulative IPC: 0.4357 (Simulation time: 06 hr 36 min 06 sec)
Heartbeat CPU 0 instructions: 1700000262 cycles: 3884771622 heartbeat IPC: 1.633 cumulative IPC: 0.4376 (Simulation time: 06 hr 37 min 02 sec)
Heartbeat CPU 0 instructions: 1710000264 cycles: 3891070809 heartbeat IPC: 1.588 cumulative IPC: 0.4395 (Simulation time: 06 hr 37 min 57 sec)
Heartbeat CPU 0 instructions: 1720000264 cycles: 3905488034 heartbeat IPC: 0.6936 cumulative IPC: 0.4404 (Simulation time: 06 hr 39 min 31 sec)
Heartbeat CPU 0 instructions: 1730000264 cycles: 3940507065 heartbeat IPC: 0.2856 cumulative IPC: 0.439 (Simulation time: 06 hr 43 min 13 sec)
Heartbeat CPU 0 instructions: 1740000266 cycles: 3946393356 heartbeat IPC: 1.699 cumulative IPC: 0.4409 (Simulation time: 06 hr 44 min 03 sec)
Heartbeat CPU 0 instructions: 1750000270 cycles: 3989298577 heartbeat IPC: 0.2331 cumulative IPC: 0.4387 (Simulation time: 06 hr 48 min 40 sec)
Simulation CPU 0 critical: IPC 0.015738 < 0.02
Heartbeat CPU 0 instructions: 1760000272 cycles: 4031455244 heartbeat IPC: 0.2372 cumulative IPC: 0.4366 (Simulation time: 06 hr 53 min 21 sec)
Heartbeat CPU 0 instructions: 1770000276 cycles: 4036541623 heartbeat IPC: 1.966 cumulative IPC: 0.4385 (Simulation time: 06 hr 54 min 05 sec)
Simulation CPU 0 warning: IPC 0.030092 < 0.05
Heartbeat CPU 0 instructions: 1780000278 cycles: 4060660090 heartbeat IPC: 0.4146 cumulative IPC: 0.4384 (Simulation time: 06 hr 56 min 33 sec)
Heartbeat CPU 0 instructions: 1790000278 cycles: 4063872171 heartbeat IPC: 3.113 cumulative IPC: 0.4405 (Simulation time: 06 hr 57 min 02 sec)
Heartbeat CPU 0 instructions: 1800000279 cycles: 4070818778 heartbeat IPC: 1.44 cumulative IPC: 0.4422 (Simulation time: 06 hr 57 min 55 sec)
Simulation CPU 0 critical: IPC 0.012399 < 0.02
Heartbeat CPU 0 instructions: 1810000281 cycles: 4093852934 heartbeat IPC: 0.4341 cumulative IPC: 0.4421 (Simulation time: 07 hr 00 min 32 sec)
Heartbeat CPU 0 instructions: 1820000281 cycles: 4099263137 heartbeat IPC: 1.848 cumulative IPC: 0.444 (Simulation time: 07 hr 01 min 19 sec)
Heartbeat CPU 0 instructions: 1830000284 cycles: 4114971892 heartbeat IPC: 0.6366 cumulative IPC: 0.4447 (Simulation time: 07 hr 03 min 14 sec)
Heartbeat CPU 0 instructions: 1840000284 cycles: 4121210588 heartbeat IPC: 1.603 cumulative IPC: 0.4465 (Simulation time: 07 hr 04 min 09 sec)
Heartbeat CPU 0 instructions: 1850000284 cycles: 4136639917 heartbeat IPC: 0.6481 cumulative IPC: 0.4472 (Simulation time: 07 hr 05 min 57 sec)
Heartbeat CPU 0 instructions: 1860000284 cycles: 4152097442 heartbeat IPC: 0.6469 cumulative IPC: 0.448 (Simulation time: 07 hr 07 min 47 sec)
Heartbeat CPU 0 instructions: 1870000285 cycles: 4158349993 heartbeat IPC: 1.599 cumulative IPC: 0.4497 (Simulation time: 07 hr 08 min 43 sec)
Heartbeat CPU 0 instructions: 1880000285 cycles: 4173838942 heartbeat IPC: 0.6456 cumulative IPC: 0.4504 (Simulation time: 07 hr 10 min 39 sec)
Heartbeat CPU 0 instructions: 1890000287 cycles: 4189435886 heartbeat IPC: 0.6412 cumulative IPC: 0.4511 (Simulation time: 07 hr 12 min 30 sec)
Heartbeat CPU 0 instructions: 1900000288 cycles: 4204344704 heartbeat IPC: 0.6707 cumulative IPC: 0.4519 (Simulation time: 07 hr 14 min 17 sec)
Simulation CPU 0 critical: IPC 0.016554 < 0.02
Heartbeat CPU 0 instructions: 1910000292 cycles: 4239115609 heartbeat IPC: 0.2876 cumulative IPC: 0.4506 (Simulation time: 07 hr 18 min 02 sec)
Heartbeat CPU 0 instructions: 1920000295 cycles: 4244770521 heartbeat IPC: 1.768 cumulative IPC: 0.4523 (Simulation time: 07 hr 18 min 51 sec)
Heartbeat CPU 0 instructions: 1930000299 cycles: 4249982014 heartbeat IPC: 1.919 cumulative IPC: 0.4541 (Simulation time: 07 hr 19 min 40 sec)
Heartbeat CPU 0 instructions: 1940000299 cycles: 4274732153 heartbeat IPC: 0.404 cumulative IPC: 0.4538 (Simulation time: 07 hr 22 min 25 sec)
Heartbeat CPU 0 instructions: 1950000299 cycles: 4289561132 heartbeat IPC: 0.6744 cumulative IPC: 0.4546 (Simulation time: 07 hr 24 min 22 sec)
Heartbeat CPU 0 instructions: 1960000301 cycles: 4303716928 heartbeat IPC: 0.7064 cumulative IPC: 0.4554 (Simulation time: 07 hr 26 min 10 sec)
Simulation CPU 0 warning: IPC 0.021656 < 0.05
Heartbeat CPU 0 instructions: 1970000302 cycles: 4345328160 heartbeat IPC: 0.2403 cumulative IPC: 0.4534 (Simulation time: 07 hr 29 min 40 sec)
Heartbeat CPU 0 instructions: 1980000303 cycles: 4350202352 heartbeat IPC: 2.052 cumulative IPC: 0.4552 (Simulation time: 07 hr 30 min 06 sec)
Simulation CPU 0 critical: IPC 0.012394 < 0.02
Heartbeat CPU 0 instructions: 1990000303 cycles: 4374643937 heartbeat IPC: 0.4091 cumulative IPC: 0.4549 (Simulation time: 07 hr 32 min 10 sec)

=== ERROR PAGE STATISTICS ===
Mode: OFF
Total Error Accesses: 0
==============================
Simulation finished CPU 0 instructions: 1999999926 cycles: 4379192122 cumulative IPC: 0.4567 (Simulation time: 07 hr 32 min 35 sec)
Simulation complete CPU 0 instructions: 1999999926 cycles: 4379192122 cumulative IPC: 0.4567 (Simulation time: 07 hr 32 min 35 sec)

ChampSim completed all CPUs

=== Simulation ===
CPU 0 runs test_traces/628.pop2_s-17B.champsimtrace.xz

Region of Interest Statistics

CPU 0 cumulative IPC: 0.4567 instructions: 1999999926 cycles: 4379192122
CPU 0 Branch Prediction Accuracy: 97.16% MPKI: 4.393 Average ROB Occupancy at Mispredict: 77.22
Branch type MPKI
BRANCH_DIRECT_JUMP: 0.02883
BRANCH_INDIRECT: 0.0006925
BRANCH_CONDITIONAL: 4.321
BRANCH_DIRECT_CALL: 0.0002875
BRANCH_INDIRECT_CALL: 0
BRANCH_RETURN: 0.04196

cpu0->cpu0_STLB TOTAL        ACCESS:      58788 HIT:      58426 MISS:        362 MSHR_MERGE:          0
cpu0->cpu0_STLB LOAD         ACCESS:      58788 HIT:      58426 MISS:        362 MSHR_MERGE:          0
cpu0->cpu0_STLB RFO          ACCESS:          0 HIT:          0 MISS:          0 MSHR_MERGE:          0
cpu0->cpu0_STLB PREFETCH     ACCESS:          0 HIT:          0 MISS:          0 MSHR_MERGE:          0
cpu0->cpu0_STLB WRITE        ACCESS:          0 HIT:          0 MISS:          0 MSHR_MERGE:          0
cpu0->cpu0_STLB TRANSLATION  ACCESS:          0 HIT:          0 MISS:          0 MSHR_MERGE:          0
cpu0->cpu0_STLB PREFETCH REQUESTED:          0 ISSUED:          0 USEFUL:          0 USELESS:          0
cpu0->cpu0_STLB AVERAGE MISS LATENCY: 9.342e+06 cycles
cpu0->cpu0_L2C TOTAL        ACCESS:   43523151 HIT:   30817752 MISS:   12705399 MSHR_MERGE:          0
cpu0->cpu0_L2C LOAD         ACCESS:   20308445 HIT:   11673049 MISS:    8635396 MSHR_MERGE:          0
cpu0->cpu0_L2C RFO          ACCESS:    9925006 HIT:    5862191 MISS:    4062815 MSHR_MERGE:          0
cpu0->cpu0_L2C PREFETCH     ACCESS:          0 HIT:          0 MISS:          0 MSHR_MERGE:          0
cpu0->cpu0_L2C WRITE        ACCESS:   13289700 HIT:   13282512 MISS:       7188 MSHR_MERGE:          0
cpu0->cpu0_L2C TRANSLATION  ACCESS:          0 HIT:          0 MISS:          0 MSHR_MERGE:          0
cpu0->cpu0_L2C PREFETCH REQUESTED:          0 ISSUED:          0 USEFUL:          0 USELESS:          0
cpu0->cpu0_L2C AVERAGE MISS LATENCY: 78.45 cycles
cpu0->cpu0_L1I TOTAL        ACCESS:  103672926 HIT:  101724296 MISS:    1948630 MSHR_MERGE:     958083
cpu0->cpu0_L1I LOAD         ACCESS:  103672926 HIT:  101724296 MISS:    1948630 MSHR_MERGE:     958083
cpu0->cpu0_L1I RFO          ACCESS:          0 HIT:          0 MISS:          0 MSHR_MERGE:          0
cpu0->cpu0_L1I PREFETCH     ACCESS:          0 HIT:          0 MISS:          0 MSHR_MERGE:          0
cpu0->cpu0_L1I WRITE        ACCESS:          0 HIT:          0 MISS:          0 MSHR_MERGE:          0
cpu0->cpu0_L1I TRANSLATION  ACCESS:          0 HIT:          0 MISS:          0 MSHR_MERGE:          0
cpu0->cpu0_L1I PREFETCH REQUESTED:          0 ISSUED:          0 USEFUL:          0 USELESS:          0
cpu0->cpu0_L1I AVERAGE MISS LATENCY: 27.75 cycles
cpu0->cpu0_L1D TOTAL        ACCESS:  498230342 HIT:  423474502 MISS:   74755840 MSHR_MERGE:   45512622
cpu0->cpu0_L1D LOAD         ACCESS:  364069615 HIT:  324115384 MISS:   39954231 MSHR_MERGE:   20636197
cpu0->cpu0_L1D RFO          ACCESS:          0 HIT:          0 MISS:          0 MSHR_MERGE:          0
cpu0->cpu0_L1D PREFETCH     ACCESS:          0 HIT:          0 MISS:          0 MSHR_MERGE:          0
cpu0->cpu0_L1D WRITE        ACCESS:  134160727 HIT:   99359118 MISS:   34801609 MSHR_MERGE:   24876425
cpu0->cpu0_L1D TRANSLATION  ACCESS:          0 HIT:          0 MISS:          0 MSHR_MERGE:          0
cpu0->cpu0_L1D PREFETCH REQUESTED:          0 ISSUED:          0 USEFUL:          0 USELESS:          0
cpu0->cpu0_L1D AVERAGE MISS LATENCY: 41.95 cycles
cpu0->cpu0_ITLB TOTAL        ACCESS:   86612571 HIT:   86612562 MISS:          9 MSHR_MERGE:          3
cpu0->cpu0_ITLB LOAD         ACCESS:   86612571 HIT:   86612562 MISS:          9 MSHR_MERGE:          3
cpu0->cpu0_ITLB RFO          ACCESS:          0 HIT:          0 MISS:          0 MSHR_MERGE:          0
cpu0->cpu0_ITLB PREFETCH     ACCESS:          0 HIT:          0 MISS:          0 MSHR_MERGE:          0
cpu0->cpu0_ITLB WRITE        ACCESS:          0 HIT:          0 MISS:          0 MSHR_MERGE:          0
cpu0->cpu0_ITLB TRANSLATION  ACCESS:          0 HIT:          0 MISS:          0 MSHR_MERGE:          0
cpu0->cpu0_ITLB PREFETCH REQUESTED:          0 ISSUED:          0 USEFUL:          0 USELESS:          0
cpu0->cpu0_ITLB AVERAGE MISS LATENCY: 1.078e+07 cycles
cpu0->cpu0_DTLB TOTAL        ACCESS:  432896595 HIT:  432769721 MISS:     126874 MSHR_MERGE:      68092
cpu0->cpu0_DTLB LOAD         ACCESS:  432896595 HIT:  432769721 MISS:     126874 MSHR_MERGE:      68092
cpu0->cpu0_DTLB RFO          ACCESS:          0 HIT:          0 MISS:          0 MSHR_MERGE:          0
cpu0->cpu0_DTLB PREFETCH     ACCESS:          0 HIT:          0 MISS:          0 MSHR_MERGE:          0
cpu0->cpu0_DTLB WRITE        ACCESS:          0 HIT:          0 MISS:          0 MSHR_MERGE:          0
cpu0->cpu0_DTLB TRANSLATION  ACCESS:          0 HIT:          0 MISS:          0 MSHR_MERGE:          0
cpu0->cpu0_DTLB PREFETCH REQUESTED:          0 ISSUED:          0 USEFUL:          0 USELESS:          0
cpu0->cpu0_DTLB AVERAGE MISS LATENCY: 5.643e+04 cycles
cpu0->LLC TOTAL        ACCESS:   18541824 HIT:   11400281 MISS:    7141543 MSHR_MERGE:          0
cpu0->LLC LOAD         ACCESS:    8635396 HIT:    4231029 MISS:    4404367 MSHR_MERGE:          0
cpu0->LLC RFO          ACCESS:    4062815 HIT:    1383803 MISS:    2679012 MSHR_MERGE:          0
cpu0->LLC PREFETCH     ACCESS:          0 HIT:          0 MISS:          0 MSHR_MERGE:          0
cpu0->LLC WRITE        ACCESS:    5843613 HIT:    5785449 MISS:      58164 MSHR_MERGE:          0
cpu0->LLC TRANSLATION  ACCESS:          0 HIT:          0 MISS:          0 MSHR_MERGE:          0
cpu0->LLC PREFETCH REQUESTED:          0 ISSUED:          0 USEFUL:          0 USELESS:          0
cpu0->LLC AVERAGE MISS LATENCY: 112 cycles

DRAM Statistics

Channel 0 RQ ROW_BUFFER_HIT:     321373
  ROW_BUFFER_MISS:    3220294
  AVG DBUS CONGESTED CYCLE: 10.79
Channel 0 WQ ROW_BUFFER_HIT:     366202
  ROW_BUFFER_MISS:    1434785
  FULL:       1926
Channel 0 REFRESHES ISSUED:     364909

Channel 1 RQ ROW_BUFFER_HIT:     321309
  ROW_BUFFER_MISS:    3221034
  AVG DBUS CONGESTED CYCLE: 10.79
Channel 1 WQ ROW_BUFFER_HIT:     366090
  ROW_BUFFER_MISS:    1434527
  FULL:       1566
Channel 1 REFRESHES ISSUED:     364909
