[VMEM] WARNING: physical memory size is smaller than virtual memory size.

*** ChampSim Multicore Out-of-Order Simulator ***
Warmup Instructions: 0
Simulation Instructions: 9223372036854775807
Number of CPUs: 1
Page size: 2097152

Off-chip DRAM Size: 32 GiB Channels: 2 Width: 32-bit Data Rate: 4807 MT/s
[ERROR_PAGE_MANAGER] Error latency: 1990500 
[ERROR_PAGE_MANAGER] Random seed: 54321 (fixed for preload reproducibility)
[ERROR_PAGE_MANAGER] Cycle-based error modeling enabled
[ERROR_PAGE_MANAGER] Errors per interval: 1
[ERROR_PAGE_MANAGER] Error cycle interval: 70532401 cycles

=== ERROR PAGE STATISTICS ===
Mode: CYCLE
Error Cycle Interval: 70532401 CPU cycles
Total Error Accesses: 0
==============================
Warmup finished CPU 0 instructions: 0 cycles: 1 cumulative IPC: 0 (Simulation time: 00 hr 00 min 00 sec)
Warmup complete CPU 0 instructions: 0 cycles: 1 cumulative IPC: 0 (Simulation time: 00 hr 00 min 00 sec)
Heartbeat CPU 0 instructions: 10000002 cycles: 25834124 heartbeat IPC: 0.3871 cumulative IPC: 0.3871 (Simulation time: 00 hr 02 min 09 sec)
Heartbeat CPU 0 instructions: 20000002 cycles: 51497107 heartbeat IPC: 0.3897 cumulative IPC: 0.3884 (Simulation time: 00 hr 04 min 40 sec)
[ERROR_CYCLE] Error added at CPU cycle 70532402, interval 1, pending count: 1
[DRAM_CYCLE_ERROR] Cycle-based error applied! address=0x22af77120 additional_latency=1990500 cycles
Heartbeat CPU 0 instructions: 30000004 cycles: 77143986 heartbeat IPC: 0.3899 cumulative IPC: 0.3889 (Simulation time: 00 hr 07 min 11 sec)
Heartbeat CPU 0 instructions: 40000005 cycles: 102865485 heartbeat IPC: 0.3888 cumulative IPC: 0.3889 (Simulation time: 00 hr 09 min 18 sec)
Heartbeat CPU 0 instructions: 50000009 cycles: 128507310 heartbeat IPC: 0.39 cumulative IPC: 0.3891 (Simulation time: 00 hr 11 min 07 sec)
[ERROR_CYCLE] Error added at CPU cycle 141064802, interval 2, pending count: 1
[DRAM_CYCLE_ERROR] Cycle-based error applied! address=0x124db4b48 additional_latency=1990500 cycles
Heartbeat CPU 0 instructions: 60000012 cycles: 154187346 heartbeat IPC: 0.3894 cumulative IPC: 0.3891 (Simulation time: 00 hr 13 min 32 sec)
Heartbeat CPU 0 instructions: 70000012 cycles: 179901682 heartbeat IPC: 0.3889 cumulative IPC: 0.3891 (Simulation time: 00 hr 15 min 18 sec)
Heartbeat CPU 0 instructions: 80000016 cycles: 205676997 heartbeat IPC: 0.388 cumulative IPC: 0.389 (Simulation time: 00 hr 17 min 49 sec)
[ERROR_CYCLE] Error added at CPU cycle 211597203, interval 3, pending count: 1
[DRAM_CYCLE_ERROR] Cycle-based error applied! address=0x73a48ee10 additional_latency=1990500 cycles
Heartbeat CPU 0 instructions: 90000018 cycles: 231339698 heartbeat IPC: 0.3897 cumulative IPC: 0.389 (Simulation time: 00 hr 20 min 26 sec)
Heartbeat CPU 0 instructions: 100000020 cycles: 256951414 heartbeat IPC: 0.3904 cumulative IPC: 0.3892 (Simulation time: 00 hr 23 min 01 sec)
[ERROR_CYCLE] Error added at CPU cycle 282129604, interval 4, pending count: 1
[DRAM_CYCLE_ERROR] Cycle-based error applied! address=0x996353c8 additional_latency=1990500 cycles
Heartbeat CPU 0 instructions: 110000020 cycles: 282660888 heartbeat IPC: 0.389 cumulative IPC: 0.3892 (Simulation time: 00 hr 24 min 57 sec)
Heartbeat CPU 0 instructions: 120000024 cycles: 308358913 heartbeat IPC: 0.3891 cumulative IPC: 0.3892 (Simulation time: 00 hr 27 min 14 sec)
Heartbeat CPU 0 instructions: 130000024 cycles: 334067418 heartbeat IPC: 0.389 cumulative IPC: 0.3891 (Simulation time: 00 hr 29 min 41 sec)
[ERROR_CYCLE] Error added at CPU cycle 352662006, interval 5, pending count: 1
[DRAM_CYCLE_ERROR] Cycle-based error applied! address=0x636454f00 additional_latency=1990500 cycles
Heartbeat CPU 0 instructions: 140000027 cycles: 359686140 heartbeat IPC: 0.3903 cumulative IPC: 0.3892 (Simulation time: 00 hr 31 min 48 sec)
Heartbeat CPU 0 instructions: 150000029 cycles: 385298405 heartbeat IPC: 0.3904 cumulative IPC: 0.3893 (Simulation time: 00 hr 34 min 21 sec)
Heartbeat CPU 0 instructions: 160000031 cycles: 411002863 heartbeat IPC: 0.389 cumulative IPC: 0.3893 (Simulation time: 00 hr 36 min 34 sec)
[ERROR_CYCLE] Error added at CPU cycle 423194407, interval 6, pending count: 1
[DRAM_CYCLE_ERROR] Cycle-based error applied! address=0x30a890800 additional_latency=1990500 cycles
Heartbeat CPU 0 instructions: 170000034 cycles: 436650757 heartbeat IPC: 0.3899 cumulative IPC: 0.3893 (Simulation time: 00 hr 38 min 48 sec)
Heartbeat CPU 0 instructions: 180000036 cycles: 462288973 heartbeat IPC: 0.39 cumulative IPC: 0.3894 (Simulation time: 00 hr 41 min 19 sec)
Heartbeat CPU 0 instructions: 190000039 cycles: 488032391 heartbeat IPC: 0.3884 cumulative IPC: 0.3893 (Simulation time: 00 hr 43 min 55 sec)
[ERROR_CYCLE] Error added at CPU cycle 493726807, interval 7, pending count: 1
[DRAM_CYCLE_ERROR] Cycle-based error applied! address=0xcae973e0 additional_latency=1990500 cycles
Heartbeat CPU 0 instructions: 200000040 cycles: 513646860 heartbeat IPC: 0.3904 cumulative IPC: 0.3894 (Simulation time: 00 hr 46 min 14 sec)
Heartbeat CPU 0 instructions: 210000042 cycles: 539266175 heartbeat IPC: 0.3903 cumulative IPC: 0.3894 (Simulation time: 00 hr 48 min 16 sec)
[ERROR_CYCLE] Error added at CPU cycle 564259208, interval 8, pending count: 1
[DRAM_CYCLE_ERROR] Cycle-based error applied! address=0x680af5fc8 additional_latency=1990500 cycles
Heartbeat CPU 0 instructions: 220000045 cycles: 564974096 heartbeat IPC: 0.389 cumulative IPC: 0.3894 (Simulation time: 00 hr 50 min 11 sec)
Heartbeat CPU 0 instructions: 230000046 cycles: 590641795 heartbeat IPC: 0.3896 cumulative IPC: 0.3894 (Simulation time: 00 hr 52 min 47 sec)
Heartbeat CPU 0 instructions: 240000047 cycles: 616316558 heartbeat IPC: 0.3895 cumulative IPC: 0.3894 (Simulation time: 00 hr 55 min 24 sec)
[ERROR_CYCLE] Error added at CPU cycle 634791609, interval 9, pending count: 1
[DRAM_CYCLE_ERROR] Cycle-based error applied! address=0x79e74f550 additional_latency=1990500 cycles
Heartbeat CPU 0 instructions: 250000047 cycles: 641952672 heartbeat IPC: 0.3901 cumulative IPC: 0.3894 (Simulation time: 00 hr 57 min 32 sec)
Heartbeat CPU 0 instructions: 260000051 cycles: 667641417 heartbeat IPC: 0.3893 cumulative IPC: 0.3894 (Simulation time: 01 hr 00 min 10 sec)
Heartbeat CPU 0 instructions: 270000051 cycles: 693330338 heartbeat IPC: 0.3893 cumulative IPC: 0.3894 (Simulation time: 01 hr 02 min 38 sec)
[ERROR_CYCLE] Error added at CPU cycle 705324011, interval 10, pending count: 1
[DRAM_CYCLE_ERROR] Cycle-based error applied! address=0x60cf8fc90 additional_latency=1990500 cycles
Heartbeat CPU 0 instructions: 280000052 cycles: 718988491 heartbeat IPC: 0.3897 cumulative IPC: 0.3894 (Simulation time: 01 hr 04 min 56 sec)
Heartbeat CPU 0 instructions: 290000052 cycles: 744627262 heartbeat IPC: 0.39 cumulative IPC: 0.3895 (Simulation time: 01 hr 07 min 22 sec)
Heartbeat CPU 0 instructions: 300000056 cycles: 770261236 heartbeat IPC: 0.3901 cumulative IPC: 0.3895 (Simulation time: 01 hr 09 min 58 sec)
[ERROR_CYCLE] Error added at CPU cycle 775856412, interval 11, pending count: 1
[DRAM_CYCLE_ERROR] Cycle-based error applied! address=0x7a1f39290 additional_latency=1990500 cycles
Heartbeat CPU 0 instructions: 310000056 cycles: 795916559 heartbeat IPC: 0.3898 cumulative IPC: 0.3895 (Simulation time: 01 hr 12 min 34 sec)
Heartbeat CPU 0 instructions: 320000059 cycles: 821574749 heartbeat IPC: 0.3897 cumulative IPC: 0.3895 (Simulation time: 01 hr 15 min 10 sec)
[ERROR_CYCLE] Error added at CPU cycle 846388812, interval 12, pending count: 1
[DRAM_CYCLE_ERROR] Cycle-based error applied! address=0x1f42c7448 additional_latency=1990500 cycles
Heartbeat CPU 0 instructions: 330000059 cycles: 847224479 heartbeat IPC: 0.3899 cumulative IPC: 0.3895 (Simulation time: 01 hr 17 min 45 sec)
Heartbeat CPU 0 instructions: 340000061 cycles: 872899198 heartbeat IPC: 0.3895 cumulative IPC: 0.3895 (Simulation time: 01 hr 20 min 17 sec)
Heartbeat CPU 0 instructions: 350000063 cycles: 898533152 heartbeat IPC: 0.3901 cumulative IPC: 0.3895 (Simulation time: 01 hr 22 min 10 sec)
[ERROR_CYCLE] Error added at CPU cycle 916921213, interval 13, pending count: 1
[DRAM_CYCLE_ERROR] Cycle-based error applied! address=0x17ceffac0 additional_latency=1990500 cycles
Heartbeat CPU 0 instructions: 360000064 cycles: 924165589 heartbeat IPC: 0.3901 cumulative IPC: 0.3895 (Simulation time: 01 hr 23 min 57 sec)
Heartbeat CPU 0 instructions: 370000067 cycles: 949776839 heartbeat IPC: 0.3905 cumulative IPC: 0.3896 (Simulation time: 01 hr 25 min 51 sec)
Heartbeat CPU 0 instructions: 380000068 cycles: 975472075 heartbeat IPC: 0.3892 cumulative IPC: 0.3896 (Simulation time: 01 hr 28 min 24 sec)
[ERROR_CYCLE] Error added at CPU cycle 987453615, interval 14, pending count: 1
[DRAM_CYCLE_ERROR] Cycle-based error applied! address=0x54aff0c0 additional_latency=1990500 cycles
Heartbeat CPU 0 instructions: 390000071 cycles: 1001167588 heartbeat IPC: 0.3892 cumulative IPC: 0.3895 (Simulation time: 01 hr 30 min 57 sec)
Heartbeat CPU 0 instructions: 400000074 cycles: 1026856509 heartbeat IPC: 0.3893 cumulative IPC: 0.3895 (Simulation time: 01 hr 33 min 29 sec)
Heartbeat CPU 0 instructions: 410000076 cycles: 1052540625 heartbeat IPC: 0.3893 cumulative IPC: 0.3895 (Simulation time: 01 hr 36 min 02 sec)
[ERROR_CYCLE] Error added at CPU cycle 1057986016, interval 15, pending count: 1
[DRAM_CYCLE_ERROR] Cycle-based error applied! address=0x74e445260 additional_latency=1990500 cycles
Heartbeat CPU 0 instructions: 420000076 cycles: 1078210197 heartbeat IPC: 0.3896 cumulative IPC: 0.3895 (Simulation time: 01 hr 38 min 37 sec)
Heartbeat CPU 0 instructions: 430000076 cycles: 1103837736 heartbeat IPC: 0.3902 cumulative IPC: 0.3896 (Simulation time: 01 hr 40 min 43 sec)
[ERROR_CYCLE] Error added at CPU cycle 1128518416, interval 16, pending count: 1
[DRAM_CYCLE_ERROR] Cycle-based error applied! address=0x2f840ea80 additional_latency=1990500 cycles
Heartbeat CPU 0 instructions: 440000080 cycles: 1129493889 heartbeat IPC: 0.3898 cumulative IPC: 0.3896 (Simulation time: 01 hr 42 min 44 sec)
Heartbeat CPU 0 instructions: 450000081 cycles: 1155135503 heartbeat IPC: 0.39 cumulative IPC: 0.3896 (Simulation time: 01 hr 44 min 41 sec)
Heartbeat CPU 0 instructions: 460000083 cycles: 1180717932 heartbeat IPC: 0.3909 cumulative IPC: 0.3896 (Simulation time: 01 hr 46 min 35 sec)
[ERROR_CYCLE] Error added at CPU cycle 1199050817, interval 17, pending count: 1
[DRAM_CYCLE_ERROR] Cycle-based error applied! address=0x477117558 additional_latency=1990500 cycles
Heartbeat CPU 0 instructions: 470000085 cycles: 1206289414 heartbeat IPC: 0.3911 cumulative IPC: 0.3896 (Simulation time: 01 hr 49 min 05 sec)
Heartbeat CPU 0 instructions: 480000086 cycles: 1231871264 heartbeat IPC: 0.3909 cumulative IPC: 0.3897 (Simulation time: 01 hr 51 min 26 sec)
Heartbeat CPU 0 instructions: 490000086 cycles: 1257436889 heartbeat IPC: 0.3912 cumulative IPC: 0.3897 (Simulation time: 01 hr 53 min 29 sec)
[ERROR_CYCLE] Error added at CPU cycle 1269583218, interval 18, pending count: 1
[DRAM_CYCLE_ERROR] Cycle-based error applied! address=0x6d6bb9080 additional_latency=1990500 cycles
Heartbeat CPU 0 instructions: 500000086 cycles: 1283114433 heartbeat IPC: 0.3894 cumulative IPC: 0.3897 (Simulation time: 01 hr 55 min 27 sec)
Heartbeat CPU 0 instructions: 510000087 cycles: 1308732351 heartbeat IPC: 0.3904 cumulative IPC: 0.3897 (Simulation time: 01 hr 57 min 53 sec)
Heartbeat CPU 0 instructions: 520000087 cycles: 1334322824 heartbeat IPC: 0.3908 cumulative IPC: 0.3897 (Simulation time: 02 hr 00 min 29 sec)
[ERROR_CYCLE] Error added at CPU cycle 1340115620, interval 19, pending count: 1
[DRAM_CYCLE_ERROR] Cycle-based error applied! address=0x29f100cd0 additional_latency=1990500 cycles
Heartbeat CPU 0 instructions: 530000091 cycles: 1359937827 heartbeat IPC: 0.3904 cumulative IPC: 0.3897 (Simulation time: 02 hr 03 min 05 sec)
Heartbeat CPU 0 instructions: 540000093 cycles: 1385629258 heartbeat IPC: 0.3892 cumulative IPC: 0.3897 (Simulation time: 02 hr 05 min 27 sec)
[ERROR_CYCLE] Error added at CPU cycle 1410648021, interval 20, pending count: 1
[DRAM_CYCLE_ERROR] Cycle-based error applied! address=0x12c182a08 additional_latency=1990500 cycles
Heartbeat CPU 0 instructions: 550000093 cycles: 1411242048 heartbeat IPC: 0.3904 cumulative IPC: 0.3897 (Simulation time: 02 hr 07 min 44 sec)
Heartbeat CPU 0 instructions: 560000095 cycles: 1436882944 heartbeat IPC: 0.39 cumulative IPC: 0.3897 (Simulation time: 02 hr 10 min 18 sec)
Heartbeat CPU 0 instructions: 570000095 cycles: 1462516037 heartbeat IPC: 0.3901 cumulative IPC: 0.3897 (Simulation time: 02 hr 12 min 50 sec)
[ERROR_CYCLE] Error added at CPU cycle 1481180421, interval 21, pending count: 1
[DRAM_CYCLE_ERROR] Cycle-based error applied! address=0x1d902e280 additional_latency=1990500 cycles
Heartbeat CPU 0 instructions: 580000099 cycles: 1488172521 heartbeat IPC: 0.3898 cumulative IPC: 0.3897 (Simulation time: 02 hr 15 min 23 sec)
Heartbeat CPU 0 instructions: 590000102 cycles: 1513815838 heartbeat IPC: 0.39 cumulative IPC: 0.3897 (Simulation time: 02 hr 17 min 57 sec)
Heartbeat CPU 0 instructions: 600000104 cycles: 1539498148 heartbeat IPC: 0.3894 cumulative IPC: 0.3897 (Simulation time: 02 hr 20 min 29 sec)
[ERROR_CYCLE] Error added at CPU cycle 1551712822, interval 22, pending count: 1
[DRAM_CYCLE_ERROR] Cycle-based error applied! address=0x22a836000 additional_latency=1990500 cycles
Heartbeat CPU 0 instructions: 610000105 cycles: 1565201492 heartbeat IPC: 0.3891 cumulative IPC: 0.3897 (Simulation time: 02 hr 23 min 03 sec)
Heartbeat CPU 0 instructions: 620000107 cycles: 1592841767 heartbeat IPC: 0.3618 cumulative IPC: 0.3892 (Simulation time: 02 hr 25 min 46 sec)
Heartbeat CPU 0 instructions: 630000107 cycles: 1619271529 heartbeat IPC: 0.3784 cumulative IPC: 0.3891 (Simulation time: 02 hr 28 min 20 sec)
[ERROR_CYCLE] Error added at CPU cycle 1622245223, interval 23, pending count: 1
[DRAM_CYCLE_ERROR] Cycle-based error applied! address=0x403d4ec40 additional_latency=1990500 cycles
Heartbeat CPU 0 instructions: 640000107 cycles: 1645259058 heartbeat IPC: 0.3848 cumulative IPC: 0.389 (Simulation time: 02 hr 30 min 38 sec)
Heartbeat CPU 0 instructions: 650000107 cycles: 1671453999 heartbeat IPC: 0.3818 cumulative IPC: 0.3889 (Simulation time: 02 hr 32 min 55 sec)
[ERROR_CYCLE] Error added at CPU cycle 1692777625, interval 24, pending count: 1
[DRAM_CYCLE_ERROR] Cycle-based error applied! address=0x3c4c313a0 additional_latency=1990500 cycles
Heartbeat CPU 0 instructions: 660000108 cycles: 1697222220 heartbeat IPC: 0.3881 cumulative IPC: 0.3889 (Simulation time: 02 hr 34 min 56 sec)
Heartbeat CPU 0 instructions: 670000109 cycles: 1722915737 heartbeat IPC: 0.3892 cumulative IPC: 0.3889 (Simulation time: 02 hr 36 min 58 sec)
Heartbeat CPU 0 instructions: 680000110 cycles: 1748553774 heartbeat IPC: 0.39 cumulative IPC: 0.3889 (Simulation time: 02 hr 39 min 30 sec)
[ERROR_CYCLE] Error added at CPU cycle 1763310025, interval 25, pending count: 1
[DRAM_CYCLE_ERROR] Cycle-based error applied! address=0x1478c1aa0 additional_latency=1990500 cycles
Heartbeat CPU 0 instructions: 690000111 cycles: 1774118387 heartbeat IPC: 0.3912 cumulative IPC: 0.3889 (Simulation time: 02 hr 42 min 05 sec)
Heartbeat CPU 0 instructions: 700000115 cycles: 1799666846 heartbeat IPC: 0.3914 cumulative IPC: 0.389 (Simulation time: 02 hr 44 min 30 sec)
Heartbeat CPU 0 instructions: 710000116 cycles: 1825233531 heartbeat IPC: 0.3911 cumulative IPC: 0.389 (Simulation time: 02 hr 46 min 21 sec)
[ERROR_CYCLE] Error added at CPU cycle 1833842426, interval 26, pending count: 1
[DRAM_CYCLE_ERROR] Cycle-based error applied! address=0x4668e8588 additional_latency=1990500 cycles
Heartbeat CPU 0 instructions: 720000117 cycles: 1850791759 heartbeat IPC: 0.3913 cumulative IPC: 0.389 (Simulation time: 02 hr 48 min 27 sec)
Heartbeat CPU 0 instructions: 730000120 cycles: 1876395732 heartbeat IPC: 0.3906 cumulative IPC: 0.389 (Simulation time: 02 hr 50 min 17 sec)
Heartbeat CPU 0 instructions: 740000121 cycles: 1902066155 heartbeat IPC: 0.3896 cumulative IPC: 0.3891 (Simulation time: 02 hr 52 min 26 sec)
[ERROR_CYCLE] Error added at CPU cycle 1904374827, interval 27, pending count: 1
[DRAM_CYCLE_ERROR] Cycle-based error applied! address=0x26a284140 additional_latency=1990500 cycles
Heartbeat CPU 0 instructions: 750000122 cycles: 1927721696 heartbeat IPC: 0.3898 cumulative IPC: 0.3891 (Simulation time: 02 hr 54 min 25 sec)
Heartbeat CPU 0 instructions: 760000122 cycles: 1953380859 heartbeat IPC: 0.3897 cumulative IPC: 0.3891 (Simulation time: 02 hr 57 min 03 sec)
[ERROR_CYCLE] Error added at CPU cycle 1974907229, interval 28, pending count: 1
[DRAM_CYCLE_ERROR] Cycle-based error applied! address=0x225fbb9d0 additional_latency=1990500 cycles
Heartbeat CPU 0 instructions: 770000122 cycles: 1979013252 heartbeat IPC: 0.3901 cumulative IPC: 0.3891 (Simulation time: 02 hr 59 min 17 sec)
Heartbeat CPU 0 instructions: 780000124 cycles: 2004633213 heartbeat IPC: 0.3903 cumulative IPC: 0.3891 (Simulation time: 03 hr 01 min 30 sec)
Heartbeat CPU 0 instructions: 790000127 cycles: 2030199215 heartbeat IPC: 0.3911 cumulative IPC: 0.3891 (Simulation time: 03 hr 03 min 43 sec)
[ERROR_CYCLE] Error added at CPU cycle 2045439630, interval 29, pending count: 1
[DRAM_CYCLE_ERROR] Cycle-based error applied! address=0x404d66588 additional_latency=1990500 cycles
Heartbeat CPU 0 instructions: 800000128 cycles: 2055867673 heartbeat IPC: 0.3896 cumulative IPC: 0.3891 (Simulation time: 03 hr 06 min 06 sec)
Heartbeat CPU 0 instructions: 810000128 cycles: 2081492687 heartbeat IPC: 0.3902 cumulative IPC: 0.3891 (Simulation time: 03 hr 08 min 19 sec)
Heartbeat CPU 0 instructions: 820000128 cycles: 2107136236 heartbeat IPC: 0.39 cumulative IPC: 0.3892 (Simulation time: 03 hr 10 min 52 sec)
[ERROR_CYCLE] Error added at CPU cycle 2115972030, interval 30, pending count: 1
[DRAM_CYCLE_ERROR] Cycle-based error applied! address=0x1805f2210 additional_latency=1990500 cycles
Heartbeat CPU 0 instructions: 830000128 cycles: 2132762693 heartbeat IPC: 0.3902 cumulative IPC: 0.3892 (Simulation time: 03 hr 13 min 25 sec)
Heartbeat CPU 0 instructions: 840000128 cycles: 2158404071 heartbeat IPC: 0.39 cumulative IPC: 0.3892 (Simulation time: 03 hr 15 min 58 sec)
Heartbeat CPU 0 instructions: 850000131 cycles: 2184035980 heartbeat IPC: 0.3901 cumulative IPC: 0.3892 (Simulation time: 03 hr 18 min 31 sec)
[ERROR_CYCLE] Error added at CPU cycle 2186504431, interval 31, pending count: 1
[DRAM_CYCLE_ERROR] Cycle-based error applied! address=0x3cd55edd0 additional_latency=1990500 cycles
Heartbeat CPU 0 instructions: 860000134 cycles: 2209592570 heartbeat IPC: 0.3913 cumulative IPC: 0.3892 (Simulation time: 03 hr 21 min 04 sec)
Heartbeat CPU 0 instructions: 870000134 cycles: 2235162506 heartbeat IPC: 0.3911 cumulative IPC: 0.3892 (Simulation time: 03 hr 23 min 10 sec)
[ERROR_CYCLE] Error added at CPU cycle 2257036832, interval 32, pending count: 1
[DRAM_CYCLE_ERROR] Cycle-based error applied! address=0x408b8f390 additional_latency=1990500 cycles
Heartbeat CPU 0 instructions: 880000136 cycles: 2260721682 heartbeat IPC: 0.3912 cumulative IPC: 0.3893 (Simulation time: 03 hr 25 min 38 sec)
Heartbeat CPU 0 instructions: 890000137 cycles: 2286324587 heartbeat IPC: 0.3906 cumulative IPC: 0.3893 (Simulation time: 03 hr 28 min 15 sec)
Heartbeat CPU 0 instructions: 900000137 cycles: 2311914031 heartbeat IPC: 0.3908 cumulative IPC: 0.3893 (Simulation time: 03 hr 30 min 52 sec)
[ERROR_CYCLE] Error added at CPU cycle 2327569234, interval 33, pending count: 1
[DRAM_CYCLE_ERROR] Cycle-based error applied! address=0x4bede6340 additional_latency=1990500 cycles
Heartbeat CPU 0 instructions: 910000140 cycles: 2337509237 heartbeat IPC: 0.3907 cumulative IPC: 0.3893 (Simulation time: 03 hr 33 min 08 sec)
Heartbeat CPU 0 instructions: 920000140 cycles: 2363074636 heartbeat IPC: 0.3912 cumulative IPC: 0.3893 (Simulation time: 03 hr 35 min 24 sec)
Heartbeat CPU 0 instructions: 930000140 cycles: 2388639308 heartbeat IPC: 0.3912 cumulative IPC: 0.3893 (Simulation time: 03 hr 37 min 52 sec)
[ERROR_CYCLE] Error added at CPU cycle 2398101635, interval 34, pending count: 1
[DRAM_CYCLE_ERROR] Cycle-based error applied! address=0x6ec9b5008 additional_latency=1990500 cycles
Heartbeat CPU 0 instructions: 940000144 cycles: 2414228989 heartbeat IPC: 0.3908 cumulative IPC: 0.3894 (Simulation time: 03 hr 40 min 09 sec)
Heartbeat CPU 0 instructions: 950000147 cycles: 2439799596 heartbeat IPC: 0.3911 cumulative IPC: 0.3894 (Simulation time: 03 hr 42 min 14 sec)
Heartbeat CPU 0 instructions: 960000147 cycles: 2465365664 heartbeat IPC: 0.3911 cumulative IPC: 0.3894 (Simulation time: 03 hr 44 min 23 sec)
[ERROR_CYCLE] Error added at CPU cycle 2468634035, interval 35, pending count: 1
[DRAM_CYCLE_ERROR] Cycle-based error applied! address=0x376b6c398 additional_latency=1990500 cycles
Heartbeat CPU 0 instructions: 970000149 cycles: 2490930122 heartbeat IPC: 0.3912 cumulative IPC: 0.3894 (Simulation time: 03 hr 46 min 09 sec)
Heartbeat CPU 0 instructions: 980000150 cycles: 2516492595 heartbeat IPC: 0.3912 cumulative IPC: 0.3894 (Simulation time: 03 hr 48 min 07 sec)
[ERROR_CYCLE] Error added at CPU cycle 2539166436, interval 36, pending count: 1
[DRAM_CYCLE_ERROR] Cycle-based error applied! address=0x3d845bd50 additional_latency=1990500 cycles
Heartbeat CPU 0 instructions: 990000150 cycles: 2542044905 heartbeat IPC: 0.3914 cumulative IPC: 0.3895 (Simulation time: 03 hr 50 min 00 sec)
Heartbeat CPU 0 instructions: 1000000152 cycles: 2567633113 heartbeat IPC: 0.3908 cumulative IPC: 0.3895 (Simulation time: 03 hr 52 min 20 sec)
Heartbeat CPU 0 instructions: 1010000153 cycles: 2593187743 heartbeat IPC: 0.3913 cumulative IPC: 0.3895 (Simulation time: 03 hr 54 min 53 sec)
[ERROR_CYCLE] Error added at CPU cycle 2609698838, interval 37, pending count: 1
[DRAM_CYCLE_ERROR] Cycle-based error applied! address=0x4290c6918 additional_latency=1990500 cycles
Heartbeat CPU 0 instructions: 1020000155 cycles: 2618738314 heartbeat IPC: 0.3914 cumulative IPC: 0.3895 (Simulation time: 03 hr 57 min 23 sec)
Heartbeat CPU 0 instructions: 1030000155 cycles: 2644304636 heartbeat IPC: 0.3911 cumulative IPC: 0.3895 (Simulation time: 04 hr 00 min 00 sec)
Heartbeat CPU 0 instructions: 1040000157 cycles: 2669873393 heartbeat IPC: 0.3911 cumulative IPC: 0.3895 (Simulation time: 04 hr 02 min 36 sec)
[ERROR_CYCLE] Error added at CPU cycle 2680231239, interval 38, pending count: 1
[DRAM_CYCLE_ERROR] Cycle-based error applied! address=0x57cb0e608 additional_latency=1990500 cycles
Heartbeat CPU 0 instructions: 1050000160 cycles: 2695430779 heartbeat IPC: 0.3913 cumulative IPC: 0.3895 (Simulation time: 04 hr 05 min 14 sec)
Heartbeat CPU 0 instructions: 1060000161 cycles: 2721008667 heartbeat IPC: 0.391 cumulative IPC: 0.3896 (Simulation time: 04 hr 07 min 50 sec)
Heartbeat CPU 0 instructions: 1070000162 cycles: 2746570577 heartbeat IPC: 0.3912 cumulative IPC: 0.3896 (Simulation time: 04 hr 10 min 27 sec)
[ERROR_CYCLE] Error added at CPU cycle 2750763639, interval 39, pending count: 1
[DRAM_CYCLE_ERROR] Cycle-based error applied! address=0x1cddca040 additional_latency=1990500 cycles
Heartbeat CPU 0 instructions: 1080000163 cycles: 2772156493 heartbeat IPC: 0.3908 cumulative IPC: 0.3896 (Simulation time: 04 hr 13 min 02 sec)
Heartbeat CPU 0 instructions: 1090000163 cycles: 2797722182 heartbeat IPC: 0.3911 cumulative IPC: 0.3896 (Simulation time: 04 hr 15 min 00 sec)
[ERROR_CYCLE] Error added at CPU cycle 2821296040, interval 40, pending count: 1
[DRAM_CYCLE_ERROR] Cycle-based error applied! address=0x414134fd8 additional_latency=1990500 cycles
Heartbeat CPU 0 instructions: 1100000164 cycles: 2823341481 heartbeat IPC: 0.3903 cumulative IPC: 0.3896 (Simulation time: 04 hr 17 min 09 sec)
Heartbeat CPU 0 instructions: 1110000164 cycles: 2848928933 heartbeat IPC: 0.3908 cumulative IPC: 0.3896 (Simulation time: 04 hr 19 min 03 sec)
Heartbeat CPU 0 instructions: 1120000166 cycles: 2874495003 heartbeat IPC: 0.3911 cumulative IPC: 0.3896 (Simulation time: 04 hr 21 min 32 sec)
[ERROR_CYCLE] Error added at CPU cycle 2891828441, interval 41, pending count: 1
[DRAM_CYCLE_ERROR] Cycle-based error applied! address=0x3196bee08 additional_latency=1990500 cycles
Heartbeat CPU 0 instructions: 1130000166 cycles: 2900067470 heartbeat IPC: 0.391 cumulative IPC: 0.3896 (Simulation time: 04 hr 24 min 00 sec)
Heartbeat CPU 0 instructions: 1140000169 cycles: 2925621671 heartbeat IPC: 0.3913 cumulative IPC: 0.3897 (Simulation time: 04 hr 26 min 30 sec)
Heartbeat CPU 0 instructions: 1150000169 cycles: 2951246323 heartbeat IPC: 0.3902 cumulative IPC: 0.3897 (Simulation time: 04 hr 28 min 44 sec)
[ERROR_CYCLE] Error added at CPU cycle 2962360843, interval 42, pending count: 1
[DRAM_CYCLE_ERROR] Cycle-based error applied! address=0x385b96cd0 additional_latency=1990500 cycles
Heartbeat CPU 0 instructions: 1160000171 cycles: 2976834717 heartbeat IPC: 0.3908 cumulative IPC: 0.3897 (Simulation time: 04 hr 31 min 18 sec)
Heartbeat CPU 0 instructions: 1170000172 cycles: 3002187161 heartbeat IPC: 0.3944 cumulative IPC: 0.3897 (Simulation time: 04 hr 32 min 56 sec)
Heartbeat CPU 0 instructions: 1180000173 cycles: 3027707569 heartbeat IPC: 0.3918 cumulative IPC: 0.3897 (Simulation time: 04 hr 34 min 56 sec)
[ERROR_CYCLE] Error added at CPU cycle 3032893244, interval 43, pending count: 1
[DRAM_CYCLE_ERROR] Cycle-based error applied! address=0x36f9f0dc0 additional_latency=1990500 cycles
Heartbeat CPU 0 instructions: 1190000173 cycles: 3053285740 heartbeat IPC: 0.391 cumulative IPC: 0.3897 (Simulation time: 04 hr 37 min 20 sec)
Heartbeat CPU 0 instructions: 1200000173 cycles: 3078824558 heartbeat IPC: 0.3916 cumulative IPC: 0.3898 (Simulation time: 04 hr 39 min 58 sec)
[ERROR_CYCLE] Error added at CPU cycle 3103425644, interval 44, pending count: 1
[DRAM_CYCLE_ERROR] Cycle-based error applied! address=0x8650c1c0 additional_latency=1990500 cycles
Heartbeat CPU 0 instructions: 1210000174 cycles: 3104401150 heartbeat IPC: 0.391 cumulative IPC: 0.3898 (Simulation time: 04 hr 42 min 24 sec)
Heartbeat CPU 0 instructions: 1220000178 cycles: 3129960824 heartbeat IPC: 0.3912 cumulative IPC: 0.3898 (Simulation time: 04 hr 44 min 32 sec)
Heartbeat CPU 0 instructions: 1230000181 cycles: 3155414797 heartbeat IPC: 0.3929 cumulative IPC: 0.3898 (Simulation time: 04 hr 47 min 10 sec)
[ERROR_CYCLE] Error added at CPU cycle 3173958045, interval 45, pending count: 1
[DRAM_CYCLE_ERROR] Cycle-based error applied! address=0x5706fdcc8 additional_latency=1990500 cycles
Heartbeat CPU 0 instructions: 1240000182 cycles: 3180951604 heartbeat IPC: 0.3916 cumulative IPC: 0.3898 (Simulation time: 04 hr 49 min 48 sec)
Heartbeat CPU 0 instructions: 1250000185 cycles: 3206512061 heartbeat IPC: 0.3912 cumulative IPC: 0.3898 (Simulation time: 04 hr 52 min 25 sec)
Heartbeat CPU 0 instructions: 1260000185 cycles: 3231987851 heartbeat IPC: 0.3925 cumulative IPC: 0.3899 (Simulation time: 04 hr 54 min 28 sec)
[ERROR_CYCLE] Error added at CPU cycle 3244490446, interval 46, pending count: 1
[DRAM_CYCLE_ERROR] Cycle-based error applied! address=0x394b60dd0 additional_latency=1990500 cycles
Heartbeat CPU 0 instructions: 1270000185 cycles: 3257561168 heartbeat IPC: 0.391 cumulative IPC: 0.3899 (Simulation time: 04 hr 56 min 32 sec)
Heartbeat CPU 0 instructions: 1280000186 cycles: 3283208695 heartbeat IPC: 0.3899 cumulative IPC: 0.3899 (Simulation time: 04 hr 58 min 46 sec)
Heartbeat CPU 0 instructions: 1290000186 cycles: 3308896317 heartbeat IPC: 0.3893 cumulative IPC: 0.3899 (Simulation time: 05 hr 01 min 22 sec)
[ERROR_CYCLE] Error added at CPU cycle 3315022848, interval 47, pending count: 1
[DRAM_CYCLE_ERROR] Cycle-based error applied! address=0x323cc3b18 additional_latency=1990500 cycles
Heartbeat CPU 0 instructions: 1300000190 cycles: 3334507842 heartbeat IPC: 0.3904 cumulative IPC: 0.3899 (Simulation time: 05 hr 03 min 33 sec)
Heartbeat CPU 0 instructions: 1310000190 cycles: 3360185146 heartbeat IPC: 0.3894 cumulative IPC: 0.3899 (Simulation time: 05 hr 05 min 28 sec)
[ERROR_CYCLE] Error added at CPU cycle 3385555249, interval 48, pending count: 1
[DRAM_CYCLE_ERROR] Cycle-based error applied! address=0x788f848a0 additional_latency=1990500 cycles
Heartbeat CPU 0 instructions: 1320000190 cycles: 3385850678 heartbeat IPC: 0.3896 cumulative IPC: 0.3899 (Simulation time: 05 hr 07 min 35 sec)
Heartbeat CPU 0 instructions: 1330000190 cycles: 3411519061 heartbeat IPC: 0.3896 cumulative IPC: 0.3899 (Simulation time: 05 hr 10 min 11 sec)
Heartbeat CPU 0 instructions: 1340000190 cycles: 3437093632 heartbeat IPC: 0.391 cumulative IPC: 0.3899 (Simulation time: 05 hr 12 min 47 sec)
[ERROR_CYCLE] Error added at CPU cycle 3456087649, interval 49, pending count: 1
[DRAM_CYCLE_ERROR] Cycle-based error applied! address=0x38f334800 additional_latency=1990500 cycles
Heartbeat CPU 0 instructions: 1350000192 cycles: 3462641144 heartbeat IPC: 0.3914 cumulative IPC: 0.3899 (Simulation time: 05 hr 15 min 10 sec)
Heartbeat CPU 0 instructions: 1360000193 cycles: 3488178082 heartbeat IPC: 0.3916 cumulative IPC: 0.3899 (Simulation time: 05 hr 16 min 59 sec)
Heartbeat CPU 0 instructions: 1370000194 cycles: 3513775350 heartbeat IPC: 0.3907 cumulative IPC: 0.3899 (Simulation time: 05 hr 18 min 55 sec)
[ERROR_CYCLE] Error added at CPU cycle 3526620050, interval 50, pending count: 1
[DRAM_CYCLE_ERROR] Cycle-based error applied! address=0x2274e9688 additional_latency=1990500 cycles
Heartbeat CPU 0 instructions: 1380000197 cycles: 3539382673 heartbeat IPC: 0.3905 cumulative IPC: 0.3899 (Simulation time: 05 hr 21 min 03 sec)
Heartbeat CPU 0 instructions: 1390000201 cycles: 3564928458 heartbeat IPC: 0.3915 cumulative IPC: 0.3899 (Simulation time: 05 hr 23 min 01 sec)
Heartbeat CPU 0 instructions: 1400000204 cycles: 3590507745 heartbeat IPC: 0.3909 cumulative IPC: 0.3899 (Simulation time: 05 hr 24 min 57 sec)
[ERROR_CYCLE] Error added at CPU cycle 3597152452, interval 51, pending count: 1
[DRAM_CYCLE_ERROR] Cycle-based error applied! address=0xb5c81308 additional_latency=1990500 cycles
Heartbeat CPU 0 instructions: 1410000206 cycles: 3616123800 heartbeat IPC: 0.3904 cumulative IPC: 0.3899 (Simulation time: 05 hr 26 min 45 sec)
Heartbeat CPU 0 instructions: 1420000206 cycles: 3641880989 heartbeat IPC: 0.3882 cumulative IPC: 0.3899 (Simulation time: 05 hr 28 min 35 sec)
[ERROR_CYCLE] Error added at CPU cycle 3667684853, interval 52, pending count: 1
[DRAM_CYCLE_ERROR] Cycle-based error applied! address=0x112010b00 additional_latency=1990500 cycles
Heartbeat CPU 0 instructions: 1430000209 cycles: 3667764381 heartbeat IPC: 0.3863 cumulative IPC: 0.3899 (Simulation time: 05 hr 31 min 12 sec)
Heartbeat CPU 0 instructions: 1440000211 cycles: 3695332738 heartbeat IPC: 0.3627 cumulative IPC: 0.3897 (Simulation time: 05 hr 34 min 03 sec)
Heartbeat CPU 0 instructions: 1450000214 cycles: 3720682050 heartbeat IPC: 0.3945 cumulative IPC: 0.3897 (Simulation time: 05 hr 36 min 37 sec)
[ERROR_CYCLE] Error added at CPU cycle 3738217253, interval 53, pending count: 1
[DRAM_CYCLE_ERROR] Cycle-based error applied! address=0x756cf6de0 additional_latency=1990500 cycles
Heartbeat CPU 0 instructions: 1460000214 cycles: 3746292210 heartbeat IPC: 0.3905 cumulative IPC: 0.3897 (Simulation time: 05 hr 38 min 24 sec)
Heartbeat CPU 0 instructions: 1470000214 cycles: 3771885405 heartbeat IPC: 0.3907 cumulative IPC: 0.3897 (Simulation time: 05 hr 40 min 38 sec)
Heartbeat CPU 0 instructions: 1480000216 cycles: 3797476726 heartbeat IPC: 0.3908 cumulative IPC: 0.3897 (Simulation time: 05 hr 43 min 08 sec)
[ERROR_CYCLE] Error added at CPU cycle 3808749654, interval 54, pending count: 1
[DRAM_CYCLE_ERROR] Cycle-based error applied! address=0x2031f0258 additional_latency=1990500 cycles
Heartbeat CPU 0 instructions: 1490000220 cycles: 3823057236 heartbeat IPC: 0.3909 cumulative IPC: 0.3897 (Simulation time: 05 hr 45 min 24 sec)
Heartbeat CPU 0 instructions: 1500000220 cycles: 3848639088 heartbeat IPC: 0.3909 cumulative IPC: 0.3897 (Simulation time: 05 hr 47 min 21 sec)
Heartbeat CPU 0 instructions: 1510000220 cycles: 3874187414 heartbeat IPC: 0.3914 cumulative IPC: 0.3898 (Simulation time: 05 hr 49 min 33 sec)
[ERROR_CYCLE] Error added at CPU cycle 3879282055, interval 55, pending count: 1
[DRAM_CYCLE_ERROR] Cycle-based error applied! address=0x6e42336d8 additional_latency=1990500 cycles
Heartbeat CPU 0 instructions: 1520000222 cycles: 3899841978 heartbeat IPC: 0.3898 cumulative IPC: 0.3898 (Simulation time: 05 hr 51 min 50 sec)
Heartbeat CPU 0 instructions: 1530000222 cycles: 3925476948 heartbeat IPC: 0.3901 cumulative IPC: 0.3898 (Simulation time: 05 hr 54 min 19 sec)
[ERROR_CYCLE] Error added at CPU cycle 3949814457, interval 56, pending count: 1
[DRAM_CYCLE_ERROR] Cycle-based error applied! address=0x642aedbc8 additional_latency=1990500 cycles
Heartbeat CPU 0 instructions: 1540000223 cycles: 3951006755 heartbeat IPC: 0.3917 cumulative IPC: 0.3898 (Simulation time: 05 hr 56 min 56 sec)
Heartbeat CPU 0 instructions: 1550000223 cycles: 3976385950 heartbeat IPC: 0.394 cumulative IPC: 0.3898 (Simulation time: 05 hr 59 min 31 sec)
Heartbeat CPU 0 instructions: 1560000225 cycles: 4001873570 heartbeat IPC: 0.3923 cumulative IPC: 0.3898 (Simulation time: 06 hr 02 min 06 sec)
[ERROR_CYCLE] Error added at CPU cycle 4020346858, interval 57, pending count: 1
[DRAM_CYCLE_ERROR] Cycle-based error applied! address=0x22ae2e080 additional_latency=1990500 cycles
Heartbeat CPU 0 instructions: 1570000225 cycles: 4027316150 heartbeat IPC: 0.393 cumulative IPC: 0.3898 (Simulation time: 06 hr 04 min 41 sec)
Heartbeat CPU 0 instructions: 1580000227 cycles: 4052796253 heartbeat IPC: 0.3925 cumulative IPC: 0.3899 (Simulation time: 06 hr 07 min 17 sec)
Heartbeat CPU 0 instructions: 1590000231 cycles: 4078265390 heartbeat IPC: 0.3926 cumulative IPC: 0.3899 (Simulation time: 06 hr 09 min 53 sec)
[ERROR_CYCLE] Error added at CPU cycle 4090879258, interval 58, pending count: 1
[DRAM_CYCLE_ERROR] Cycle-based error applied! address=0x790632dc8 additional_latency=1990500 cycles
Heartbeat CPU 0 instructions: 1600000231 cycles: 4103745394 heartbeat IPC: 0.3925 cumulative IPC: 0.3899 (Simulation time: 06 hr 12 min 29 sec)
Heartbeat CPU 0 instructions: 1610000231 cycles: 4129221147 heartbeat IPC: 0.3925 cumulative IPC: 0.3899 (Simulation time: 06 hr 15 min 04 sec)
Heartbeat CPU 0 instructions: 1620000232 cycles: 4154699018 heartbeat IPC: 0.3925 cumulative IPC: 0.3899 (Simulation time: 06 hr 17 min 40 sec)
[ERROR_CYCLE] Error added at CPU cycle 4161411659, interval 59, pending count: 1
[DRAM_CYCLE_ERROR] Cycle-based error applied! address=0xd8649e58 additional_latency=1990500 cycles
Heartbeat CPU 0 instructions: 1630000233 cycles: 4180199046 heartbeat IPC: 0.3922 cumulative IPC: 0.3899 (Simulation time: 06 hr 20 min 16 sec)
Heartbeat CPU 0 instructions: 1640000234 cycles: 4205683128 heartbeat IPC: 0.3924 cumulative IPC: 0.3899 (Simulation time: 06 hr 22 min 51 sec)
Heartbeat CPU 0 instructions: 1650000235 cycles: 4231173106 heartbeat IPC: 0.3923 cumulative IPC: 0.39 (Simulation time: 06 hr 25 min 27 sec)
[ERROR_CYCLE] Error added at CPU cycle 4231944060, interval 60, pending count: 1
[DRAM_CYCLE_ERROR] Cycle-based error applied! address=0x2af40c908 additional_latency=1990500 cycles
Heartbeat CPU 0 instructions: 1660000235 cycles: 4256658255 heartbeat IPC: 0.3924 cumulative IPC: 0.39 (Simulation time: 06 hr 28 min 02 sec)
Heartbeat CPU 0 instructions: 1670000235 cycles: 4282145042 heartbeat IPC: 0.3924 cumulative IPC: 0.39 (Simulation time: 06 hr 30 min 38 sec)
[ERROR_CYCLE] Error added at CPU cycle 4302476462, interval 61, pending count: 1
[DRAM_CYCLE_ERROR] Cycle-based error applied! address=0x67692a0c8 additional_latency=1990500 cycles
Heartbeat CPU 0 instructions: 1680000237 cycles: 4307628271 heartbeat IPC: 0.3924 cumulative IPC: 0.39 (Simulation time: 06 hr 33 min 14 sec)
Heartbeat CPU 0 instructions: 1690000237 cycles: 4333128987 heartbeat IPC: 0.3921 cumulative IPC: 0.39 (Simulation time: 06 hr 35 min 49 sec)
Heartbeat CPU 0 instructions: 1700000241 cycles: 4358606633 heartbeat IPC: 0.3925 cumulative IPC: 0.39 (Simulation time: 06 hr 38 min 25 sec)
[ERROR_CYCLE] Error added at CPU cycle 4373008862, interval 62, pending count: 1
[DRAM_CYCLE_ERROR] Cycle-based error applied! address=0x61206a440 additional_latency=1990500 cycles
Heartbeat CPU 0 instructions: 1710000242 cycles: 4384076489 heartbeat IPC: 0.3926 cumulative IPC: 0.39 (Simulation time: 06 hr 41 min 00 sec)
Heartbeat CPU 0 instructions: 1720000243 cycles: 4409533527 heartbeat IPC: 0.3928 cumulative IPC: 0.3901 (Simulation time: 06 hr 43 min 35 sec)
Heartbeat CPU 0 instructions: 1730000243 cycles: 4435021975 heartbeat IPC: 0.3923 cumulative IPC: 0.3901 (Simulation time: 06 hr 46 min 11 sec)
[ERROR_CYCLE] Error added at CPU cycle 4443541263, interval 63, pending count: 1
[DRAM_CYCLE_ERROR] Cycle-based error applied! address=0x6c9ee6aa0 additional_latency=1990500 cycles
Heartbeat CPU 0 instructions: 1740000246 cycles: 4460512846 heartbeat IPC: 0.3923 cumulative IPC: 0.3901 (Simulation time: 06 hr 48 min 46 sec)
Heartbeat CPU 0 instructions: 1750000247 cycles: 4485988085 heartbeat IPC: 0.3925 cumulative IPC: 0.3901 (Simulation time: 06 hr 51 min 22 sec)
Heartbeat CPU 0 instructions: 1760000248 cycles: 4511475573 heartbeat IPC: 0.3923 cumulative IPC: 0.3901 (Simulation time: 06 hr 53 min 56 sec)
[ERROR_CYCLE] Error added at CPU cycle 4514073664, interval 64, pending count: 1
[DRAM_CYCLE_ERROR] Cycle-based error applied! address=0x19f23a580 additional_latency=1990500 cycles
Heartbeat CPU 0 instructions: 1770000252 cycles: 4536965226 heartbeat IPC: 0.3923 cumulative IPC: 0.3901 (Simulation time: 06 hr 56 min 29 sec)
Heartbeat CPU 0 instructions: 1780000252 cycles: 4562442530 heartbeat IPC: 0.3925 cumulative IPC: 0.3901 (Simulation time: 06 hr 59 min 03 sec)
[ERROR_CYCLE] Error added at CPU cycle 4584606066, interval 65, pending count: 1
[DRAM_CYCLE_ERROR] Cycle-based error applied! address=0x1cb795bd8 additional_latency=1990500 cycles
Heartbeat CPU 0 instructions: 1790000252 cycles: 4587932851 heartbeat IPC: 0.3923 cumulative IPC: 0.3902 (Simulation time: 07 hr 01 min 35 sec)
Heartbeat CPU 0 instructions: 1800000252 cycles: 4613435330 heartbeat IPC: 0.3921 cumulative IPC: 0.3902 (Simulation time: 07 hr 03 min 47 sec)
Heartbeat CPU 0 instructions: 1810000253 cycles: 4638910132 heartbeat IPC: 0.3925 cumulative IPC: 0.3902 (Simulation time: 07 hr 05 min 38 sec)
[ERROR_CYCLE] Error added at CPU cycle 4655138467, interval 66, pending count: 1
[DRAM_CYCLE_ERROR] Cycle-based error applied! address=0x5e2cb54a0 additional_latency=1990500 cycles
Heartbeat CPU 0 instructions: 1820000255 cycles: 4664374280 heartbeat IPC: 0.3927 cumulative IPC: 0.3902 (Simulation time: 07 hr 08 min 13 sec)
Heartbeat CPU 0 instructions: 1830000257 cycles: 4689872944 heartbeat IPC: 0.3922 cumulative IPC: 0.3902 (Simulation time: 07 hr 10 min 48 sec)
Heartbeat CPU 0 instructions: 1840000259 cycles: 4715336071 heartbeat IPC: 0.3927 cumulative IPC: 0.3902 (Simulation time: 07 hr 13 min 24 sec)
[ERROR_CYCLE] Error added at CPU cycle 4725670867, interval 67, pending count: 1
[DRAM_CYCLE_ERROR] Cycle-based error applied! address=0x623e74a08 additional_latency=1990500 cycles
Heartbeat CPU 0 instructions: 1850000259 cycles: 4740819898 heartbeat IPC: 0.3924 cumulative IPC: 0.3902 (Simulation time: 07 hr 15 min 59 sec)
Heartbeat CPU 0 instructions: 1860000262 cycles: 4766301424 heartbeat IPC: 0.3924 cumulative IPC: 0.3902 (Simulation time: 07 hr 18 min 34 sec)
Heartbeat CPU 0 instructions: 1870000263 cycles: 4791782135 heartbeat IPC: 0.3925 cumulative IPC: 0.3903 (Simulation time: 07 hr 21 min 10 sec)
[ERROR_CYCLE] Error added at CPU cycle 4796203268, interval 68, pending count: 1
[DRAM_CYCLE_ERROR] Cycle-based error applied! address=0x21e8ea588 additional_latency=1990500 cycles
Heartbeat CPU 0 instructions: 1880000264 cycles: 4817283284 heartbeat IPC: 0.3921 cumulative IPC: 0.3903 (Simulation time: 07 hr 23 min 42 sec)
Heartbeat CPU 0 instructions: 1890000267 cycles: 4842763216 heartbeat IPC: 0.3925 cumulative IPC: 0.3903 (Simulation time: 07 hr 25 min 55 sec)
[ERROR_CYCLE] Error added at CPU cycle 4866735669, interval 69, pending count: 1
[DRAM_CYCLE_ERROR] Cycle-based error applied! address=0x674557d60 additional_latency=1990500 cycles
Heartbeat CPU 0 instructions: 1900000271 cycles: 4868265141 heartbeat IPC: 0.3921 cumulative IPC: 0.3903 (Simulation time: 07 hr 27 min 42 sec)
Heartbeat CPU 0 instructions: 1910000274 cycles: 4893744929 heartbeat IPC: 0.3925 cumulative IPC: 0.3903 (Simulation time: 07 hr 29 min 21 sec)
Heartbeat CPU 0 instructions: 1920000278 cycles: 4919181086 heartbeat IPC: 0.3931 cumulative IPC: 0.3903 (Simulation time: 07 hr 31 min 00 sec)
[ERROR_CYCLE] Error added at CPU cycle 4937268071, interval 70, pending count: 1
[DRAM_CYCLE_ERROR] Cycle-based error applied! address=0x57280af90 additional_latency=1990500 cycles
Heartbeat CPU 0 instructions: 1930000280 cycles: 4944681056 heartbeat IPC: 0.3922 cumulative IPC: 0.3903 (Simulation time: 07 hr 32 min 43 sec)
Heartbeat CPU 0 instructions: 1940000280 cycles: 4970165480 heartbeat IPC: 0.3924 cumulative IPC: 0.3903 (Simulation time: 07 hr 35 min 15 sec)
Heartbeat CPU 0 instructions: 1950000281 cycles: 4995621652 heartbeat IPC: 0.3928 cumulative IPC: 0.3903 (Simulation time: 07 hr 37 min 50 sec)
[ERROR_CYCLE] Error added at CPU cycle 5007800472, interval 71, pending count: 1
[DRAM_CYCLE_ERROR] Cycle-based error applied! address=0x4c8dc8808 additional_latency=1990500 cycles
Heartbeat CPU 0 instructions: 1960000284 cycles: 5021084319 heartbeat IPC: 0.3927 cumulative IPC: 0.3904 (Simulation time: 07 hr 39 min 38 sec)
Heartbeat CPU 0 instructions: 1970000284 cycles: 5046537769 heartbeat IPC: 0.3929 cumulative IPC: 0.3904 (Simulation time: 07 hr 41 min 34 sec)
Heartbeat CPU 0 instructions: 1980000285 cycles: 5072026225 heartbeat IPC: 0.3923 cumulative IPC: 0.3904 (Simulation time: 07 hr 43 min 47 sec)
[ERROR_CYCLE] Error added at CPU cycle 5078332872, interval 72, pending count: 1
[DRAM_CYCLE_ERROR] Cycle-based error applied! address=0x397d94440 additional_latency=1990500 cycles
Heartbeat CPU 0 instructions: 1990000285 cycles: 5097533976 heartbeat IPC: 0.392 cumulative IPC: 0.3904 (Simulation time: 07 hr 46 min 23 sec)

=== ERROR PAGE STATISTICS ===
Mode: CYCLE
Error Cycle Interval: 70532401 CPU cycles
Total Error Accesses: 72
==============================
Simulation finished CPU 0 instructions: 1999999981 cycles: 5123006493 cumulative IPC: 0.3904 (Simulation time: 07 hr 48 min 59 sec)
Simulation complete CPU 0 instructions: 1999999981 cycles: 5123006493 cumulative IPC: 0.3904 (Simulation time: 07 hr 48 min 59 sec)

ChampSim completed all CPUs

=== Simulation ===
CPU 0 runs test_traces/602.gcc_s-1850B.champsimtrace.xz

Region of Interest Statistics

CPU 0 cumulative IPC: 0.3904 instructions: 1999999981 cycles: 5123006493
CPU 0 Branch Prediction Accuracy: 92.26% MPKI: 19.84 Average ROB Occupancy at Mispredict: 28.45
Branch type MPKI
BRANCH_DIRECT_JUMP: 0.0104
BRANCH_INDIRECT: 0
BRANCH_CONDITIONAL: 19.83
BRANCH_DIRECT_CALL: 8.5e-06
BRANCH_INDIRECT_CALL: 0
BRANCH_RETURN: 7e-06

cpu0->cpu0_STLB TOTAL        ACCESS:      15986 HIT:      12647 MISS:       3339 MSHR_MERGE:          0
cpu0->cpu0_STLB LOAD         ACCESS:      15986 HIT:      12647 MISS:       3339 MSHR_MERGE:          0
cpu0->cpu0_STLB RFO          ACCESS:          0 HIT:          0 MISS:          0 MSHR_MERGE:          0
cpu0->cpu0_STLB PREFETCH     ACCESS:          0 HIT:          0 MISS:          0 MSHR_MERGE:          0
cpu0->cpu0_STLB WRITE        ACCESS:          0 HIT:          0 MISS:          0 MSHR_MERGE:          0
cpu0->cpu0_STLB TRANSLATION  ACCESS:          0 HIT:          0 MISS:          0 MSHR_MERGE:          0
cpu0->cpu0_STLB PREFETCH REQUESTED:          0 ISSUED:          0 USEFUL:          0 USELESS:          0
cpu0->cpu0_STLB AVERAGE MISS LATENCY: 6449 cycles
cpu0->cpu0_L2C TOTAL        ACCESS:   48249156 HIT:   12598006 MISS:   35651150 MSHR_MERGE:          0
cpu0->cpu0_L2C LOAD         ACCESS:   48104278 HIT:   12470011 MISS:   35634267 MSHR_MERGE:          0
cpu0->cpu0_L2C RFO          ACCESS:      16943 HIT:        109 MISS:      16834 MSHR_MERGE:          0
cpu0->cpu0_L2C PREFETCH     ACCESS:          0 HIT:          0 MISS:          0 MSHR_MERGE:          0
cpu0->cpu0_L2C WRITE        ACCESS:     127935 HIT:     127886 MISS:         49 MSHR_MERGE:          0
cpu0->cpu0_L2C TRANSLATION  ACCESS:          0 HIT:          0 MISS:          0 MSHR_MERGE:          0
cpu0->cpu0_L2C PREFETCH REQUESTED:          0 ISSUED:          0 USEFUL:          0 USELESS:          0
cpu0->cpu0_L2C AVERAGE MISS LATENCY: 91.39 cycles
cpu0->cpu0_L1I TOTAL        ACCESS:      78263 HIT:      78203 MISS:         60 MSHR_MERGE:          3
cpu0->cpu0_L1I LOAD         ACCESS:      78263 HIT:      78203 MISS:         60 MSHR_MERGE:          3
cpu0->cpu0_L1I RFO          ACCESS:          0 HIT:          0 MISS:          0 MSHR_MERGE:          0
cpu0->cpu0_L1I PREFETCH     ACCESS:          0 HIT:          0 MISS:          0 MSHR_MERGE:          0
cpu0->cpu0_L1I WRITE        ACCESS:          0 HIT:          0 MISS:          0 MSHR_MERGE:          0
cpu0->cpu0_L1I TRANSLATION  ACCESS:          0 HIT:          0 MISS:          0 MSHR_MERGE:          0
cpu0->cpu0_L1I PREFETCH REQUESTED:          0 ISSUED:          0 USEFUL:          0 USELESS:          0
cpu0->cpu0_L1I AVERAGE MISS LATENCY: 107.9 cycles
cpu0->cpu0_L1D TOTAL        ACCESS:  605689816 HIT:  522317676 MISS:   83372140 MSHR_MERGE:   35250976
cpu0->cpu0_L1D LOAD         ACCESS:  433067260 HIT:  349712510 MISS:   83354750 MSHR_MERGE:   35250529
cpu0->cpu0_L1D RFO          ACCESS:          0 HIT:          0 MISS:          0 MSHR_MERGE:          0
cpu0->cpu0_L1D PREFETCH     ACCESS:          0 HIT:          0 MISS:          0 MSHR_MERGE:          0
cpu0->cpu0_L1D WRITE        ACCESS:  172622556 HIT:  172605166 MISS:      17390 MSHR_MERGE:        447
cpu0->cpu0_L1D TRANSLATION  ACCESS:          0 HIT:          0 MISS:          0 MSHR_MERGE:          0
cpu0->cpu0_L1D PREFETCH REQUESTED:          0 ISSUED:          0 USEFUL:          0 USELESS:          0
cpu0->cpu0_L1D AVERAGE MISS LATENCY: 76.45 cycles
cpu0->cpu0_ITLB TOTAL        ACCESS:      73592 HIT:      73589 MISS:          3 MSHR_MERGE:          1
cpu0->cpu0_ITLB LOAD         ACCESS:      73592 HIT:      73589 MISS:          3 MSHR_MERGE:          1
cpu0->cpu0_ITLB RFO          ACCESS:          0 HIT:          0 MISS:          0 MSHR_MERGE:          0
cpu0->cpu0_ITLB PREFETCH     ACCESS:          0 HIT:          0 MISS:          0 MSHR_MERGE:          0
cpu0->cpu0_ITLB WRITE        ACCESS:          0 HIT:          0 MISS:          0 MSHR_MERGE:          0
cpu0->cpu0_ITLB TRANSLATION  ACCESS:          0 HIT:          0 MISS:          0 MSHR_MERGE:          0
cpu0->cpu0_ITLB PREFETCH REQUESTED:          0 ISSUED:          0 USEFUL:          0 USELESS:          0
cpu0->cpu0_ITLB AVERAGE MISS LATENCY: 1.293e+04 cycles
cpu0->cpu0_DTLB TOTAL        ACCESS:  551964283 HIT:  551939585 MISS:      24698 MSHR_MERGE:       8714
cpu0->cpu0_DTLB LOAD         ACCESS:  551964283 HIT:  551939585 MISS:      24698 MSHR_MERGE:       8714
cpu0->cpu0_DTLB RFO          ACCESS:          0 HIT:          0 MISS:          0 MSHR_MERGE:          0
cpu0->cpu0_DTLB PREFETCH     ACCESS:          0 HIT:          0 MISS:          0 MSHR_MERGE:          0
cpu0->cpu0_DTLB WRITE        ACCESS:          0 HIT:          0 MISS:          0 MSHR_MERGE:          0
cpu0->cpu0_DTLB TRANSLATION  ACCESS:          0 HIT:          0 MISS:          0 MSHR_MERGE:          0
cpu0->cpu0_DTLB PREFETCH REQUESTED:          0 ISSUED:          0 USEFUL:          0 USELESS:          0
cpu0->cpu0_DTLB AVERAGE MISS LATENCY: 1351 cycles
cpu0->LLC TOTAL        ACCESS:   35701266 HIT:     113972 MISS:   35587294 MSHR_MERGE:          0
cpu0->LLC LOAD         ACCESS:   35634267 HIT:      63993 MISS:   35570274 MSHR_MERGE:          0
cpu0->LLC RFO          ACCESS:      16834 HIT:         95 MISS:      16739 MSHR_MERGE:          0
cpu0->LLC PREFETCH     ACCESS:          0 HIT:          0 MISS:          0 MSHR_MERGE:          0
cpu0->LLC WRITE        ACCESS:      50165 HIT:      49884 MISS:        281 MSHR_MERGE:          0
cpu0->LLC TRANSLATION  ACCESS:          0 HIT:          0 MISS:          0 MSHR_MERGE:          0
cpu0->LLC PREFETCH REQUESTED:          0 ISSUED:          0 USEFUL:          0 USELESS:          0
cpu0->LLC AVERAGE MISS LATENCY: 75.53 cycles

DRAM Statistics

Channel 0 RQ ROW_BUFFER_HIT:    3612047
  ROW_BUFFER_MISS:   14185571
  AVG DBUS CONGESTED CYCLE: 13.86
Channel 0 WQ ROW_BUFFER_HIT:       3412
  ROW_BUFFER_MISS:      21774
  FULL:          0
Channel 0 REFRESHES ISSUED:     426889

Channel 1 RQ ROW_BUFFER_HIT:    3612410
  ROW_BUFFER_MISS:   14183674
  AVG DBUS CONGESTED CYCLE: 13.8
Channel 1 WQ ROW_BUFFER_HIT:       3321
  ROW_BUFFER_MISS:      21576
  FULL:          0
Channel 1 REFRESHES ISSUED:     426889
