
*** ChampSim Multicore Out-of-Order Simulator ***
Warmup Instructions: 0
Simulation Instructions: 9223372036854775807
Number of CPUs: 1
Page size: 2097152

Off-chip DRAM Size: 128 GiB Channels: 2 Width: 32-bit Data Rate: 4807 MT/s
[ERROR_PAGE_MANAGER] Error latency: 1990500 
[ERROR_PAGE_MANAGER] Random seed: 54321 (fixed for preload reproducibility)
[ERROR_PAGE_MANAGER] Cycle-based error modeling enabled
[ERROR_PAGE_MANAGER] Errors per interval: 1
[ERROR_PAGE_MANAGER] Error cycle interval: 257630478 cycles

=== ERROR PAGE STATISTICS ===
Mode: CYCLE
Error Cycle Interval: 257630478 CPU cycles
Total Error Accesses: 0
==============================
Warmup finished CPU 0 instructions: 0 cycles: 1 cumulative IPC: 0 (Simulation time: 00 hr 00 min 00 sec)
Warmup complete CPU 0 instructions: 0 cycles: 1 cumulative IPC: 0 (Simulation time: 00 hr 00 min 00 sec)
Heartbeat CPU 0 instructions: 10000000 cycles: 9439884 heartbeat IPC: 1.059 cumulative IPC: 1.059 (Simulation time: 00 hr 00 min 52 sec)
Heartbeat CPU 0 instructions: 20000000 cycles: 18752567 heartbeat IPC: 1.074 cumulative IPC: 1.067 (Simulation time: 00 hr 01 min 45 sec)
Heartbeat CPU 0 instructions: 30000000 cycles: 28127373 heartbeat IPC: 1.067 cumulative IPC: 1.067 (Simulation time: 00 hr 02 min 45 sec)
Heartbeat CPU 0 instructions: 40000001 cycles: 37515578 heartbeat IPC: 1.065 cumulative IPC: 1.066 (Simulation time: 00 hr 03 min 48 sec)
Heartbeat CPU 0 instructions: 50000005 cycles: 52632522 heartbeat IPC: 0.6615 cumulative IPC: 0.95 (Simulation time: 00 hr 05 min 33 sec)
Heartbeat CPU 0 instructions: 60000005 cycles: 71139097 heartbeat IPC: 0.5403 cumulative IPC: 0.8434 (Simulation time: 00 hr 07 min 51 sec)
Heartbeat CPU 0 instructions: 70000008 cycles: 80453017 heartbeat IPC: 1.074 cumulative IPC: 0.8701 (Simulation time: 00 hr 08 min 47 sec)
Heartbeat CPU 0 instructions: 80000011 cycles: 89772114 heartbeat IPC: 1.073 cumulative IPC: 0.8911 (Simulation time: 00 hr 09 min 36 sec)
Heartbeat CPU 0 instructions: 90000011 cycles: 99082824 heartbeat IPC: 1.074 cumulative IPC: 0.9083 (Simulation time: 00 hr 10 min 32 sec)
Heartbeat CPU 0 instructions: 100000014 cycles: 108393105 heartbeat IPC: 1.074 cumulative IPC: 0.9226 (Simulation time: 00 hr 11 min 18 sec)
Heartbeat CPU 0 instructions: 110000014 cycles: 117703235 heartbeat IPC: 1.074 cumulative IPC: 0.9346 (Simulation time: 00 hr 12 min 04 sec)
Heartbeat CPU 0 instructions: 120000018 cycles: 129319921 heartbeat IPC: 0.8608 cumulative IPC: 0.9279 (Simulation time: 00 hr 13 min 07 sec)
Heartbeat CPU 0 instructions: 130000019 cycles: 147296753 heartbeat IPC: 0.5563 cumulative IPC: 0.8826 (Simulation time: 00 hr 15 min 27 sec)
Heartbeat CPU 0 instructions: 140000019 cycles: 156608260 heartbeat IPC: 1.074 cumulative IPC: 0.894 (Simulation time: 00 hr 16 min 24 sec)
Heartbeat CPU 0 instructions: 150000019 cycles: 165928081 heartbeat IPC: 1.073 cumulative IPC: 0.904 (Simulation time: 00 hr 17 min 12 sec)
Heartbeat CPU 0 instructions: 160000020 cycles: 175249190 heartbeat IPC: 1.073 cumulative IPC: 0.913 (Simulation time: 00 hr 17 min 58 sec)
Heartbeat CPU 0 instructions: 170000020 cycles: 184558421 heartbeat IPC: 1.074 cumulative IPC: 0.9211 (Simulation time: 00 hr 18 min 47 sec)
Heartbeat CPU 0 instructions: 180000023 cycles: 193868057 heartbeat IPC: 1.074 cumulative IPC: 0.9285 (Simulation time: 00 hr 19 min 33 sec)
Heartbeat CPU 0 instructions: 190000026 cycles: 203178791 heartbeat IPC: 1.074 cumulative IPC: 0.9351 (Simulation time: 00 hr 20 min 39 sec)
Heartbeat CPU 0 instructions: 200000027 cycles: 220403897 heartbeat IPC: 0.5805 cumulative IPC: 0.9074 (Simulation time: 00 hr 23 min 08 sec)
Heartbeat CPU 0 instructions: 210000029 cycles: 232715424 heartbeat IPC: 0.8122 cumulative IPC: 0.9024 (Simulation time: 00 hr 24 min 45 sec)
Heartbeat CPU 0 instructions: 220000033 cycles: 242027980 heartbeat IPC: 1.074 cumulative IPC: 0.909 (Simulation time: 00 hr 25 min 55 sec)
Heartbeat CPU 0 instructions: 230000036 cycles: 251360527 heartbeat IPC: 1.072 cumulative IPC: 0.915 (Simulation time: 00 hr 27 min 04 sec)
[ERROR_CYCLE] Error added at CPU cycle 257630478, interval 1, pending count: 1
[DRAM_CYCLE_ERROR] Cycle-based error applied! address=0x112c570b80 additional_latency=1990500 cycles
Heartbeat CPU 0 instructions: 240000039 cycles: 260677774 heartbeat IPC: 1.073 cumulative IPC: 0.9207 (Simulation time: 00 hr 28 min 12 sec)
Heartbeat CPU 0 instructions: 250000039 cycles: 269990075 heartbeat IPC: 1.074 cumulative IPC: 0.926 (Simulation time: 00 hr 29 min 08 sec)
Heartbeat CPU 0 instructions: 260000039 cycles: 279303652 heartbeat IPC: 1.074 cumulative IPC: 0.9309 (Simulation time: 00 hr 30 min 07 sec)
Heartbeat CPU 0 instructions: 270000040 cycles: 293223657 heartbeat IPC: 0.7184 cumulative IPC: 0.9208 (Simulation time: 00 hr 31 min 34 sec)
Heartbeat CPU 0 instructions: 280000044 cycles: 308878641 heartbeat IPC: 0.6388 cumulative IPC: 0.9065 (Simulation time: 00 hr 33 min 32 sec)
Heartbeat CPU 0 instructions: 290000047 cycles: 318199140 heartbeat IPC: 1.073 cumulative IPC: 0.9114 (Simulation time: 00 hr 34 min 32 sec)
Heartbeat CPU 0 instructions: 300000048 cycles: 327511261 heartbeat IPC: 1.074 cumulative IPC: 0.916 (Simulation time: 00 hr 35 min 34 sec)
Heartbeat CPU 0 instructions: 310000050 cycles: 336821768 heartbeat IPC: 1.074 cumulative IPC: 0.9204 (Simulation time: 00 hr 36 min 29 sec)
Heartbeat CPU 0 instructions: 320000054 cycles: 346133952 heartbeat IPC: 1.074 cumulative IPC: 0.9245 (Simulation time: 00 hr 37 min 36 sec)
Heartbeat CPU 0 instructions: 330000056 cycles: 355444473 heartbeat IPC: 1.074 cumulative IPC: 0.9284 (Simulation time: 00 hr 38 min 39 sec)
Heartbeat CPU 0 instructions: 340000056 cycles: 366039502 heartbeat IPC: 0.9438 cumulative IPC: 0.9289 (Simulation time: 00 hr 39 min 48 sec)
Heartbeat CPU 0 instructions: 350000056 cycles: 384718952 heartbeat IPC: 0.5353 cumulative IPC: 0.9098 (Simulation time: 00 hr 41 min 59 sec)
Heartbeat CPU 0 instructions: 360000056 cycles: 395040258 heartbeat IPC: 0.9689 cumulative IPC: 0.9113 (Simulation time: 00 hr 42 min 55 sec)
Heartbeat CPU 0 instructions: 370000058 cycles: 405361571 heartbeat IPC: 0.9689 cumulative IPC: 0.9128 (Simulation time: 00 hr 44 min 06 sec)
Heartbeat CPU 0 instructions: 380000062 cycles: 415673997 heartbeat IPC: 0.9697 cumulative IPC: 0.9142 (Simulation time: 00 hr 45 min 09 sec)
Heartbeat CPU 0 instructions: 390000062 cycles: 428291178 heartbeat IPC: 0.7926 cumulative IPC: 0.9106 (Simulation time: 00 hr 46 min 22 sec)
Heartbeat CPU 0 instructions: 400000062 cycles: 442592675 heartbeat IPC: 0.6992 cumulative IPC: 0.9038 (Simulation time: 00 hr 48 min 00 sec)
Heartbeat CPU 0 instructions: 410000062 cycles: 449424138 heartbeat IPC: 1.464 cumulative IPC: 0.9123 (Simulation time: 00 hr 49 min 00 sec)
Heartbeat CPU 0 instructions: 420000064 cycles: 456610989 heartbeat IPC: 1.391 cumulative IPC: 0.9198 (Simulation time: 00 hr 50 min 16 sec)
Heartbeat CPU 0 instructions: 430000067 cycles: 465248019 heartbeat IPC: 1.158 cumulative IPC: 0.9242 (Simulation time: 00 hr 51 min 44 sec)
Heartbeat CPU 0 instructions: 440000067 cycles: 474249965 heartbeat IPC: 1.111 cumulative IPC: 0.9278 (Simulation time: 00 hr 53 min 15 sec)
Heartbeat CPU 0 instructions: 450000067 cycles: 482890174 heartbeat IPC: 1.157 cumulative IPC: 0.9319 (Simulation time: 00 hr 54 min 29 sec)
Heartbeat CPU 0 instructions: 460000069 cycles: 491560283 heartbeat IPC: 1.153 cumulative IPC: 0.9358 (Simulation time: 00 hr 55 min 44 sec)
Heartbeat CPU 0 instructions: 470000073 cycles: 500236076 heartbeat IPC: 1.153 cumulative IPC: 0.9396 (Simulation time: 00 hr 56 min 50 sec)
Heartbeat CPU 0 instructions: 480000074 cycles: 509022733 heartbeat IPC: 1.138 cumulative IPC: 0.943 (Simulation time: 00 hr 57 min 48 sec)
[ERROR_CYCLE] Error added at CPU cycle 515260956, interval 2, pending count: 1
[DRAM_CYCLE_ERROR] Cycle-based error applied! address=0x1b2d44bac0 additional_latency=1990500 cycles
Heartbeat CPU 0 instructions: 490000074 cycles: 517927559 heartbeat IPC: 1.123 cumulative IPC: 0.9461 (Simulation time: 00 hr 58 min 51 sec)
Heartbeat CPU 0 instructions: 500000076 cycles: 526550228 heartbeat IPC: 1.16 cumulative IPC: 0.9496 (Simulation time: 01 hr 00 min 06 sec)
Heartbeat CPU 0 instructions: 510000079 cycles: 535229123 heartbeat IPC: 1.152 cumulative IPC: 0.9529 (Simulation time: 01 hr 01 min 36 sec)
Heartbeat CPU 0 instructions: 520000083 cycles: 543958894 heartbeat IPC: 1.146 cumulative IPC: 0.956 (Simulation time: 01 hr 03 min 05 sec)
Heartbeat CPU 0 instructions: 530000087 cycles: 552856349 heartbeat IPC: 1.124 cumulative IPC: 0.9587 (Simulation time: 01 hr 04 min 36 sec)
Heartbeat CPU 0 instructions: 540000087 cycles: 561544466 heartbeat IPC: 1.151 cumulative IPC: 0.9616 (Simulation time: 01 hr 06 min 06 sec)
Heartbeat CPU 0 instructions: 550000089 cycles: 570200383 heartbeat IPC: 1.155 cumulative IPC: 0.9646 (Simulation time: 01 hr 07 min 36 sec)
Heartbeat CPU 0 instructions: 560000093 cycles: 578919635 heartbeat IPC: 1.147 cumulative IPC: 0.9673 (Simulation time: 01 hr 09 min 05 sec)
Heartbeat CPU 0 instructions: 570000097 cycles: 587643355 heartbeat IPC: 1.146 cumulative IPC: 0.97 (Simulation time: 01 hr 10 min 35 sec)
Heartbeat CPU 0 instructions: 580000100 cycles: 596635523 heartbeat IPC: 1.112 cumulative IPC: 0.9721 (Simulation time: 01 hr 12 min 07 sec)
Heartbeat CPU 0 instructions: 590000101 cycles: 605183898 heartbeat IPC: 1.17 cumulative IPC: 0.9749 (Simulation time: 01 hr 13 min 22 sec)
Heartbeat CPU 0 instructions: 600000105 cycles: 613901569 heartbeat IPC: 1.147 cumulative IPC: 0.9774 (Simulation time: 01 hr 14 min 30 sec)
Heartbeat CPU 0 instructions: 610000107 cycles: 620913828 heartbeat IPC: 1.426 cumulative IPC: 0.9824 (Simulation time: 01 hr 15 min 44 sec)
Heartbeat CPU 0 instructions: 620000108 cycles: 627727826 heartbeat IPC: 1.468 cumulative IPC: 0.9877 (Simulation time: 01 hr 16 min 57 sec)
Heartbeat CPU 0 instructions: 630000109 cycles: 634530001 heartbeat IPC: 1.47 cumulative IPC: 0.9929 (Simulation time: 01 hr 17 min 50 sec)
Heartbeat CPU 0 instructions: 640000109 cycles: 641353443 heartbeat IPC: 1.466 cumulative IPC: 0.9979 (Simulation time: 01 hr 18 min 46 sec)
Heartbeat CPU 0 instructions: 650000113 cycles: 647990611 heartbeat IPC: 1.507 cumulative IPC: 1.003 (Simulation time: 01 hr 19 min 39 sec)
Heartbeat CPU 0 instructions: 660000113 cycles: 654568764 heartbeat IPC: 1.52 cumulative IPC: 1.008 (Simulation time: 01 hr 20 min 32 sec)
Heartbeat CPU 0 instructions: 670000114 cycles: 661155024 heartbeat IPC: 1.518 cumulative IPC: 1.013 (Simulation time: 01 hr 21 min 41 sec)
Heartbeat CPU 0 instructions: 680000118 cycles: 668602289 heartbeat IPC: 1.343 cumulative IPC: 1.017 (Simulation time: 01 hr 22 min 42 sec)
Heartbeat CPU 0 instructions: 690000120 cycles: 676181153 heartbeat IPC: 1.319 cumulative IPC: 1.02 (Simulation time: 01 hr 23 min 38 sec)
Heartbeat CPU 0 instructions: 700000120 cycles: 682737518 heartbeat IPC: 1.525 cumulative IPC: 1.025 (Simulation time: 01 hr 24 min 30 sec)
Heartbeat CPU 0 instructions: 710000123 cycles: 689934220 heartbeat IPC: 1.39 cumulative IPC: 1.029 (Simulation time: 01 hr 25 min 25 sec)
Heartbeat CPU 0 instructions: 720000125 cycles: 698917621 heartbeat IPC: 1.113 cumulative IPC: 1.03 (Simulation time: 01 hr 26 min 54 sec)
Heartbeat CPU 0 instructions: 730000125 cycles: 707578149 heartbeat IPC: 1.155 cumulative IPC: 1.032 (Simulation time: 01 hr 28 min 22 sec)
Heartbeat CPU 0 instructions: 740000128 cycles: 716258977 heartbeat IPC: 1.152 cumulative IPC: 1.033 (Simulation time: 01 hr 29 min 41 sec)
Heartbeat CPU 0 instructions: 750000129 cycles: 724942495 heartbeat IPC: 1.152 cumulative IPC: 1.035 (Simulation time: 01 hr 31 min 00 sec)
Heartbeat CPU 0 instructions: 760000129 cycles: 733677987 heartbeat IPC: 1.145 cumulative IPC: 1.036 (Simulation time: 01 hr 32 min 28 sec)
Heartbeat CPU 0 instructions: 770000130 cycles: 742646317 heartbeat IPC: 1.115 cumulative IPC: 1.037 (Simulation time: 01 hr 33 min 57 sec)
Heartbeat CPU 0 instructions: 780000133 cycles: 751169786 heartbeat IPC: 1.173 cumulative IPC: 1.038 (Simulation time: 01 hr 35 min 24 sec)
Heartbeat CPU 0 instructions: 790000136 cycles: 759858940 heartbeat IPC: 1.151 cumulative IPC: 1.04 (Simulation time: 01 hr 36 min 51 sec)
Heartbeat CPU 0 instructions: 800000136 cycles: 768598181 heartbeat IPC: 1.144 cumulative IPC: 1.041 (Simulation time: 01 hr 38 min 19 sec)
[ERROR_CYCLE] Error added at CPU cycle 772891435, interval 3, pending count: 1
[DRAM_CYCLE_ERROR] Cycle-based error applied! address=0x1987118980 additional_latency=1990500 cycles
Heartbeat CPU 0 instructions: 810000136 cycles: 777476620 heartbeat IPC: 1.126 cumulative IPC: 1.042 (Simulation time: 01 hr 39 min 47 sec)
Heartbeat CPU 0 instructions: 820000139 cycles: 786159799 heartbeat IPC: 1.152 cumulative IPC: 1.043 (Simulation time: 01 hr 41 min 15 sec)
Heartbeat CPU 0 instructions: 830000143 cycles: 794835670 heartbeat IPC: 1.153 cumulative IPC: 1.044 (Simulation time: 01 hr 42 min 43 sec)
Heartbeat CPU 0 instructions: 840000143 cycles: 803508858 heartbeat IPC: 1.153 cumulative IPC: 1.045 (Simulation time: 01 hr 43 min 52 sec)
Heartbeat CPU 0 instructions: 850000144 cycles: 812182386 heartbeat IPC: 1.153 cumulative IPC: 1.047 (Simulation time: 01 hr 45 min 11 sec)
Heartbeat CPU 0 instructions: 860000145 cycles: 821184141 heartbeat IPC: 1.111 cumulative IPC: 1.047 (Simulation time: 01 hr 46 min 19 sec)
Heartbeat CPU 0 instructions: 870000148 cycles: 829681169 heartbeat IPC: 1.177 cumulative IPC: 1.049 (Simulation time: 01 hr 47 min 33 sec)
Heartbeat CPU 0 instructions: 880000152 cycles: 838357533 heartbeat IPC: 1.153 cumulative IPC: 1.05 (Simulation time: 01 hr 48 min 50 sec)
Heartbeat CPU 0 instructions: 890000155 cycles: 847019555 heartbeat IPC: 1.154 cumulative IPC: 1.051 (Simulation time: 01 hr 49 min 58 sec)
Heartbeat CPU 0 instructions: 900000156 cycles: 855824492 heartbeat IPC: 1.136 cumulative IPC: 1.052 (Simulation time: 01 hr 51 min 26 sec)
Heartbeat CPU 0 instructions: 910000156 cycles: 864547141 heartbeat IPC: 1.146 cumulative IPC: 1.053 (Simulation time: 01 hr 52 min 54 sec)
Heartbeat CPU 0 instructions: 920000159 cycles: 873203592 heartbeat IPC: 1.155 cumulative IPC: 1.054 (Simulation time: 01 hr 54 min 22 sec)
Heartbeat CPU 0 instructions: 930000159 cycles: 881850319 heartbeat IPC: 1.157 cumulative IPC: 1.055 (Simulation time: 01 hr 55 min 50 sec)
Heartbeat CPU 0 instructions: 940000161 cycles: 890499411 heartbeat IPC: 1.156 cumulative IPC: 1.056 (Simulation time: 01 hr 57 min 17 sec)
Heartbeat CPU 0 instructions: 950000161 cycles: 899496451 heartbeat IPC: 1.111 cumulative IPC: 1.056 (Simulation time: 01 hr 58 min 46 sec)
Heartbeat CPU 0 instructions: 960000163 cycles: 908064562 heartbeat IPC: 1.167 cumulative IPC: 1.057 (Simulation time: 02 hr 00 min 06 sec)
Heartbeat CPU 0 instructions: 970000164 cycles: 916749681 heartbeat IPC: 1.151 cumulative IPC: 1.058 (Simulation time: 02 hr 01 min 08 sec)
Heartbeat CPU 0 instructions: 980000164 cycles: 925446519 heartbeat IPC: 1.15 cumulative IPC: 1.059 (Simulation time: 02 hr 02 min 30 sec)
Heartbeat CPU 0 instructions: 990000166 cycles: 934222053 heartbeat IPC: 1.14 cumulative IPC: 1.06 (Simulation time: 02 hr 03 min 59 sec)
Heartbeat CPU 0 instructions: 1000000170 cycles: 943044756 heartbeat IPC: 1.133 cumulative IPC: 1.06 (Simulation time: 02 hr 05 min 29 sec)
Heartbeat CPU 0 instructions: 1010000170 cycles: 951669459 heartbeat IPC: 1.159 cumulative IPC: 1.061 (Simulation time: 02 hr 06 min 56 sec)
Heartbeat CPU 0 instructions: 1020000172 cycles: 960338952 heartbeat IPC: 1.153 cumulative IPC: 1.062 (Simulation time: 02 hr 08 min 19 sec)
Heartbeat CPU 0 instructions: 1030000174 cycles: 968982037 heartbeat IPC: 1.157 cumulative IPC: 1.063 (Simulation time: 02 hr 09 min 43 sec)
Heartbeat CPU 0 instructions: 1040000175 cycles: 977916659 heartbeat IPC: 1.119 cumulative IPC: 1.063 (Simulation time: 02 hr 11 min 09 sec)
Heartbeat CPU 0 instructions: 1050000178 cycles: 986552047 heartbeat IPC: 1.158 cumulative IPC: 1.064 (Simulation time: 02 hr 12 min 19 sec)
Heartbeat CPU 0 instructions: 1060000182 cycles: 995246032 heartbeat IPC: 1.15 cumulative IPC: 1.065 (Simulation time: 02 hr 13 min 46 sec)
Heartbeat CPU 0 instructions: 1070000184 cycles: 1003908863 heartbeat IPC: 1.154 cumulative IPC: 1.066 (Simulation time: 02 hr 15 min 12 sec)
Heartbeat CPU 0 instructions: 1080000186 cycles: 1012644654 heartbeat IPC: 1.145 cumulative IPC: 1.067 (Simulation time: 02 hr 16 min 39 sec)
Heartbeat CPU 0 instructions: 1090000187 cycles: 1021617651 heartbeat IPC: 1.114 cumulative IPC: 1.067 (Simulation time: 02 hr 18 min 08 sec)
Heartbeat CPU 0 instructions: 1100000191 cycles: 1030181131 heartbeat IPC: 1.168 cumulative IPC: 1.068 (Simulation time: 02 hr 19 min 34 sec)
[ERROR_CYCLE] Error added at CPU cycle 1030521912, interval 4, pending count: 1
[DRAM_CYCLE_ERROR] Cycle-based error applied! address=0xc39ebbec0 additional_latency=1990500 cycles
Heartbeat CPU 0 instructions: 1110000194 cycles: 1038879095 heartbeat IPC: 1.15 cumulative IPC: 1.068 (Simulation time: 02 hr 21 min 00 sec)
Heartbeat CPU 0 instructions: 1120000198 cycles: 1047585170 heartbeat IPC: 1.149 cumulative IPC: 1.069 (Simulation time: 02 hr 22 min 27 sec)
Heartbeat CPU 0 instructions: 1130000202 cycles: 1056480234 heartbeat IPC: 1.124 cumulative IPC: 1.07 (Simulation time: 02 hr 23 min 55 sec)
Heartbeat CPU 0 instructions: 1140000205 cycles: 1065176061 heartbeat IPC: 1.15 cumulative IPC: 1.07 (Simulation time: 02 hr 25 min 23 sec)
Heartbeat CPU 0 instructions: 1150000206 cycles: 1073858426 heartbeat IPC: 1.152 cumulative IPC: 1.071 (Simulation time: 02 hr 26 min 49 sec)
Heartbeat CPU 0 instructions: 1160000207 cycles: 1082532922 heartbeat IPC: 1.153 cumulative IPC: 1.072 (Simulation time: 02 hr 28 min 16 sec)
Heartbeat CPU 0 instructions: 1170000209 cycles: 1091259621 heartbeat IPC: 1.146 cumulative IPC: 1.072 (Simulation time: 02 hr 29 min 43 sec)
Heartbeat CPU 0 instructions: 1180000209 cycles: 1100236747 heartbeat IPC: 1.114 cumulative IPC: 1.072 (Simulation time: 02 hr 31 min 12 sec)
Heartbeat CPU 0 instructions: 1190000209 cycles: 1108795510 heartbeat IPC: 1.168 cumulative IPC: 1.073 (Simulation time: 02 hr 32 min 37 sec)
Heartbeat CPU 0 instructions: 1200000209 cycles: 1117450888 heartbeat IPC: 1.155 cumulative IPC: 1.074 (Simulation time: 02 hr 34 min 04 sec)
Heartbeat CPU 0 instructions: 1210000213 cycles: 1126156768 heartbeat IPC: 1.149 cumulative IPC: 1.074 (Simulation time: 02 hr 35 min 31 sec)
Heartbeat CPU 0 instructions: 1220000216 cycles: 1134969164 heartbeat IPC: 1.135 cumulative IPC: 1.075 (Simulation time: 02 hr 36 min 59 sec)
Heartbeat CPU 0 instructions: 1230000218 cycles: 1143712960 heartbeat IPC: 1.144 cumulative IPC: 1.075 (Simulation time: 02 hr 38 min 26 sec)
Heartbeat CPU 0 instructions: 1240000219 cycles: 1152387785 heartbeat IPC: 1.153 cumulative IPC: 1.076 (Simulation time: 02 hr 39 min 54 sec)
Heartbeat CPU 0 instructions: 1250000219 cycles: 1161069612 heartbeat IPC: 1.152 cumulative IPC: 1.077 (Simulation time: 02 hr 41 min 08 sec)
Heartbeat CPU 0 instructions: 1260000219 cycles: 1169754874 heartbeat IPC: 1.151 cumulative IPC: 1.077 (Simulation time: 02 hr 42 min 24 sec)
Heartbeat CPU 0 instructions: 1270000221 cycles: 1178757975 heartbeat IPC: 1.111 cumulative IPC: 1.077 (Simulation time: 02 hr 43 min 40 sec)
Heartbeat CPU 0 instructions: 1280000223 cycles: 1187328179 heartbeat IPC: 1.167 cumulative IPC: 1.078 (Simulation time: 02 hr 44 min 50 sec)
Heartbeat CPU 0 instructions: 1290000223 cycles: 1195991190 heartbeat IPC: 1.154 cumulative IPC: 1.079 (Simulation time: 02 hr 45 min 57 sec)
Heartbeat CPU 0 instructions: 1300000223 cycles: 1204668051 heartbeat IPC: 1.152 cumulative IPC: 1.079 (Simulation time: 02 hr 47 min 20 sec)
Heartbeat CPU 0 instructions: 1310000223 cycles: 1213437322 heartbeat IPC: 1.14 cumulative IPC: 1.08 (Simulation time: 02 hr 48 min 35 sec)
Heartbeat CPU 0 instructions: 1320000227 cycles: 1222266968 heartbeat IPC: 1.133 cumulative IPC: 1.08 (Simulation time: 02 hr 49 min 57 sec)
Heartbeat CPU 0 instructions: 1330000227 cycles: 1230885978 heartbeat IPC: 1.16 cumulative IPC: 1.081 (Simulation time: 02 hr 51 min 22 sec)
Heartbeat CPU 0 instructions: 1340000230 cycles: 1239576707 heartbeat IPC: 1.151 cumulative IPC: 1.081 (Simulation time: 02 hr 52 min 48 sec)
Heartbeat CPU 0 instructions: 1350000233 cycles: 1248216918 heartbeat IPC: 1.157 cumulative IPC: 1.082 (Simulation time: 02 hr 54 min 14 sec)
Heartbeat CPU 0 instructions: 1360000236 cycles: 1257177450 heartbeat IPC: 1.116 cumulative IPC: 1.082 (Simulation time: 02 hr 55 min 44 sec)
Heartbeat CPU 0 instructions: 1370000237 cycles: 1265794047 heartbeat IPC: 1.161 cumulative IPC: 1.082 (Simulation time: 02 hr 57 min 10 sec)
Heartbeat CPU 0 instructions: 1380000237 cycles: 1274484863 heartbeat IPC: 1.151 cumulative IPC: 1.083 (Simulation time: 02 hr 58 min 29 sec)
Heartbeat CPU 0 instructions: 1390000238 cycles: 1283145926 heartbeat IPC: 1.155 cumulative IPC: 1.083 (Simulation time: 02 hr 59 min 53 sec)
[ERROR_CYCLE] Error added at CPU cycle 1288152391, interval 5, pending count: 1
[DRAM_CYCLE_ERROR] Cycle-based error applied! address=0x722f79b40 additional_latency=1990500 cycles
Heartbeat CPU 0 instructions: 1400000238 cycles: 1291903029 heartbeat IPC: 1.142 cumulative IPC: 1.084 (Simulation time: 03 hr 01 min 22 sec)
Heartbeat CPU 0 instructions: 1410000239 cycles: 1300823803 heartbeat IPC: 1.121 cumulative IPC: 1.084 (Simulation time: 03 hr 02 min 53 sec)
Heartbeat CPU 0 instructions: 1420000239 cycles: 1309395776 heartbeat IPC: 1.167 cumulative IPC: 1.084 (Simulation time: 03 hr 04 min 16 sec)
Heartbeat CPU 0 instructions: 1430000243 cycles: 1318050081 heartbeat IPC: 1.155 cumulative IPC: 1.085 (Simulation time: 03 hr 05 min 41 sec)
Heartbeat CPU 0 instructions: 1440000247 cycles: 1326751194 heartbeat IPC: 1.149 cumulative IPC: 1.085 (Simulation time: 03 hr 07 min 07 sec)
Heartbeat CPU 0 instructions: 1450000248 cycles: 1333258986 heartbeat IPC: 1.537 cumulative IPC: 1.088 (Simulation time: 03 hr 08 min 13 sec)
Heartbeat CPU 0 instructions: 1460000250 cycles: 1339787459 heartbeat IPC: 1.532 cumulative IPC: 1.09 (Simulation time: 03 hr 09 min 08 sec)
Heartbeat CPU 0 instructions: 1470000250 cycles: 1346332991 heartbeat IPC: 1.528 cumulative IPC: 1.092 (Simulation time: 03 hr 10 min 14 sec)
Heartbeat CPU 0 instructions: 1480000251 cycles: 1352844642 heartbeat IPC: 1.536 cumulative IPC: 1.094 (Simulation time: 03 hr 11 min 21 sec)
Heartbeat CPU 0 instructions: 1490000254 cycles: 1359375319 heartbeat IPC: 1.531 cumulative IPC: 1.096 (Simulation time: 03 hr 12 min 33 sec)
Heartbeat CPU 0 instructions: 1500000258 cycles: 1365888171 heartbeat IPC: 1.535 cumulative IPC: 1.098 (Simulation time: 03 hr 13 min 44 sec)
Heartbeat CPU 0 instructions: 1510000260 cycles: 1372442376 heartbeat IPC: 1.526 cumulative IPC: 1.1 (Simulation time: 03 hr 14 min 44 sec)
Heartbeat CPU 0 instructions: 1520000261 cycles: 1378973665 heartbeat IPC: 1.531 cumulative IPC: 1.102 (Simulation time: 03 hr 15 min 43 sec)
Heartbeat CPU 0 instructions: 1530000261 cycles: 1385508487 heartbeat IPC: 1.53 cumulative IPC: 1.104 (Simulation time: 03 hr 16 min 51 sec)
Heartbeat CPU 0 instructions: 1540000261 cycles: 1392030478 heartbeat IPC: 1.533 cumulative IPC: 1.106 (Simulation time: 03 hr 17 min 55 sec)
Heartbeat CPU 0 instructions: 1550000261 cycles: 1398576319 heartbeat IPC: 1.528 cumulative IPC: 1.108 (Simulation time: 03 hr 19 min 04 sec)
Heartbeat CPU 0 instructions: 1560000262 cycles: 1405092778 heartbeat IPC: 1.535 cumulative IPC: 1.11 (Simulation time: 03 hr 20 min 10 sec)
Heartbeat CPU 0 instructions: 1570000264 cycles: 1411552358 heartbeat IPC: 1.548 cumulative IPC: 1.112 (Simulation time: 03 hr 21 min 20 sec)
Heartbeat CPU 0 instructions: 1580000264 cycles: 1417634403 heartbeat IPC: 1.644 cumulative IPC: 1.115 (Simulation time: 03 hr 22 min 21 sec)
Heartbeat CPU 0 instructions: 1590000268 cycles: 1424049363 heartbeat IPC: 1.559 cumulative IPC: 1.117 (Simulation time: 03 hr 23 min 22 sec)
Heartbeat CPU 0 instructions: 1600000268 cycles: 1430552706 heartbeat IPC: 1.538 cumulative IPC: 1.118 (Simulation time: 03 hr 24 min 12 sec)
Heartbeat CPU 0 instructions: 1610000270 cycles: 1437077045 heartbeat IPC: 1.533 cumulative IPC: 1.12 (Simulation time: 03 hr 25 min 22 sec)
Heartbeat CPU 0 instructions: 1620000271 cycles: 1443590231 heartbeat IPC: 1.535 cumulative IPC: 1.122 (Simulation time: 03 hr 26 min 32 sec)
Heartbeat CPU 0 instructions: 1630000272 cycles: 1450116005 heartbeat IPC: 1.532 cumulative IPC: 1.124 (Simulation time: 03 hr 27 min 42 sec)
Heartbeat CPU 0 instructions: 1640000276 cycles: 1456657206 heartbeat IPC: 1.529 cumulative IPC: 1.126 (Simulation time: 03 hr 28 min 52 sec)
Heartbeat CPU 0 instructions: 1650000278 cycles: 1463173843 heartbeat IPC: 1.535 cumulative IPC: 1.128 (Simulation time: 03 hr 30 min 03 sec)
Heartbeat CPU 0 instructions: 1660000278 cycles: 1469695454 heartbeat IPC: 1.533 cumulative IPC: 1.129 (Simulation time: 03 hr 31 min 13 sec)
Heartbeat CPU 0 instructions: 1670000278 cycles: 1476227245 heartbeat IPC: 1.531 cumulative IPC: 1.131 (Simulation time: 03 hr 32 min 23 sec)
Heartbeat CPU 0 instructions: 1680000279 cycles: 1482772383 heartbeat IPC: 1.528 cumulative IPC: 1.133 (Simulation time: 03 hr 33 min 33 sec)
Heartbeat CPU 0 instructions: 1690000280 cycles: 1489289485 heartbeat IPC: 1.534 cumulative IPC: 1.135 (Simulation time: 03 hr 34 min 43 sec)
Heartbeat CPU 0 instructions: 1700000280 cycles: 1495835356 heartbeat IPC: 1.528 cumulative IPC: 1.136 (Simulation time: 03 hr 35 min 43 sec)
Heartbeat CPU 0 instructions: 1710000280 cycles: 1502368335 heartbeat IPC: 1.531 cumulative IPC: 1.138 (Simulation time: 03 hr 36 min 51 sec)
Heartbeat CPU 0 instructions: 1720000280 cycles: 1508656753 heartbeat IPC: 1.59 cumulative IPC: 1.14 (Simulation time: 03 hr 37 min 59 sec)
Heartbeat CPU 0 instructions: 1730000280 cycles: 1514775710 heartbeat IPC: 1.634 cumulative IPC: 1.142 (Simulation time: 03 hr 39 min 06 sec)
Heartbeat CPU 0 instructions: 1740000280 cycles: 1521311248 heartbeat IPC: 1.53 cumulative IPC: 1.144 (Simulation time: 03 hr 40 min 15 sec)
Heartbeat CPU 0 instructions: 1750000283 cycles: 1527823808 heartbeat IPC: 1.535 cumulative IPC: 1.145 (Simulation time: 03 hr 41 min 25 sec)
Heartbeat CPU 0 instructions: 1760000284 cycles: 1534341854 heartbeat IPC: 1.534 cumulative IPC: 1.147 (Simulation time: 03 hr 42 min 22 sec)
Heartbeat CPU 0 instructions: 1770000288 cycles: 1540868762 heartbeat IPC: 1.532 cumulative IPC: 1.149 (Simulation time: 03 hr 43 min 23 sec)
[ERROR_CYCLE] Error added at CPU cycle 1545782868, interval 6, pending count: 1
[DRAM_CYCLE_ERROR] Cycle-based error applied! address=0x13833a6980 additional_latency=1990500 cycles
Heartbeat CPU 0 instructions: 1780000289 cycles: 1547414622 heartbeat IPC: 1.528 cumulative IPC: 1.15 (Simulation time: 03 hr 44 min 22 sec)
Heartbeat CPU 0 instructions: 1790000291 cycles: 1553936324 heartbeat IPC: 1.533 cumulative IPC: 1.152 (Simulation time: 03 hr 45 min 31 sec)
Heartbeat CPU 0 instructions: 1800000291 cycles: 1560477729 heartbeat IPC: 1.529 cumulative IPC: 1.153 (Simulation time: 03 hr 46 min 42 sec)
Heartbeat CPU 0 instructions: 1810000291 cycles: 1567022579 heartbeat IPC: 1.528 cumulative IPC: 1.155 (Simulation time: 03 hr 47 min 36 sec)
Heartbeat CPU 0 instructions: 1820000294 cycles: 1573549788 heartbeat IPC: 1.532 cumulative IPC: 1.157 (Simulation time: 03 hr 48 min 37 sec)
Heartbeat CPU 0 instructions: 1830000297 cycles: 1580079829 heartbeat IPC: 1.531 cumulative IPC: 1.158 (Simulation time: 03 hr 49 min 47 sec)
Heartbeat CPU 0 instructions: 1840000298 cycles: 1586597896 heartbeat IPC: 1.534 cumulative IPC: 1.16 (Simulation time: 03 hr 50 min 57 sec)
Heartbeat CPU 0 instructions: 1850000300 cycles: 1593129641 heartbeat IPC: 1.531 cumulative IPC: 1.161 (Simulation time: 03 hr 52 min 07 sec)
Heartbeat CPU 0 instructions: 1860000300 cycles: 1599694791 heartbeat IPC: 1.523 cumulative IPC: 1.163 (Simulation time: 03 hr 53 min 10 sec)
Heartbeat CPU 0 instructions: 1870000300 cycles: 1605803614 heartbeat IPC: 1.637 cumulative IPC: 1.165 (Simulation time: 03 hr 54 min 17 sec)
Heartbeat CPU 0 instructions: 1880000300 cycles: 1612094425 heartbeat IPC: 1.59 cumulative IPC: 1.166 (Simulation time: 03 hr 55 min 25 sec)
Heartbeat CPU 0 instructions: 1890000302 cycles: 1618606242 heartbeat IPC: 1.536 cumulative IPC: 1.168 (Simulation time: 03 hr 56 min 36 sec)
Heartbeat CPU 0 instructions: 1900000302 cycles: 1625134231 heartbeat IPC: 1.532 cumulative IPC: 1.169 (Simulation time: 03 hr 57 min 46 sec)
Heartbeat CPU 0 instructions: 1910000302 cycles: 1631646365 heartbeat IPC: 1.536 cumulative IPC: 1.171 (Simulation time: 03 hr 58 min 57 sec)
Heartbeat CPU 0 instructions: 1920000303 cycles: 1638170288 heartbeat IPC: 1.533 cumulative IPC: 1.172 (Simulation time: 04 hr 00 min 07 sec)
Heartbeat CPU 0 instructions: 1930000307 cycles: 1644688573 heartbeat IPC: 1.534 cumulative IPC: 1.173 (Simulation time: 04 hr 01 min 18 sec)
Heartbeat CPU 0 instructions: 1940000308 cycles: 1651240747 heartbeat IPC: 1.526 cumulative IPC: 1.175 (Simulation time: 04 hr 02 min 29 sec)
Heartbeat CPU 0 instructions: 1950000308 cycles: 1657756849 heartbeat IPC: 1.535 cumulative IPC: 1.176 (Simulation time: 04 hr 03 min 25 sec)
Heartbeat CPU 0 instructions: 1960000310 cycles: 1664296030 heartbeat IPC: 1.529 cumulative IPC: 1.178 (Simulation time: 04 hr 04 min 37 sec)
Heartbeat CPU 0 instructions: 1970000311 cycles: 1670824273 heartbeat IPC: 1.532 cumulative IPC: 1.179 (Simulation time: 04 hr 05 min 44 sec)
Heartbeat CPU 0 instructions: 1980000312 cycles: 1677365111 heartbeat IPC: 1.529 cumulative IPC: 1.18 (Simulation time: 04 hr 06 min 55 sec)
Heartbeat CPU 0 instructions: 1990000313 cycles: 1683892121 heartbeat IPC: 1.532 cumulative IPC: 1.182 (Simulation time: 04 hr 07 min 57 sec)

=== ERROR PAGE STATISTICS ===
Mode: CYCLE
Error Cycle Interval: 257630478 CPU cycles
Total Error Accesses: 6
==============================
Simulation finished CPU 0 instructions: 1999999509 cycles: 1690412317 cumulative IPC: 1.183 (Simulation time: 04 hr 08 min 44 sec)
Simulation complete CPU 0 instructions: 1999999509 cycles: 1690412317 cumulative IPC: 1.183 (Simulation time: 04 hr 08 min 44 sec)

ChampSim completed all CPUs

=== Simulation ===
CPU 0 runs test_traces/654.roms_s-1007B.champsimtrace.xz

Region of Interest Statistics

CPU 0 cumulative IPC: 1.183 instructions: 1999999509 cycles: 1690412317
CPU 0 Branch Prediction Accuracy: 95.85% MPKI: 3.086 Average ROB Occupancy at Mispredict: 45.56
Branch type MPKI
BRANCH_DIRECT_JUMP: 9.8e-05
BRANCH_INDIRECT: 6e-06
BRANCH_CONDITIONAL: 1.593
BRANCH_DIRECT_CALL: 3.65e-05
BRANCH_INDIRECT_CALL: 0
BRANCH_RETURN: 1.493

cpu0->cpu0_STLB TOTAL        ACCESS:   39022115 HIT:   39021235 MISS:        880 MSHR_MERGE:          0
cpu0->cpu0_STLB LOAD         ACCESS:   39022115 HIT:   39021235 MISS:        880 MSHR_MERGE:          0
cpu0->cpu0_STLB RFO          ACCESS:          0 HIT:          0 MISS:          0 MSHR_MERGE:          0
cpu0->cpu0_STLB PREFETCH     ACCESS:          0 HIT:          0 MISS:          0 MSHR_MERGE:          0
cpu0->cpu0_STLB WRITE        ACCESS:          0 HIT:          0 MISS:          0 MSHR_MERGE:          0
cpu0->cpu0_STLB TRANSLATION  ACCESS:          0 HIT:          0 MISS:          0 MSHR_MERGE:          0
cpu0->cpu0_STLB PREFETCH REQUESTED:          0 ISSUED:          0 USEFUL:          0 USELESS:          0
cpu0->cpu0_STLB AVERAGE MISS LATENCY: 8731 cycles
cpu0->cpu0_L2C TOTAL        ACCESS:   35187779 HIT:   15858823 MISS:   19328956 MSHR_MERGE:          0
cpu0->cpu0_L2C LOAD         ACCESS:   22563551 HIT:    7672289 MISS:   14891262 MSHR_MERGE:          0
cpu0->cpu0_L2C RFO          ACCESS:    5289565 HIT:     857704 MISS:    4431861 MSHR_MERGE:          0
cpu0->cpu0_L2C PREFETCH     ACCESS:          0 HIT:          0 MISS:          0 MSHR_MERGE:          0
cpu0->cpu0_L2C WRITE        ACCESS:    7334663 HIT:    7328830 MISS:       5833 MSHR_MERGE:          0
cpu0->cpu0_L2C TRANSLATION  ACCESS:          0 HIT:          0 MISS:          0 MSHR_MERGE:          0
cpu0->cpu0_L2C PREFETCH REQUESTED:          0 ISSUED:          0 USEFUL:          0 USELESS:          0
cpu0->cpu0_L2C AVERAGE MISS LATENCY: 62.28 cycles
cpu0->cpu0_L1I TOTAL        ACCESS:  419308304 HIT:  419307702 MISS:        602 MSHR_MERGE:        189
cpu0->cpu0_L1I LOAD         ACCESS:  419308304 HIT:  419307702 MISS:        602 MSHR_MERGE:        189
cpu0->cpu0_L1I RFO          ACCESS:          0 HIT:          0 MISS:          0 MSHR_MERGE:          0
cpu0->cpu0_L1I PREFETCH     ACCESS:          0 HIT:          0 MISS:          0 MSHR_MERGE:          0
cpu0->cpu0_L1I WRITE        ACCESS:          0 HIT:          0 MISS:          0 MSHR_MERGE:          0
cpu0->cpu0_L1I TRANSLATION  ACCESS:          0 HIT:          0 MISS:          0 MSHR_MERGE:          0
cpu0->cpu0_L1I PREFETCH REQUESTED:          0 ISSUED:          0 USEFUL:          0 USELESS:          0
cpu0->cpu0_L1I AVERAGE MISS LATENCY: 123.1 cycles
cpu0->cpu0_L1D TOTAL        ACCESS:  768697939 HIT:  729978004 MISS:   38719935 MSHR_MERGE:   10866728
cpu0->cpu0_L1D LOAD         ACCESS:  587618801 HIT:  557896649 MISS:   29722152 MSHR_MERGE:    7159007
cpu0->cpu0_L1D RFO          ACCESS:          0 HIT:          0 MISS:          0 MSHR_MERGE:          0
cpu0->cpu0_L1D PREFETCH     ACCESS:          0 HIT:          0 MISS:          0 MSHR_MERGE:          0
cpu0->cpu0_L1D WRITE        ACCESS:  181079138 HIT:  172081355 MISS:    8997783 MSHR_MERGE:    3707721
cpu0->cpu0_L1D TRANSLATION  ACCESS:          0 HIT:          0 MISS:          0 MSHR_MERGE:          0
cpu0->cpu0_L1D PREFETCH REQUESTED:          0 ISSUED:          0 USEFUL:          0 USELESS:          0
cpu0->cpu0_L1D AVERAGE MISS LATENCY: 51.96 cycles
cpu0->cpu0_ITLB TOTAL        ACCESS:  364647371 HIT:  364647370 MISS:          1 MSHR_MERGE:          0
cpu0->cpu0_ITLB LOAD         ACCESS:  364647371 HIT:  364647370 MISS:          1 MSHR_MERGE:          0
cpu0->cpu0_ITLB RFO          ACCESS:          0 HIT:          0 MISS:          0 MSHR_MERGE:          0
cpu0->cpu0_ITLB PREFETCH     ACCESS:          0 HIT:          0 MISS:          0 MSHR_MERGE:          0
cpu0->cpu0_ITLB WRITE        ACCESS:          0 HIT:          0 MISS:          0 MSHR_MERGE:          0
cpu0->cpu0_ITLB TRANSLATION  ACCESS:          0 HIT:          0 MISS:          0 MSHR_MERGE:          0
cpu0->cpu0_ITLB PREFETCH REQUESTED:          0 ISSUED:          0 USEFUL:          0 USELESS:          0
cpu0->cpu0_ITLB AVERAGE MISS LATENCY: 1.722e+04 cycles
cpu0->cpu0_DTLB TOTAL        ACCESS:  653282196 HIT:  614241455 MISS:   39040741 MSHR_MERGE:      18627
cpu0->cpu0_DTLB LOAD         ACCESS:  653282196 HIT:  614241455 MISS:   39040741 MSHR_MERGE:      18627
cpu0->cpu0_DTLB RFO          ACCESS:          0 HIT:          0 MISS:          0 MSHR_MERGE:          0
cpu0->cpu0_DTLB PREFETCH     ACCESS:          0 HIT:          0 MISS:          0 MSHR_MERGE:          0
cpu0->cpu0_DTLB WRITE        ACCESS:          0 HIT:          0 MISS:          0 MSHR_MERGE:          0
cpu0->cpu0_DTLB TRANSLATION  ACCESS:          0 HIT:          0 MISS:          0 MSHR_MERGE:          0
cpu0->cpu0_DTLB PREFETCH REQUESTED:          0 ISSUED:          0 USEFUL:          0 USELESS:          0
cpu0->cpu0_DTLB AVERAGE MISS LATENCY: 5.22 cycles
cpu0->LLC TOTAL        ACCESS:   25251978 HIT:   16383806 MISS:    8868172 MSHR_MERGE:          0
cpu0->LLC LOAD         ACCESS:   14891262 HIT:    7671927 MISS:    7219335 MSHR_MERGE:          0
cpu0->LLC RFO          ACCESS:    4431861 HIT:    2788348 MISS:    1643513 MSHR_MERGE:          0
cpu0->LLC PREFETCH     ACCESS:          0 HIT:          0 MISS:          0 MSHR_MERGE:          0
cpu0->LLC WRITE        ACCESS:    5928855 HIT:    5923531 MISS:       5324 MSHR_MERGE:          0
cpu0->LLC TRANSLATION  ACCESS:          0 HIT:          0 MISS:          0 MSHR_MERGE:          0
cpu0->LLC PREFETCH REQUESTED:          0 ISSUED:          0 USEFUL:          0 USELESS:          0
cpu0->LLC AVERAGE MISS LATENCY: 102 cycles

DRAM Statistics

Channel 0 RQ ROW_BUFFER_HIT:      77372
  ROW_BUFFER_MISS:    4354249
  AVG DBUS CONGESTED CYCLE: 11.47
Channel 0 WQ ROW_BUFFER_HIT:     179822
  ROW_BUFFER_MISS:     678547
  FULL:          0
Channel 0 REFRESHES ISSUED:     140858

Channel 1 RQ ROW_BUFFER_HIT:      77329
  ROW_BUFFER_MISS:    4355517
  AVG DBUS CONGESTED CYCLE: 11.46
Channel 1 WQ ROW_BUFFER_HIT:     179915
  ROW_BUFFER_MISS:     678181
  FULL:          0
Channel 1 REFRESHES ISSUED:     140858
