
*** ChampSim Multicore Out-of-Order Simulator ***
Warmup Instructions: 0
Simulation Instructions: 9223372036854775807
Number of CPUs: 1
Page size: 1048576

Off-chip DRAM Size: 32 GiB Channels: 2 Width: 32-bit Data Rate: 4807 MT/s
[ERROR_PAGE_MANAGER] Error latency: 2459910500 
[ERROR_PAGE_MANAGER] Random seed: 54321 (fixed for preload reproducibility)
[ERROR_PAGE_MANAGER] Cycle-based error modeling enabled
[ERROR_PAGE_MANAGER] Errors per interval: 1
[ERROR_PAGE_MANAGER] Error cycle interval: 70532401 cycles

=== ERROR PAGE STATISTICS ===
Mode: CYCLE
Error Cycle Interval: 70532401 CPU cycles
Total Error Accesses: 0
==============================
Warmup finished CPU 0 instructions: 0 cycles: 1 cumulative IPC: 0 (Simulation time: 00 hr 00 min 00 sec)
Warmup complete CPU 0 instructions: 0 cycles: 1 cumulative IPC: 0 (Simulation time: 00 hr 00 min 00 sec)
Simulation CPU 0 panic: IPC 0 < 0.01
Simulation CPU 0 panic: IPC 2e-06 < 0.01
Simulation CPU 0 panic: IPC 0 < 0.01
Simulation CPU 0 panic: IPC 2.52e-05 < 0.01
Simulation CPU 0 panic: IPC 0.000543 < 0.01
Simulation CPU 0 panic: IPC 0.0003794 < 0.01
Simulation CPU 0 panic: IPC 7.5e-06 < 0.01
[ERROR_CYCLE] Error added at CPU cycle 70532402, interval 1, pending count: 1
[DRAM_CYCLE_ERROR] Cycle-based error applied! address=0x537c0fe20 additional_latency=2459910500 cycles
Simulation CPU 0 panic: IPC 0 < 0.01
Simulation CPU 0 panic: IPC 2.1e-06 < 0.01
Simulation CPU 0 panic: IPC 1.7e-06 < 0.01
Simulation CPU 0 panic: IPC 1.11e-05 < 0.01
Simulation CPU 0 panic: IPC 1e-07 < 0.01
Simulation CPU 0 panic: IPC 4e-07 < 0.01
Simulation CPU 0 panic: IPC 4e-06 < 0.01
[ERROR_CYCLE] Error added at CPU cycle 141064802, interval 2, pending count: 1
[DRAM_CYCLE_ERROR] Cycle-based error applied! address=0x70c72ee48 additional_latency=2459910500 cycles
Simulation CPU 0 panic: IPC 0 < 0.01
Simulation CPU 0 panic: IPC 8e-06 < 0.01
Simulation CPU 0 panic: IPC 0.0030956 < 0.01
Simulation CPU 0 critical: IPC 0.018621 < 0.02
Simulation CPU 0 critical: IPC 0.015891 < 0.02
Simulation CPU 0 panic: IPC 0.0027506 < 0.01
Simulation CPU 0 warning: IPC 0.021759 < 0.05
[ERROR_CYCLE] Error added at CPU cycle 211597203, interval 3, pending count: 1
[DRAM_CYCLE_ERROR] Cycle-based error applied! address=0x1f429bdc0 additional_latency=2459910500 cycles
Simulation CPU 0 panic: IPC 0 < 0.01
Simulation CPU 0 warning: IPC 0.024809 < 0.05
Simulation CPU 0 warning: IPC 0.037198 < 0.05
Simulation CPU 0 panic: IPC 7.2e-06 < 0.01
Simulation CPU 0 panic: IPC 8e-06 < 0.01
Simulation CPU 0 panic: IPC 0.0061778 < 0.01
Simulation CPU 0 panic: IPC 0.0061606 < 0.01
[ERROR_CYCLE] Error added at CPU cycle 282129604, interval 4, pending count: 1
[DRAM_CYCLE_ERROR] Cycle-based error applied! address=0x309f8b898 additional_latency=2459910500 cycles
Simulation CPU 0 panic: IPC 0 < 0.01
Simulation CPU 0 panic: IPC 0.0093766 < 0.01
Simulation CPU 0 panic: IPC 0.0059319 < 0.01
Simulation CPU 0 critical: IPC 0.012699 < 0.02
Simulation CPU 0 critical: IPC 0.012403 < 0.02
Simulation CPU 0 critical: IPC 0.018633 < 0.02
[ERROR_CYCLE] Error added at CPU cycle 352662006, interval 5, pending count: 1
[DRAM_CYCLE_ERROR] Cycle-based error applied! address=0x537c2bbe0 additional_latency=2459910500 cycles
Simulation CPU 0 panic: IPC 0.009306 < 0.01
Simulation CPU 0 panic: IPC 0 < 0.01
Simulation CPU 0 panic: IPC 0.003084 < 0.01
Simulation CPU 0 panic: IPC 1.84e-05 < 0.01
Simulation CPU 0 panic: IPC 0.0084984 < 0.01
Simulation CPU 0 critical: IPC 0.010128 < 0.02
Simulation CPU 0 panic: IPC 0.0030958 < 0.01
[ERROR_CYCLE] Error added at CPU cycle 423194407, interval 6, pending count: 1
[DRAM_CYCLE_ERROR] Cycle-based error applied! address=0x46b1a1210 additional_latency=2459910500 cycles
Simulation CPU 0 panic: IPC 0 < 0.01
Simulation CPU 0 critical: IPC 0.018635 < 0.02
Simulation CPU 0 critical: IPC 0.015525 < 0.02
Simulation CPU 0 panic: IPC 0.003084 < 0.01
Simulation CPU 0 panic: IPC 0.0093209 < 0.01
Simulation CPU 0 warning: IPC 0.040334 < 0.05
[ERROR_CYCLE] Error added at CPU cycle 493726807, interval 7, pending count: 1
[DRAM_CYCLE_ERROR] Cycle-based error applied! address=0x7589155e8 additional_latency=2459910500 cycles
Simulation CPU 0 panic: IPC 0 < 0.01
Simulation CPU 0 panic: IPC 0.0003344 < 0.01
Simulation CPU 0 panic: IPC 0.0001264 < 0.01
Simulation CPU 0 panic: IPC 8e-07 < 0.01
Simulation CPU 0 panic: IPC 1.6e-06 < 0.01
Simulation CPU 0 panic: IPC 8e-07 < 0.01
[ERROR_CYCLE] Error added at CPU cycle 564259208, interval 8, pending count: 1
[DRAM_CYCLE_ERROR] Cycle-based error applied! address=0x391ce6ac8 additional_latency=2459910500 cycles
Simulation CPU 0 panic: IPC 0 < 0.01
Simulation CPU 0 panic: IPC 9.6e-06 < 0.01
Simulation CPU 0 panic: IPC 8e-07 < 0.01
Simulation CPU 0 panic: IPC 0.0010825 < 0.01
Simulation CPU 0 critical: IPC 0.012459 < 0.02
Simulation CPU 0 critical: IPC 0.010631 < 0.02
Simulation CPU 0 critical: IPC 0.011066 < 0.02
[ERROR_CYCLE] Error added at CPU cycle 634791609, interval 9, pending count: 1
[DRAM_CYCLE_ERROR] Cycle-based error applied! address=0x537c461a0 additional_latency=2459910500 cycles
Simulation CPU 0 panic: IPC 7.2e-06 < 0.01
Simulation CPU 0 panic: IPC 0 < 0.01
Simulation CPU 0 panic: IPC 0.003121 < 0.01
Simulation CPU 0 panic: IPC 0.0030986 < 0.01
Simulation CPU 0 warning: IPC 0.036728 < 0.05
[ERROR_CYCLE] Error added at CPU cycle 705324011, interval 10, pending count: 1
[DRAM_CYCLE_ERROR] Cycle-based error applied! address=0x45d423b08 additional_latency=2459910500 cycles
Simulation CPU 0 critical: IPC 0.01076 < 0.02
Simulation CPU 0 warning: IPC 0.044795 < 0.05
Simulation CPU 0 warning: IPC 0.029702 < 0.05
Heartbeat CPU 0 instructions: 10000002 cycles: 747451762 heartbeat IPC: 0.01338 cumulative IPC: 0.01338 (Simulation time: 00 hr 54 min 36 sec)
Simulation CPU 0 warning: IPC 0.02925 < 0.05
Simulation CPU 0 warning: IPC 0.04774 < 0.05
[ERROR_CYCLE] Error added at CPU cycle 775856412, interval 11, pending count: 1
[DRAM_CYCLE_ERROR] Cycle-based error applied! address=0x4c9400380 additional_latency=2459910500 cycles
Simulation CPU 0 panic: IPC 0 < 0.01
Simulation CPU 0 panic: IPC 0.0062037 < 0.01
Simulation CPU 0 panic: IPC 0.0039995 < 0.01
Simulation CPU 0 warning: IPC 0.02399 < 0.05
Simulation CPU 0 warning: IPC 0.03414 < 0.05
Simulation CPU 0 warning: IPC 0.022203 < 0.05
Simulation CPU 0 panic: IPC 0.0084508 < 0.01
[ERROR_CYCLE] Error added at CPU cycle 846388812, interval 12, pending count: 1
Simulation CPU 0 critical: IPC 0.012076 < 0.02
[DRAM_CYCLE_ERROR] Cycle-based error applied! address=0x537c586d8 additional_latency=2459910500 cycles
Simulation CPU 0 panic: IPC 0 < 0.01
Simulation CPU 0 panic: IPC 0.0071009 < 0.01
Simulation CPU 0 critical: IPC 0.018628 < 0.02
Simulation CPU 0 panic: IPC 8e-06 < 0.01
Simulation CPU 0 panic: IPC 0.0062191 < 0.01
[ERROR_CYCLE] Error added at CPU cycle 916921213, interval 13, pending count: 1
[DRAM_CYCLE_ERROR] Cycle-based error applied! address=0x537c5e6f0 additional_latency=2459910500 cycles
Simulation CPU 0 panic: IPC 0.000472 < 0.01
Simulation CPU 0 panic: IPC 0 < 0.01
Simulation CPU 0 warning: IPC 0.046519 < 0.05
Simulation CPU 0 warning: IPC 0.027922 < 0.05
Simulation CPU 0 warning: IPC 0.028193 < 0.05
[ERROR_CYCLE] Error added at CPU cycle 987453615, interval 14, pending count: 1
Simulation CPU 0 panic: IPC 0.000504 < 0.01
[DRAM_CYCLE_ERROR] Cycle-based error applied! address=0x537c643d8 additional_latency=2459910500 cycles
Simulation CPU 0 panic: IPC 0 < 0.01
Simulation CPU 0 panic: IPC 8e-06 < 0.01
Simulation CPU 0 critical: IPC 0.014575 < 0.02
Simulation CPU 0 panic: IPC 0.003084 < 0.01
Simulation CPU 0 warning: IPC 0.021741 < 0.05
[ERROR_CYCLE] Error added at CPU cycle 1057986016, interval 15, pending count: 1
[DRAM_CYCLE_ERROR] Cycle-based error applied! address=0x537c6a720 additional_latency=2459910500 cycles
Simulation CPU 0 critical: IPC 0.018644 < 0.02
Simulation CPU 0 panic: IPC 0 < 0.01
Simulation CPU 0 critical: IPC 0.013816 < 0.02
Heartbeat CPU 0 instructions: 20000002 cycles: 1108569719 heartbeat IPC: 0.02769 cumulative IPC: 0.01804 (Simulation time: 01 hr 21 min 48 sec)
Simulation CPU 0 warning: IPC 0.021011 < 0.05
[ERROR_CYCLE] Error added at CPU cycle 1128518416, interval 16, pending count: 1
[DRAM_CYCLE_ERROR] Cycle-based error applied! address=0x1fae9e68 additional_latency=2459910500 cycles
Simulation CPU 0 panic: IPC 0 < 0.01
Simulation CPU 0 panic: IPC 8e-06 < 0.01
Simulation CPU 0 warning: IPC 0.021704 < 0.05
Simulation CPU 0 warning: IPC 0.049472 < 0.05
Simulation CPU 0 warning: IPC 0.031725 < 0.05
[ERROR_CYCLE] Error added at CPU cycle 1199050817, interval 17, pending count: 1
[DRAM_CYCLE_ERROR] Cycle-based error applied! address=0x56bd00020 additional_latency=2459910500 cycles
Simulation CPU 0 panic: IPC 0 < 0.01
Simulation CPU 0 critical: IPC 0.015526 < 0.02
Simulation CPU 0 warning: IPC 0.021714 < 0.05
Simulation CPU 0 critical: IPC 0.01551 < 0.02
Simulation CPU 0 critical: IPC 0.018613 < 0.02
[ERROR_CYCLE] Error added at CPU cycle 1269583218, interval 18, pending count: 1
Simulation CPU 0 critical: IPC 0.012392 < 0.02
[DRAM_CYCLE_ERROR] Cycle-based error applied! address=0x4f75e90b8 additional_latency=2459910500 cycles
Simulation CPU 0 panic: IPC 0 < 0.01
Simulation CPU 0 panic: IPC 0.0093017 < 0.01
Simulation CPU 0 critical: IPC 0.015508 < 0.02
Simulation CPU 0 warning: IPC 0.034145 < 0.05
Simulation CPU 0 critical: IPC 0.012406 < 0.02
Simulation CPU 0 warning: IPC 0.037298 < 0.05
Simulation CPU 0 panic: IPC 0.0031301 < 0.01
[ERROR_CYCLE] Error added at CPU cycle 1340115620, interval 19, pending count: 1
[DRAM_CYCLE_ERROR] Cycle-based error applied! address=0x25a5bc508 additional_latency=2459910500 cycles
Simulation CPU 0 panic: IPC 0 < 0.01
Simulation CPU 0 critical: IPC 0.015537 < 0.02
Simulation CPU 0 panic: IPC 0.000472 < 0.01
Simulation CPU 0 critical: IPC 0.017331 < 0.02
Simulation CPU 0 critical: IPC 0.010612 < 0.02
Simulation CPU 0 warning: IPC 0.036737 < 0.05
[ERROR_CYCLE] Error added at CPU cycle 1410648021, interval 20, pending count: 1
[DRAM_CYCLE_ERROR] Cycle-based error applied! address=0x537c88028 additional_latency=2459910500 cycles
Simulation CPU 0 panic: IPC 0 < 0.01
Simulation CPU 0 warning: IPC 0.024809 < 0.05
Simulation CPU 0 panic: IPC 0.0062005 < 0.01
Simulation CPU 0 warning: IPC 0.049616 < 0.05
Simulation CPU 0 panic: IPC 0.009301 < 0.01
Simulation CPU 0 panic: IPC 0.0031048 < 0.01
Simulation CPU 0 warning: IPC 0.034131 < 0.05
[ERROR_CYCLE] Error added at CPU cycle 1481180421, interval 21, pending count: 1
[DRAM_CYCLE_ERROR] Cycle-based error applied! address=0x537c8e7d8 additional_latency=2459910500 cycles
Simulation CPU 0 panic: IPC 0 < 0.01
Simulation CPU 0 critical: IPC 0.015517 < 0.02
Heartbeat CPU 0 instructions: 30000004 cycles: 1507214624 heartbeat IPC: 0.02508 cumulative IPC: 0.0199 (Simulation time: 01 hr 51 min 59 sec)
Simulation CPU 0 warning: IPC 0.037211 < 0.05
Simulation CPU 0 critical: IPC 0.012412 < 0.02
Simulation CPU 0 panic: IPC 0.0031018 < 0.01
Simulation CPU 0 panic: IPC 0 < 0.01
Simulation CPU 0 panic: IPC 0.007081 < 0.01
[ERROR_CYCLE] Error added at CPU cycle 1551712822, interval 22, pending count: 1
[DRAM_CYCLE_ERROR] Cycle-based error applied! address=0x537c957e8 additional_latency=2459910500 cycles
Simulation CPU 0 panic: IPC 0.0040161 < 0.01
Simulation CPU 0 warning: IPC 0.031879 < 0.05
Simulation CPU 0 warning: IPC 0.030065 < 0.05
Simulation CPU 0 critical: IPC 0.013801 < 0.02
Simulation CPU 0 panic: IPC 1.59e-05 < 0.01
Simulation CPU 0 critical: IPC 0.015504 < 0.02
Simulation CPU 0 panic: IPC 0.0073798 < 0.01
[ERROR_CYCLE] Error added at CPU cycle 1622245223, interval 23, pending count: 1
[DRAM_CYCLE_ERROR] Cycle-based error applied! address=0x537c9b7f8 additional_latency=2459910500 cycles
Simulation CPU 0 panic: IPC 0 < 0.01
Simulation CPU 0 warning: IPC 0.031614 < 0.05
Simulation CPU 0 panic: IPC 3.2e-06 < 0.01
Simulation CPU 0 panic: IPC 8.4e-05 < 0.01
Simulation CPU 0 panic: IPC 5.6e-06 < 0.01
Simulation CPU 0 warning: IPC 0.022949 < 0.05
Simulation CPU 0 critical: IPC 0.016396 < 0.02
[ERROR_CYCLE] Error added at CPU cycle 1692777625, interval 24, pending count: 1
[DRAM_CYCLE_ERROR] Cycle-based error applied! address=0xa4000020 additional_latency=2459910500 cycles
Simulation CPU 0 panic: IPC 0 < 0.01
Simulation CPU 0 warning: IPC 0.039447 < 0.05
Simulation CPU 0 panic: IPC 0.006212 < 0.01
Simulation CPU 0 panic: IPC 0.0031088 < 0.01
Simulation CPU 0 warning: IPC 0.024504 < 0.05
Simulation CPU 0 warning: IPC 0.043736 < 0.05
Simulation CPU 0 panic: IPC 0.0085768 < 0.01
[ERROR_CYCLE] Error added at CPU cycle 1763310025, interval 25, pending count: 1
[DRAM_CYCLE_ERROR] Cycle-based error applied! address=0x537ca8580 additional_latency=2459910500 cycles
Simulation CPU 0 warning: IPC 0.021453 < 0.05
Simulation CPU 0 panic: IPC 0 < 0.01
Simulation CPU 0 panic: IPC 0.0041138 < 0.01
Simulation CPU 0 warning: IPC 0.020862 < 0.05
Simulation CPU 0 warning: IPC 0.038062 < 0.05
Simulation CPU 0 panic: IPC 0.0062027 < 0.01
Simulation CPU 0 panic: IPC 0.0031156 < 0.01
[ERROR_CYCLE] Error added at CPU cycle 1833842426, interval 26, pending count: 1
[DRAM_CYCLE_ERROR] Cycle-based error applied! address=0x537caefa0 additional_latency=2459910500 cycles
Simulation CPU 0 warning: IPC 0.037205 < 0.05
Simulation CPU 0 panic: IPC 0 < 0.01
Simulation CPU 0 critical: IPC 0.013784 < 0.02
Simulation CPU 0 warning: IPC 0.029684 < 0.05
Simulation CPU 0 warning: IPC 0.029933 < 0.05
Simulation CPU 0 panic: IPC 0.0062091 < 0.01
[ERROR_CYCLE] Error added at CPU cycle 1904374827, interval 27, pending count: 1
[DRAM_CYCLE_ERROR] Cycle-based error applied! address=0x537cb4f78 additional_latency=2459910500 cycles
Simulation CPU 0 panic: IPC 0.0031298 < 0.01
Simulation CPU 0 panic: IPC 0.0062028 < 0.01
Simulation CPU 0 critical: IPC 0.018643 < 0.02
Simulation CPU 0 critical: IPC 0.018628 < 0.02
Simulation CPU 0 panic: IPC 0.000472 < 0.01
Simulation CPU 0 critical: IPC 0.011207 < 0.02
Simulation CPU 0 warning: IPC 0.025583 < 0.05
[ERROR_CYCLE] Error added at CPU cycle 1974907229, interval 28, pending count: 1
[DRAM_CYCLE_ERROR] Cycle-based error applied! address=0x1df2cd8f0 additional_latency=2459910500 cycles
Simulation CPU 0 panic: IPC 0 < 0.01
Simulation CPU 0 panic: IPC 0.0031006 < 0.01
Simulation CPU 0 warning: IPC 0.021719 < 0.05
Simulation CPU 0 critical: IPC 0.011128 < 0.02
Simulation CPU 0 critical: IPC 0.013677 < 0.02
Simulation CPU 0 critical: IPC 0.012404 < 0.02
[ERROR_CYCLE] Error added at CPU cycle 2045439630, interval 29, pending count: 1
[DRAM_CYCLE_ERROR] Cycle-based error applied! address=0x335b0eb08 additional_latency=2459910500 cycles
Simulation CPU 0 panic: IPC 0 < 0.01
Simulation CPU 0 panic: IPC 0.0031006 < 0.01
Heartbeat CPU 0 instructions: 40000005 cycles: 2078001428 heartbeat IPC: 0.01752 cumulative IPC: 0.01925 (Simulation time: 02 hr 34 min 09 sec)
Simulation CPU 0 warning: IPC 0.029976 < 0.05
[ERROR_CYCLE] Error added at CPU cycle 2115972030, interval 30, pending count: 1
[DRAM_CYCLE_ERROR] Cycle-based error applied! address=0x537cc6f28 additional_latency=2459910500 cycles
Simulation CPU 0 warning: IPC 0.034142 < 0.05
Simulation CPU 0 panic: IPC 0 < 0.01
Simulation CPU 0 warning: IPC 0.040305 < 0.05
Simulation CPU 0 warning: IPC 0.030423 < 0.05
Simulation CPU 0 warning: IPC 0.047096 < 0.05
Simulation CPU 0 warning: IPC 0.027917 < 0.05
Simulation CPU 0 panic: IPC 0.0093076 < 0.01
[ERROR_CYCLE] Error added at CPU cycle 2186504431, interval 31, pending count: 1
Simulation CPU 0 panic: IPC 0.0066835 < 0.01
[DRAM_CYCLE_ERROR] Cycle-based error applied! address=0x52c1c5dc8 additional_latency=2459910500 cycles
Simulation CPU 0 panic: IPC 0 < 0.01
Simulation CPU 0 critical: IPC 0.013914 < 0.02
Simulation CPU 0 warning: IPC 0.042126 < 0.05
Simulation CPU 0 warning: IPC 0.044396 < 0.05
[ERROR_CYCLE] Error added at CPU cycle 2257036832, interval 32, pending count: 1
[DRAM_CYCLE_ERROR] Cycle-based error applied! address=0x537cd2ef0 additional_latency=2459910500 cycles
Simulation CPU 0 warning: IPC 0.03002 < 0.05
Simulation CPU 0 panic: IPC 0 < 0.01
Simulation CPU 0 warning: IPC 0.046924 < 0.05
Simulation CPU 0 warning: IPC 0.024422 < 0.05
Simulation CPU 0 critical: IPC 0.012422 < 0.02
Simulation CPU 0 critical: IPC 0.012448 < 0.02
Simulation CPU 0 panic: IPC 0.0093099 < 0.01
[ERROR_CYCLE] Error added at CPU cycle 2327569234, interval 33, pending count: 1
Simulation CPU 0 panic: IPC 0.0093221 < 0.01
[DRAM_CYCLE_ERROR] Cycle-based error applied! address=0x49cf0710 additional_latency=2459910500 cycles
Simulation CPU 0 panic: IPC 0 < 0.01
Simulation CPU 0 warning: IPC 0.046528 < 0.05
Simulation CPU 0 warning: IPC 0.044912 < 0.05
Simulation CPU 0 warning: IPC 0.032624 < 0.05
Simulation CPU 0 warning: IPC 0.04032 < 0.05
Heartbeat CPU 0 instructions: 50000009 cycles: 2383079887 heartbeat IPC: 0.03278 cumulative IPC: 0.02098 (Simulation time: 02 hr 57 min 05 sec)
Simulation CPU 0 warning: IPC 0.035837 < 0.05
[ERROR_CYCLE] Error added at CPU cycle 2398101635, interval 34, pending count: 1
Simulation CPU 0 warning: IPC 0.029294 < 0.05
[DRAM_CYCLE_ERROR] Cycle-based error applied! address=0x5ea007278 additional_latency=2459910500 cycles
Simulation CPU 0 panic: IPC 0 < 0.01
Simulation CPU 0 warning: IPC 0.027913 < 0.05
Simulation CPU 0 critical: IPC 0.012347 < 0.02
Simulation CPU 0 panic: IPC 0.0062664 < 0.01
Simulation CPU 0 warning: IPC 0.046498 < 0.05
Simulation CPU 0 panic: IPC 0.0031165 < 0.01
[ERROR_CYCLE] Error added at CPU cycle 2468634035, interval 35, pending count: 1
Simulation CPU 0 warning: IPC 0.024802 < 0.05
[DRAM_CYCLE_ERROR] Cycle-based error applied! address=0x4cd5e62c8 additional_latency=2459910500 cycles
Simulation CPU 0 panic: IPC 0 < 0.01
Simulation CPU 0 panic: IPC 0.0057332 < 0.01
Simulation CPU 0 warning: IPC 0.025781 < 0.05
Simulation CPU 0 warning: IPC 0.035779 < 0.05
[ERROR_CYCLE] Error added at CPU cycle 2539166436, interval 36, pending count: 1
Simulation CPU 0 panic: IPC 0.0094624 < 0.01
[DRAM_CYCLE_ERROR] Cycle-based error applied! address=0x28f500018 additional_latency=2459910500 cycles
Simulation CPU 0 panic: IPC 0 < 0.01
Simulation CPU 0 warning: IPC 0.021707 < 0.05
Simulation CPU 0 warning: IPC 0.042239 < 0.05
Simulation CPU 0 warning: IPC 0.031905 < 0.05
[ERROR_CYCLE] Error added at CPU cycle 2609698838, interval 37, pending count: 1
Simulation CPU 0 panic: IPC 0.0084106 < 0.01
[DRAM_CYCLE_ERROR] Cycle-based error applied! address=0x3c13f7048 additional_latency=2459910500 cycles
Simulation CPU 0 panic: IPC 0 < 0.01
Simulation CPU 0 warning: IPC 0.04377 < 0.05
Simulation CPU 0 panic: IPC 0.0049182 < 0.01
Simulation CPU 0 panic: IPC 0.0002752 < 0.01
Simulation CPU 0 panic: IPC 0.0004992 < 0.01
Simulation CPU 0 warning: IPC 0.037378 < 0.05
Simulation CPU 0 critical: IPC 0.012407 < 0.02
[ERROR_CYCLE] Error added at CPU cycle 2680231239, interval 38, pending count: 1
[DRAM_CYCLE_ERROR] Cycle-based error applied! address=0x574a009a0 additional_latency=2459910500 cycles
Simulation CPU 0 panic: IPC 0 < 0.01
Simulation CPU 0 critical: IPC 0.016256 < 0.02
Simulation CPU 0 warning: IPC 0.047494 < 0.05
Simulation CPU 0 critical: IPC 0.010089 < 0.02
[ERROR_CYCLE] Error added at CPU cycle 2750763639, interval 39, pending count: 1
[DRAM_CYCLE_ERROR] Cycle-based error applied! address=0x8e204c18 additional_latency=2459910500 cycles
Simulation CPU 0 panic: IPC 0 < 0.01
Heartbeat CPU 0 instructions: 60000012 cycles: 2763274694 heartbeat IPC: 0.0263 cumulative IPC: 0.02171 (Simulation time: 03 hr 29 min 48 sec)
Simulation CPU 0 warning: IPC 0.030063 < 0.05
Simulation CPU 0 panic: IPC 0.0071695 < 0.01
Simulation CPU 0 panic: IPC 0.0062084 < 0.01
Simulation CPU 0 critical: IPC 0.018601 < 0.02
Simulation CPU 0 panic: IPC 0.0031085 < 0.01
[ERROR_CYCLE] Error added at CPU cycle 2821296040, interval 40, pending count: 1
[DRAM_CYCLE_ERROR] Cycle-based error applied! address=0x61b905818 additional_latency=2459910500 cycles
Simulation CPU 0 panic: IPC 0.0017536 < 0.01
Simulation CPU 0 warning: IPC 0.022512 < 0.05
Simulation CPU 0 critical: IPC 0.015975 < 0.02
Simulation CPU 0 critical: IPC 0.016903 < 0.02
Simulation CPU 0 critical: IPC 0.013647 < 0.02
Simulation CPU 0 panic: IPC 0.009328 < 0.01
Simulation CPU 0 panic: IPC 0.0031036 < 0.01
[ERROR_CYCLE] Error added at CPU cycle 2891828441, interval 41, pending count: 1
[DRAM_CYCLE_ERROR] Cycle-based error applied! address=0x7d7209dd0 additional_latency=2459910500 cycles
Simulation CPU 0 panic: IPC 0 < 0.01
Simulation CPU 0 critical: IPC 0.012432 < 0.02
Simulation CPU 0 panic: IPC 0.003084 < 0.01
Simulation CPU 0 panic: IPC 0.0031205 < 0.01
Simulation CPU 0 panic: IPC 0.0031204 < 0.01
Simulation CPU 0 critical: IPC 0.015519 < 0.02
Simulation CPU 0 warning: IPC 0.037201 < 0.05
[ERROR_CYCLE] Error added at CPU cycle 2962360843, interval 42, pending count: 1
[DRAM_CYCLE_ERROR] Cycle-based error applied! address=0x6d769dac8 additional_latency=2459910500 cycles
Simulation CPU 0 panic: IPC 0 < 0.01
Simulation CPU 0 panic: IPC 0.0092978 < 0.01
Simulation CPU 0 critical: IPC 0.010541 < 0.02
Simulation CPU 0 warning: IPC 0.045318 < 0.05
Simulation CPU 0 panic: IPC 0.0040887 < 0.01
Simulation CPU 0 panic: IPC 0.0026126 < 0.01
[ERROR_CYCLE] Error added at CPU cycle 3032893244, interval 43, pending count: 1
[DRAM_CYCLE_ERROR] Cycle-based error applied! address=0x62a905b40 additional_latency=2459910500 cycles
Simulation CPU 0 panic: IPC 0 < 0.01
Simulation CPU 0 critical: IPC 0.015526 < 0.02
Simulation CPU 0 warning: IPC 0.049332 < 0.05
Simulation CPU 0 warning: IPC 0.041064 < 0.05
Simulation CPU 0 warning: IPC 0.02866 < 0.05
Simulation CPU 0 panic: IPC 0.006215 < 0.01
[ERROR_CYCLE] Error added at CPU cycle 3103425644, interval 44, pending count: 1
[DRAM_CYCLE_ERROR] Cycle-based error applied! address=0x61420acd0 additional_latency=2459910500 cycles
Simulation CPU 0 panic: IPC 0 < 0.01
Simulation CPU 0 warning: IPC 0.020633 < 0.05
Simulation CPU 0 warning: IPC 0.026898 < 0.05
Simulation CPU 0 panic: IPC 0.0031046 < 0.01
Simulation CPU 0 critical: IPC 0.016003 < 0.02
[ERROR_CYCLE] Error added at CPU cycle 3173958045, interval 45, pending count: 1
[DRAM_CYCLE_ERROR] Cycle-based error applied! address=0x4512dde08 additional_latency=2459910500 cycles
Simulation CPU 0 panic: IPC 0.0002959 < 0.01
Simulation CPU 0 panic: IPC 0.0023274 < 0.01
Simulation CPU 0 critical: IPC 0.010371 < 0.02
Heartbeat CPU 0 instructions: 70000012 cycles: 3226620911 heartbeat IPC: 0.02158 cumulative IPC: 0.02169 (Simulation time: 04 hr 07 min 07 sec)
Simulation CPU 0 panic: IPC 0.0001504 < 0.01
[ERROR_CYCLE] Error added at CPU cycle 3244490446, interval 46, pending count: 1
[DRAM_CYCLE_ERROR] Cycle-based error applied! address=0x13bd13740 additional_latency=2459910500 cycles
Simulation CPU 0 panic: IPC 0 < 0.01
Simulation CPU 0 panic: IPC 0.0005464 < 0.01
Simulation CPU 0 warning: IPC 0.047184 < 0.05
Simulation CPU 0 panic: IPC 0.0093234 < 0.01
Simulation CPU 0 panic: IPC 0.0030368 < 0.01
Simulation CPU 0 panic: IPC 0.0031966 < 0.01
Simulation CPU 0 critical: IPC 0.015536 < 0.02
[ERROR_CYCLE] Error added at CPU cycle 3315022848, interval 47, pending count: 1
[DRAM_CYCLE_ERROR] Cycle-based error applied! address=0x7d722ea38 additional_latency=2459910500 cycles
Simulation CPU 0 warning: IPC 0.03103 < 0.05
Simulation CPU 0 panic: IPC 0 < 0.01
Simulation CPU 0 critical: IPC 0.017233 < 0.02
Simulation CPU 0 panic: IPC 0.0018687 < 0.01
Simulation CPU 0 warning: IPC 0.028828 < 0.05
Simulation CPU 0 panic: IPC 0.0048377 < 0.01
Simulation CPU 0 panic: IPC 0.0062376 < 0.01
[ERROR_CYCLE] Error added at CPU cycle 3385555249, interval 48, pending count: 1
[DRAM_CYCLE_ERROR] Cycle-based error applied! address=0x7d72341b0 additional_latency=2459910500 cycles
Simulation CPU 0 panic: IPC 0.000472 < 0.01
Simulation CPU 0 panic: IPC 0 < 0.01
Simulation CPU 0 panic: IPC 0.0026286 < 0.01
Simulation CPU 0 warning: IPC 0.026306 < 0.05
Simulation CPU 0 warning: IPC 0.032605 < 0.05
Simulation CPU 0 panic: IPC 0.0029624 < 0.01
Simulation CPU 0 panic: IPC 0 < 0.01
[ERROR_CYCLE] Error added at CPU cycle 3456087649, interval 49, pending count: 1
[DRAM_CYCLE_ERROR] Cycle-based error applied! address=0x7d723b400 additional_latency=2459910500 cycles
Simulation CPU 0 panic: IPC 4.24e-05 < 0.01
Simulation CPU 0 panic: IPC 0 < 0.01
Simulation CPU 0 panic: IPC 6.08e-05 < 0.01
Simulation CPU 0 warning: IPC 0.024836 < 0.05
Simulation CPU 0 panic: IPC 0.003113 < 0.01
Simulation CPU 0 panic: IPC 0.0062012 < 0.01
Simulation CPU 0 warning: IPC 0.030199 < 0.05
[ERROR_CYCLE] Error added at CPU cycle 3526620050, interval 50, pending count: 1
[DRAM_CYCLE_ERROR] Cycle-based error applied! address=0x2d603b80 additional_latency=2459910500 cycles
Simulation CPU 0 panic: IPC 0 < 0.01
Simulation CPU 0 panic: IPC 0.0031052 < 0.01
Simulation CPU 0 warning: IPC 0.029489 < 0.05
Simulation CPU 0 warning: IPC 0.02969 < 0.05
Simulation CPU 0 warning: IPC 0.02976 < 0.05
[ERROR_CYCLE] Error added at CPU cycle 3597152452, interval 51, pending count: 1
Simulation CPU 0 panic: IPC 0.0002752 < 0.01
[DRAM_CYCLE_ERROR] Cycle-based error applied! address=0x46f7acfe0 additional_latency=2459910500 cycles
Simulation CPU 0 panic: IPC 8.32e-05 < 0.01
Simulation CPU 0 warning: IPC 0.023593 < 0.05
Simulation CPU 0 warning: IPC 0.03659 < 0.05
Simulation CPU 0 panic: IPC 0.0052251 < 0.01
[ERROR_CYCLE] Error added at CPU cycle 3667684853, interval 52, pending count: 1
Simulation CPU 0 warning: IPC 0.021098 < 0.05
[DRAM_CYCLE_ERROR] Cycle-based error applied! address=0x4714a2068 additional_latency=2459910500 cycles
Simulation CPU 0 panic: IPC 0 < 0.01
Simulation CPU 0 critical: IPC 0.019532 < 0.02
Simulation CPU 0 warning: IPC 0.021264 < 0.05
Simulation CPU 0 warning: IPC 0.038555 < 0.05
Simulation CPU 0 critical: IPC 0.011386 < 0.02
Simulation CPU 0 warning: IPC 0.048049 < 0.05
[ERROR_CYCLE] Error added at CPU cycle 3738217253, interval 53, pending count: 1
[DRAM_CYCLE_ERROR] Cycle-based error applied! address=0x58b36ddb0 additional_latency=2459910500 cycles
Simulation CPU 0 critical: IPC 0.01628 < 0.02
Simulation CPU 0 panic: IPC 1.56e-05 < 0.01
Simulation CPU 0 panic: IPC 0.003104 < 0.01
Simulation CPU 0 panic: IPC 0.0093379 < 0.01
Simulation CPU 0 critical: IPC 0.015509 < 0.02
Simulation CPU 0 panic: IPC 0.0093226 < 0.01
Simulation CPU 0 panic: IPC 0.0030953 < 0.01
[ERROR_CYCLE] Error added at CPU cycle 3808749654, interval 54, pending count: 1
Simulation CPU 0 warning: IPC 0.024829 < 0.05
[DRAM_CYCLE_ERROR] Cycle-based error applied! address=0x7d725ac50 additional_latency=2459910500 cycles
Simulation CPU 0 panic: IPC 0 < 0.01
Heartbeat CPU 0 instructions: 80000016 cycles: 3825740137 heartbeat IPC: 0.01669 cumulative IPC: 0.02091 (Simulation time: 04 hr 52 min 50 sec)
Simulation CPU 0 critical: IPC 0.019239 < 0.02
Simulation CPU 0 critical: IPC 0.018027 < 0.02
Simulation CPU 0 critical: IPC 0.01551 < 0.02
Simulation CPU 0 panic: IPC 0.0062118 < 0.01
Simulation CPU 0 warning: IPC 0.049092 < 0.05
[ERROR_CYCLE] Error added at CPU cycle 3879282055, interval 55, pending count: 1
[DRAM_CYCLE_ERROR] Cycle-based error applied! address=0x2e85420b0 additional_latency=2459910500 cycles
Simulation CPU 0 panic: IPC 0.0067248 < 0.01
Simulation CPU 0 panic: IPC 0.0031086 < 0.01
Simulation CPU 0 warning: IPC 0.021707 < 0.05
Simulation CPU 0 panic: IPC 0.0031162 < 0.01
Simulation CPU 0 warning: IPC 0.031003 < 0.05
Simulation CPU 0 critical: IPC 0.015517 < 0.02
Simulation CPU 0 critical: IPC 0.011644 < 0.02
[ERROR_CYCLE] Error added at CPU cycle 3949814457, interval 56, pending count: 1
[DRAM_CYCLE_ERROR] Cycle-based error applied! address=0x7d7267c68 additional_latency=2459910500 cycles
Simulation CPU 0 panic: IPC 0 < 0.01
Simulation CPU 0 critical: IPC 0.019609 < 0.02
Simulation CPU 0 panic: IPC 0.0093115 < 0.01
Simulation CPU 0 critical: IPC 0.015503 < 0.02
Simulation CPU 0 panic: IPC 7.2e-06 < 0.01
Simulation CPU 0 panic: IPC 0.0030999 < 0.01
Simulation CPU 0 critical: IPC 0.014887 < 0.02
[ERROR_CYCLE] Error added at CPU cycle 4020346858, interval 57, pending count: 1
[DRAM_CYCLE_ERROR] Cycle-based error applied! address=0x70500008 additional_latency=2459910500 cycles
Simulation CPU 0 panic: IPC 0 < 0.01
Simulation CPU 0 critical: IPC 0.014667 < 0.02
Simulation CPU 0 warning: IPC 0.035802 < 0.05
[ERROR_CYCLE] Error added at CPU cycle 4090879258, interval 58, pending count: 1
[DRAM_CYCLE_ERROR] Cycle-based error applied! address=0x7d7273cc8 additional_latency=2459910500 cycles
Simulation CPU 0 panic: IPC 0 < 0.01
Simulation CPU 0 warning: IPC 0.03195 < 0.05
Simulation CPU 0 warning: IPC 0.029905 < 0.05
Simulation CPU 0 warning: IPC 0.049037 < 0.05
Simulation CPU 0 warning: IPC 0.03064 < 0.05
[ERROR_CYCLE] Error added at CPU cycle 4161411659, interval 59, pending count: 1
[DRAM_CYCLE_ERROR] Cycle-based error applied! address=0x675c54ac0 additional_latency=2459910500 cycles
Simulation CPU 0 warning: IPC 0.035269 < 0.05
Heartbeat CPU 0 instructions: 90000018 cycles: 4182240839 heartbeat IPC: 0.02805 cumulative IPC: 0.02152 (Simulation time: 05 hr 20 min 32 sec)
Simulation CPU 0 warning: IPC 0.044167 < 0.05
Simulation CPU 0 critical: IPC 0.015484 < 0.02
Simulation CPU 0 warning: IPC 0.039333 < 0.05
Simulation CPU 0 panic: IPC 0.0015448 < 0.01
[ERROR_CYCLE] Error added at CPU cycle 4231944060, interval 60, pending count: 1
[DRAM_CYCLE_ERROR] Cycle-based error applied! address=0x57ffdb7b8 additional_latency=2459910500 cycles
Simulation CPU 0 panic: IPC 0 < 0.01
Simulation CPU 0 panic: IPC 0.0078785 < 0.01
Simulation CPU 0 panic: IPC 0.0031066 < 0.01
Simulation CPU 0 panic: IPC 0.000472 < 0.01
Simulation CPU 0 warning: IPC 0.049164 < 0.05
[ERROR_CYCLE] Error added at CPU cycle 4302476462, interval 61, pending count: 1
[DRAM_CYCLE_ERROR] Cycle-based error applied! address=0x103b0f758 additional_latency=2459910500 cycles
Simulation CPU 0 panic: IPC 0 < 0.01
Simulation CPU 0 warning: IPC 0.024824 < 0.05
Simulation CPU 0 critical: IPC 0.01241 < 0.02
Simulation CPU 0 panic: IPC 0.0093118 < 0.01
Simulation CPU 0 warning: IPC 0.02434 < 0.05
Simulation CPU 0 panic: IPC 0.0097679 < 0.01
[ERROR_CYCLE] Error added at CPU cycle 4373008862, interval 62, pending count: 1
[DRAM_CYCLE_ERROR] Cycle-based error applied! address=0x53e100020 additional_latency=2459910500 cycles
Simulation CPU 0 panic: IPC 0 < 0.01
Simulation CPU 0 warning: IPC 0.020319 < 0.05
Heartbeat CPU 0 instructions: 100000020 cycles: 4440528552 heartbeat IPC: 0.03872 cumulative IPC: 0.02252 (Simulation time: 05 hr 41 min 15 sec)
[ERROR_CYCLE] Error added at CPU cycle 4443541263, interval 63, pending count: 1
[DRAM_CYCLE_ERROR] Cycle-based error applied! address=0x7d7290d50 additional_latency=2459910500 cycles
Simulation CPU 0 warning: IPC 0.030821 < 0.05
Simulation CPU 0 panic: IPC 0.0049567 < 0.01
Simulation CPU 0 warning: IPC 0.048535 < 0.05
Simulation CPU 0 critical: IPC 0.017163 < 0.02
Simulation CPU 0 warning: IPC 0.023872 < 0.05
Simulation CPU 0 critical: IPC 0.016474 < 0.02
Simulation CPU 0 warning: IPC 0.037221 < 0.05
[ERROR_CYCLE] Error added at CPU cycle 4514073664, interval 64, pending count: 1
[DRAM_CYCLE_ERROR] Cycle-based error applied! address=0x7d7296d68 additional_latency=2459910500 cycles
Simulation CPU 0 panic: IPC 0 < 0.01
Simulation CPU 0 warning: IPC 0.027908 < 0.05
Simulation CPU 0 warning: IPC 0.033023 < 0.05
Simulation CPU 0 warning: IPC 0.025897 < 0.05
Simulation CPU 0 panic: IPC 0.0030953 < 0.01
Simulation CPU 0 critical: IPC 0.01553 < 0.02
Simulation CPU 0 critical: IPC 0.012412 < 0.02
[ERROR_CYCLE] Error added at CPU cycle 4584606066, interval 65, pending count: 1
[DRAM_CYCLE_ERROR] Cycle-based error applied! address=0x111525550 additional_latency=2459910500 cycles
Simulation CPU 0 panic: IPC 0 < 0.01
Simulation CPU 0 panic: IPC 0.0047915 < 0.01
Simulation CPU 0 critical: IPC 0.015513 < 0.02
Simulation CPU 0 panic: IPC 0.0031276 < 0.01
Simulation CPU 0 critical: IPC 0.0193 < 0.02
[ERROR_CYCLE] Error added at CPU cycle 4655138467, interval 66, pending count: 1
[DRAM_CYCLE_ERROR] Cycle-based error applied! address=0x1f1f00018 additional_latency=2459910500 cycles
Simulation CPU 0 panic: IPC 0 < 0.01
Simulation CPU 0 warning: IPC 0.027771 < 0.05
Simulation CPU 0 panic: IPC 0.0001359 < 0.01
Simulation CPU 0 panic: IPC 0.000472 < 0.01
[ERROR_CYCLE] Error added at CPU cycle 4725670867, interval 67, pending count: 1
[DRAM_CYCLE_ERROR] Cycle-based error applied! address=0x4a73feaa8 additional_latency=2459910500 cycles
Simulation CPU 0 panic: IPC 0 < 0.01
Simulation CPU 0 panic: IPC 0.0026305 < 0.01
Simulation CPU 0 panic: IPC 0.0062024 < 0.01
Simulation CPU 0 panic: IPC 0.0031166 < 0.01
Simulation CPU 0 critical: IPC 0.016991 < 0.02
Simulation CPU 0 panic: IPC 0.0016255 < 0.01
[ERROR_CYCLE] Error added at CPU cycle 4796203268, interval 68, pending count: 1
Simulation CPU 0 panic: IPC 0.0062184 < 0.01
[DRAM_CYCLE_ERROR] Cycle-based error applied! address=0x7d72afa70 additional_latency=2459910500 cycles
Simulation CPU 0 panic: IPC 0 < 0.01
Simulation CPU 0 critical: IPC 0.012414 < 0.02
Simulation CPU 0 warning: IPC 0.027767 < 0.05
Simulation CPU 0 critical: IPC 0.018799 < 0.02
Simulation CPU 0 panic: IPC 0.0062032 < 0.01
Simulation CPU 0 panic: IPC 0.0031018 < 0.01
[ERROR_CYCLE] Error added at CPU cycle 4866735669, interval 69, pending count: 1
[DRAM_CYCLE_ERROR] Cycle-based error applied! address=0x7d72b5e00 additional_latency=2459910500 cycles
Simulation CPU 0 panic: IPC 0.0062335 < 0.01
Simulation CPU 0 panic: IPC 0 < 0.01
Simulation CPU 0 warning: IPC 0.032549 < 0.05
Simulation CPU 0 panic: IPC 0.0093185 < 0.01
Simulation CPU 0 panic: IPC 0.0062274 < 0.01
Heartbeat CPU 0 instructions: 110000020 cycles: 4922956994 heartbeat IPC: 0.02073 cumulative IPC: 0.02234 (Simulation time: 06 hr 17 min 35 sec)
Simulation CPU 0 warning: IPC 0.027736 < 0.05
[ERROR_CYCLE] Error added at CPU cycle 4937268071, interval 70, pending count: 1
[DRAM_CYCLE_ERROR] Cycle-based error applied! address=0x7d72bbe28 additional_latency=2459910500 cycles
Simulation CPU 0 panic: IPC 0 < 0.01
Simulation CPU 0 warning: IPC 0.044337 < 0.05
Simulation CPU 0 critical: IPC 0.018666 < 0.02
Simulation CPU 0 critical: IPC 0.016531 < 0.02
[ERROR_CYCLE] Error added at CPU cycle 5007800472, interval 71, pending count: 1
Simulation CPU 0 panic: IPC 0.0051826 < 0.01
[DRAM_CYCLE_ERROR] Cycle-based error applied! address=0x7d72c19a8 additional_latency=2459910500 cycles
Simulation CPU 0 panic: IPC 0 < 0.01
Simulation CPU 0 warning: IPC 0.040354 < 0.05
Simulation CPU 0 warning: IPC 0.049623 < 0.05
Simulation CPU 0 panic: IPC 0.0031006 < 0.01
Simulation CPU 0 warning: IPC 0.039765 < 0.05
Simulation CPU 0 warning: IPC 0.042094 < 0.05
[ERROR_CYCLE] Error added at CPU cycle 5078332872, interval 72, pending count: 1
Simulation CPU 0 panic: IPC 0.0050182 < 0.01
[DRAM_CYCLE_ERROR] Cycle-based error applied! address=0x7d72c7970 additional_latency=2459910500 cycles
Simulation CPU 0 panic: IPC 0 < 0.01
Simulation CPU 0 panic: IPC 0.0031061 < 0.01
Simulation CPU 0 warning: IPC 0.027917 < 0.05
Simulation CPU 0 warning: IPC 0.027928 < 0.05
Simulation CPU 0 warning: IPC 0.02941 < 0.05
Simulation CPU 0 panic: IPC 0.0015956 < 0.01
[ERROR_CYCLE] Error added at CPU cycle 5148865273, interval 73, pending count: 1
[DRAM_CYCLE_ERROR] Cycle-based error applied! address=0x7d72cde98 additional_latency=2459910500 cycles
Simulation CPU 0 warning: IPC 0.040336 < 0.05
Simulation CPU 0 panic: IPC 0 < 0.01
Simulation CPU 0 panic: IPC 0.0031022 < 0.01
Simulation CPU 0 warning: IPC 0.034124 < 0.05
Simulation CPU 0 warning: IPC 0.033681 < 0.05
Simulation CPU 0 warning: IPC 0.03104 < 0.05
[ERROR_CYCLE] Error added at CPU cycle 5219397675, interval 74, pending count: 1
Simulation CPU 0 panic: IPC 0.009315 < 0.01
[DRAM_CYCLE_ERROR] Cycle-based error applied! address=0x517a16420 additional_latency=2459910500 cycles
Simulation CPU 0 panic: IPC 0 < 0.01
Simulation CPU 0 panic: IPC 0.0030953 < 0.01
Simulation CPU 0 critical: IPC 0.012429 < 0.02
Simulation CPU 0 panic: IPC 0.000472 < 0.01
Simulation CPU 0 panic: IPC 0.0026337 < 0.01
Simulation CPU 0 panic: IPC 0.0064357 < 0.01
[ERROR_CYCLE] Error added at CPU cycle 5289930076, interval 75, pending count: 1
Simulation CPU 0 warning: IPC 0.022723 < 0.05
[DRAM_CYCLE_ERROR] Cycle-based error applied! address=0x7d72daee0 additional_latency=2459910500 cycles
Simulation CPU 0 panic: IPC 0 < 0.01
Simulation CPU 0 warning: IPC 0.03287 < 0.05
Simulation CPU 0 critical: IPC 0.01552 < 0.02
Simulation CPU 0 warning: IPC 0.021712 < 0.05
Simulation CPU 0 panic: IPC 0.0031102 < 0.01
Simulation CPU 0 panic: IPC 0.0031226 < 0.01
Simulation CPU 0 critical: IPC 0.0124 < 0.02
[ERROR_CYCLE] Error added at CPU cycle 5360462476, interval 76, pending count: 1
[DRAM_CYCLE_ERROR] Cycle-based error applied! address=0x7d72e08f0 additional_latency=2459910500 cycles
Simulation CPU 0 panic: IPC 0 < 0.01
Simulation CPU 0 warning: IPC 0.040328 < 0.05
Simulation CPU 0 panic: IPC 0.0031012 < 0.01
Heartbeat CPU 0 instructions: 120000024 cycles: 5396149078 heartbeat IPC: 0.02113 cumulative IPC: 0.02224 (Simulation time: 06 hr 53 min 50 sec)
Simulation CPU 0 warning: IPC 0.031003 < 0.05
Simulation CPU 0 warning: IPC 0.021715 < 0.05
Simulation CPU 0 warning: IPC 0.021711 < 0.05
Simulation CPU 0 critical: IPC 0.012397 < 0.02
[ERROR_CYCLE] Error added at CPU cycle 5430994877, interval 77, pending count: 1
[DRAM_CYCLE_ERROR] Cycle-based error applied! address=0x362e2ff8 additional_latency=2459910500 cycles
Simulation CPU 0 panic: IPC 0 < 0.01
Simulation CPU 0 warning: IPC 0.024816 < 0.05
Simulation CPU 0 panic: IPC 0.0083047 < 0.01
Simulation CPU 0 warning: IPC 0.044415 < 0.05
Simulation CPU 0 warning: IPC 0.042085 < 0.05
Simulation CPU 0 warning: IPC 0.026159 < 0.05
Simulation CPU 0 panic: IPC 0.0062047 < 0.01
[ERROR_CYCLE] Error added at CPU cycle 5501527278, interval 78, pending count: 1
[DRAM_CYCLE_ERROR] Cycle-based error applied! address=0x1ec49ced8 additional_latency=2459910500 cycles
Simulation CPU 0 panic: IPC 0 < 0.01
Simulation CPU 0 critical: IPC 0.011248 < 0.02
Simulation CPU 0 panic: IPC 0.0061998 < 0.01
Simulation CPU 0 warning: IPC 0.043409 < 0.05
Simulation CPU 0 critical: IPC 0.015508 < 0.02
[ERROR_CYCLE] Error added at CPU cycle 5572059680, interval 79, pending count: 1
[DRAM_CYCLE_ERROR] Cycle-based error applied! address=0x4d9219ac8 additional_latency=2459910500 cycles
Simulation CPU 0 panic: IPC 0 < 0.01
Simulation CPU 0 critical: IPC 0.012404 < 0.02
Simulation CPU 0 panic: IPC 0.0031006 < 0.01
Simulation CPU 0 warning: IPC 0.027915 < 0.05
Simulation CPU 0 critical: IPC 0.015503 < 0.02
Simulation CPU 0 panic: IPC 0.0062005 < 0.01
Simulation CPU 0 panic: IPC 0.0092958 < 0.01
[ERROR_CYCLE] Error added at CPU cycle 5642592081, interval 80, pending count: 1
[DRAM_CYCLE_ERROR] Cycle-based error applied! address=0x2e2eee110 additional_latency=2459910500 cycles
Simulation CPU 0 panic: IPC 0 < 0.01
Simulation CPU 0 warning: IPC 0.040332 < 0.05
Simulation CPU 0 panic: IPC 0.0031058 < 0.01
Simulation CPU 0 warning: IPC 0.031006 < 0.05
Simulation CPU 0 warning: IPC 0.032863 < 0.05
Simulation CPU 0 critical: IPC 0.015512 < 0.02
[ERROR_CYCLE] Error added at CPU cycle 5713124481, interval 81, pending count: 1
[DRAM_CYCLE_ERROR] Cycle-based error applied! address=0xcf91bf18 additional_latency=2459910500 cycles
Simulation CPU 0 panic: IPC 0.0054462 < 0.01
Simulation CPU 0 warning: IPC 0.028679 < 0.05
Simulation CPU 0 critical: IPC 0.015505 < 0.02
Simulation CPU 0 panic: IPC 0.0062091 < 0.01
Simulation CPU 0 panic: IPC 0.0035924 < 0.01
Simulation CPU 0 panic: IPC 0.0026332 < 0.01
Simulation CPU 0 warning: IPC 0.027907 < 0.05
[ERROR_CYCLE] Error added at CPU cycle 5783656882, interval 82, pending count: 1
[DRAM_CYCLE_ERROR] Cycle-based error applied! address=0x331505f78 additional_latency=2459910500 cycles
Simulation CPU 0 warning: IPC 0.021717 < 0.05
Simulation CPU 0 panic: IPC 0 < 0.01
Simulation CPU 0 warning: IPC 0.022729 < 0.05
Simulation CPU 0 warning: IPC 0.020682 < 0.05
Simulation CPU 0 panic: IPC 0.0062102 < 0.01
Simulation CPU 0 critical: IPC 0.012402 < 0.02
Simulation CPU 0 critical: IPC 0.018601 < 0.02
[ERROR_CYCLE] Error added at CPU cycle 5854189283, interval 83, pending count: 1
[DRAM_CYCLE_ERROR] Cycle-based error applied! address=0x2d57d23f8 additional_latency=2459910500 cycles
Simulation CPU 0 panic: IPC 0 < 0.01
Simulation CPU 0 panic: IPC 2.22e-05 < 0.01
Simulation CPU 0 warning: IPC 0.044861 < 0.05
Heartbeat CPU 0 instructions: 130000024 cycles: 5887817812 heartbeat IPC: 0.02034 cumulative IPC: 0.02208 (Simulation time: 07 hr 29 min 27 sec)
Simulation CPU 0 warning: IPC 0.046405 < 0.05
Simulation CPU 0 warning: IPC 0.040017 < 0.05
[ERROR_CYCLE] Error added at CPU cycle 5924721685, interval 84, pending count: 1
[DRAM_CYCLE_ERROR] Cycle-based error applied! address=0x3315117c8 additional_latency=2459910500 cycles
Simulation CPU 0 warning: IPC 0.024808 < 0.05
Simulation CPU 0 panic: IPC 0 < 0.01
Simulation CPU 0 warning: IPC 0.021711 < 0.05
Simulation CPU 0 critical: IPC 0.016107 < 0.02
Simulation CPU 0 warning: IPC 0.038343 < 0.05
[ERROR_CYCLE] Error added at CPU cycle 5995254086, interval 85, pending count: 1
[DRAM_CYCLE_ERROR] Cycle-based error applied! address=0x331517790 additional_latency=2459910500 cycles
Simulation CPU 0 warning: IPC 0.023094 < 0.05
Simulation CPU 0 panic: IPC 0 < 0.01
Simulation CPU 0 warning: IPC 0.021711 < 0.05
Simulation CPU 0 critical: IPC 0.01242 < 0.02
Simulation CPU 0 panic: IPC 1.8e-05 < 0.01
Simulation CPU 0 panic: IPC 0.0062084 < 0.01
[ERROR_CYCLE] Error added at CPU cycle 6065786486, interval 86, pending count: 1
[DRAM_CYCLE_ERROR] Cycle-based error applied! address=0x33151d008 additional_latency=2459910500 cycles
Simulation CPU 0 panic: IPC 0 < 0.01
Simulation CPU 0 panic: IPC 0.0096442 < 0.01
Simulation CPU 0 critical: IPC 0.017865 < 0.02
Simulation CPU 0 warning: IPC 0.046515 < 0.05
[ERROR_CYCLE] Error added at CPU cycle 6136318887, interval 87, pending count: 1
[DRAM_CYCLE_ERROR] Cycle-based error applied! address=0x331523028 additional_latency=2459910500 cycles
Simulation CPU 0 panic: IPC 0.0031112 < 0.01
Simulation CPU 0 panic: IPC 0 < 0.01
Simulation CPU 0 warning: IPC 0.038429 < 0.05
Heartbeat CPU 0 instructions: 140000027 cycles: 6165178391 heartbeat IPC: 0.03605 cumulative IPC: 0.02271 (Simulation time: 07 hr 51 min 02 sec)
Simulation CPU 0 warning: IPC 0.043766 < 0.05
[ERROR_CYCLE] Error added at CPU cycle 6206851289, interval 88, pending count: 1
[DRAM_CYCLE_ERROR] Cycle-based error applied! address=0xb8d2b850 additional_latency=2459910500 cycles
Simulation CPU 0 panic: IPC 0.000448 < 0.01
Simulation CPU 0 critical: IPC 0.011974 < 0.02
Simulation CPU 0 panic: IPC 0.003115 < 0.01
Simulation CPU 0 warning: IPC 0.027918 < 0.05
Simulation CPU 0 critical: IPC 0.017531 < 0.02
[ERROR_CYCLE] Error added at CPU cycle 6277383690, interval 89, pending count: 1
[DRAM_CYCLE_ERROR] Cycle-based error applied! address=0xd4700020 additional_latency=2459910500 cycles
Simulation CPU 0 panic: IPC 0 < 0.01
Simulation CPU 0 warning: IPC 0.029989 < 0.05
Simulation CPU 0 critical: IPC 0.013859 < 0.02
Simulation CPU 0 critical: IPC 0.015247 < 0.02
[ERROR_CYCLE] Error added at CPU cycle 6347916090, interval 90, pending count: 1
[DRAM_CYCLE_ERROR] Cycle-based error applied! address=0x24f300008 additional_latency=2459910500 cycles
Simulation CPU 0 panic: IPC 0 < 0.01
Simulation CPU 0 warning: IPC 0.038104 < 0.05
Simulation CPU 0 warning: IPC 0.039079 < 0.05
Heartbeat CPU 0 instructions: 150000029 cycles: 6404988457 heartbeat IPC: 0.0417 cumulative IPC: 0.02342 (Simulation time: 08 hr 09 min 05 sec)
Simulation CPU 0 panic: IPC 0.0046596 < 0.01
[ERROR_CYCLE] Error added at CPU cycle 6418448491, interval 91, pending count: 1
[DRAM_CYCLE_ERROR] Cycle-based error applied! address=0x33153a0b0 additional_latency=2459910500 cycles
Simulation CPU 0 warning: IPC 0.035377 < 0.05
Simulation CPU 0 panic: IPC 0 < 0.01
Simulation CPU 0 panic: IPC 0.001886 < 0.01
Simulation CPU 0 warning: IPC 0.037245 < 0.05
Simulation CPU 0 panic: IPC 0.0047864 < 0.01
Simulation CPU 0 critical: IPC 0.010732 < 0.02
Simulation CPU 0 panic: IPC 0.0062005 < 0.01
[ERROR_CYCLE] Error added at CPU cycle 6488980892, interval 92, pending count: 1
Simulation CPU 0 warning: IPC 0.031666 < 0.05
[DRAM_CYCLE_ERROR] Cycle-based error applied! address=0x139e00008 additional_latency=2459910500 cycles
Simulation CPU 0 panic: IPC 0 < 0.01
Simulation CPU 0 panic: IPC 0.0037618 < 0.01
Simulation CPU 0 warning: IPC 0.023191 < 0.05
Simulation CPU 0 panic: IPC 0.0001776 < 0.01
[ERROR_CYCLE] Error added at CPU cycle 6559513294, interval 93, pending count: 1
Simulation CPU 0 panic: IPC 6.32e-05 < 0.01
[DRAM_CYCLE_ERROR] Cycle-based error applied! address=0x3bc4464d0 additional_latency=2459910500 cycles
Simulation CPU 0 panic: IPC 0 < 0.01
Simulation CPU 0 panic: IPC 1.28e-05 < 0.01
Simulation CPU 0 panic: IPC 0.0001792 < 0.01
Simulation CPU 0 warning: IPC 0.04586 < 0.05
Simulation CPU 0 critical: IPC 0.011217 < 0.02
Simulation CPU 0 panic: IPC 0.0082158 < 0.01
[ERROR_CYCLE] Error added at CPU cycle 6630045695, interval 94, pending count: 1
[DRAM_CYCLE_ERROR] Cycle-based error applied! address=0x1c81e1a80 additional_latency=2459910500 cycles
Simulation CPU 0 panic: IPC 0.0062944 < 0.01
Simulation CPU 0 warning: IPC 0.020719 < 0.05
Simulation CPU 0 critical: IPC 0.012422 < 0.02
Simulation CPU 0 panic: IPC 0.0062005 < 0.01
Simulation CPU 0 panic: IPC 0.0031178 < 0.01
Simulation CPU 0 warning: IPC 0.041114 < 0.05
[ERROR_CYCLE] Error added at CPU cycle 6700578095, interval 95, pending count: 1
[DRAM_CYCLE_ERROR] Cycle-based error applied! address=0x331553108 additional_latency=2459910500 cycles
Simulation CPU 0 panic: IPC 0 < 0.01
Simulation CPU 0 warning: IPC 0.04835 < 0.05
Simulation CPU 0 warning: IPC 0.047198 < 0.05
Simulation CPU 0 panic: IPC 0.0053959 < 0.01
[ERROR_CYCLE] Error added at CPU cycle 6771110496, interval 96, pending count: 1
[DRAM_CYCLE_ERROR] Cycle-based error applied! address=0x6863d0b20 additional_latency=2459910500 cycles
Simulation CPU 0 panic: IPC 0 < 0.01
Simulation CPU 0 panic: IPC 0.0093168 < 0.01
Simulation CPU 0 critical: IPC 0.012403 < 0.02
Simulation CPU 0 warning: IPC 0.046508 < 0.05
Simulation CPU 0 warning: IPC 0.026223 < 0.05
Heartbeat CPU 0 instructions: 160000031 cycles: 6822143860 heartbeat IPC: 0.02397 cumulative IPC: 0.02345 (Simulation time: 08 hr 40 min 34 sec)
[ERROR_CYCLE] Error added at CPU cycle 6841642897, interval 97, pending count: 1
[DRAM_CYCLE_ERROR] Cycle-based error applied! address=0x211700010 additional_latency=2459910500 cycles
Simulation CPU 0 panic: IPC 0 < 0.01
Simulation CPU 0 warning: IPC 0.021376 < 0.05
Simulation CPU 0 warning: IPC 0.024333 < 0.05
Simulation CPU 0 warning: IPC 0.037209 < 0.05
Simulation CPU 0 panic: IPC 0.0062005 < 0.01
[ERROR_CYCLE] Error added at CPU cycle 6912175299, interval 98, pending count: 1
[DRAM_CYCLE_ERROR] Cycle-based error applied! address=0x37c1acc28 additional_latency=2459910500 cycles
Simulation CPU 0 panic: IPC 0 < 0.01
Simulation CPU 0 warning: IPC 0.043413 < 0.05
Simulation CPU 0 panic: IPC 7.2e-05 < 0.01
Simulation CPU 0 critical: IPC 0.012125 < 0.02
Simulation CPU 0 critical: IPC 0.018609 < 0.02
[ERROR_CYCLE] Error added at CPU cycle 6982707699, interval 99, pending count: 1
[DRAM_CYCLE_ERROR] Cycle-based error applied! address=0x470600000 additional_latency=2459910500 cycles
Simulation CPU 0 panic: IPC 0 < 0.01
Simulation CPU 0 critical: IPC 0.01109 < 0.02
Simulation CPU 0 warning: IPC 0.034133 < 0.05
Simulation CPU 0 warning: IPC 0.024823 < 0.05
Simulation CPU 0 critical: IPC 0.013086 < 0.02
Simulation CPU 0 critical: IPC 0.015506 < 0.02
[ERROR_CYCLE] Error added at CPU cycle 7053240100, interval 100, pending count: 1
[DRAM_CYCLE_ERROR] Cycle-based error applied! address=0x1c0e298f8 additional_latency=2459910500 cycles
Simulation CPU 0 panic: IPC 0 < 0.01
Simulation CPU 0 warning: IPC 0.033606 < 0.05
Simulation CPU 0 critical: IPC 0.012934 < 0.02
Simulation CPU 0 panic: IPC 0.0062036 < 0.01
Simulation CPU 0 warning: IPC 0.049602 < 0.05
Simulation CPU 0 panic: IPC 0.0054266 < 0.01
[ERROR_CYCLE] Error added at CPU cycle 7123772501, interval 101, pending count: 1
[DRAM_CYCLE_ERROR] Cycle-based error applied! address=0x4c83f2d68 additional_latency=2459910500 cycles
Simulation CPU 0 panic: IPC 0 < 0.01
Simulation CPU 0 warning: IPC 0.030006 < 0.05
Simulation CPU 0 warning: IPC 0.022714 < 0.05
Simulation CPU 0 warning: IPC 0.020408 < 0.05
Heartbeat CPU 0 instructions: 170000034 cycles: 7164771607 heartbeat IPC: 0.02919 cumulative IPC: 0.02373 (Simulation time: 09 hr 07 min 37 sec)
Simulation CPU 0 critical: IPC 0.01439 < 0.02
[ERROR_CYCLE] Error added at CPU cycle 7194304903, interval 102, pending count: 1
[DRAM_CYCLE_ERROR] Cycle-based error applied! address=0x7846d57d0 additional_latency=2459910500 cycles
Simulation CPU 0 panic: IPC 0 < 0.01
Simulation CPU 0 warning: IPC 0.046981 < 0.05
Simulation CPU 0 panic: IPC 0.008829 < 0.01
Simulation CPU 0 critical: IPC 0.013191 < 0.02
Simulation CPU 0 panic: IPC 0.0085148 < 0.01
Simulation CPU 0 warning: IPC 0.021745 < 0.05
[ERROR_CYCLE] Error added at CPU cycle 7264837304, interval 103, pending count: 1
[DRAM_CYCLE_ERROR] Cycle-based error applied! address=0x5d0459720 additional_latency=2459910500 cycles
Simulation CPU 0 panic: IPC 0.0012056 < 0.01
Simulation CPU 0 critical: IPC 0.011153 < 0.02
Simulation CPU 0 panic: IPC 0.0093019 < 0.01
Simulation CPU 0 panic: IPC 0.0031014 < 0.01
Simulation CPU 0 critical: IPC 0.01244 < 0.02
Simulation CPU 0 panic: IPC 0.0093023 < 0.01
[ERROR_CYCLE] Error added at CPU cycle 7335369704, interval 104, pending count: 1
[DRAM_CYCLE_ERROR] Cycle-based error applied! address=0x3315891e0 additional_latency=2459910500 cycles
Simulation CPU 0 panic: IPC 0.0039242 < 0.01
Simulation CPU 0 panic: IPC 0 < 0.01
Simulation CPU 0 warning: IPC 0.031004 < 0.05
Simulation CPU 0 critical: IPC 0.012398 < 0.02
Simulation CPU 0 panic: IPC 0.0093252 < 0.01
Simulation CPU 0 warning: IPC 0.040326 < 0.05
Simulation CPU 0 warning: IPC 0.023187 < 0.05
[ERROR_CYCLE] Error added at CPU cycle 7405902105, interval 105, pending count: 1
[DRAM_CYCLE_ERROR] Cycle-based error applied! address=0x33158f510 additional_latency=2459910500 cycles
Simulation CPU 0 critical: IPC 0.017137 < 0.02
Simulation CPU 0 panic: IPC 0 < 0.01
Simulation CPU 0 panic: IPC 0.0062122 < 0.01
Simulation CPU 0 warning: IPC 0.025978 < 0.05
Simulation CPU 0 warning: IPC 0.024759 < 0.05
Simulation CPU 0 warning: IPC 0.029521 < 0.05
Simulation CPU 0 warning: IPC 0.02829 < 0.05
[ERROR_CYCLE] Error added at CPU cycle 7476434506, interval 106, pending count: 1
[DRAM_CYCLE_ERROR] Cycle-based error applied! address=0x4c5206e48 additional_latency=2459910500 cycles
Simulation CPU 0 panic: IPC 0 < 0.01
Simulation CPU 0 warning: IPC 0.038081 < 0.05
Simulation CPU 0 warning: IPC 0.030478 < 0.05
Simulation CPU 0 warning: IPC 0.02269 < 0.05
[ERROR_CYCLE] Error added at CPU cycle 7546966908, interval 107, pending count: 1
[DRAM_CYCLE_ERROR] Cycle-based error applied! address=0x33159b4d8 additional_latency=2459910500 cycles
Simulation CPU 0 panic: IPC 0.0031042 < 0.01
Simulation CPU 0 panic: IPC 0 < 0.01
Simulation CPU 0 critical: IPC 0.012418 < 0.02
Heartbeat CPU 0 instructions: 180000036 cycles: 7572658500 heartbeat IPC: 0.02452 cumulative IPC: 0.02377 (Simulation time: 09 hr 40 min 30 sec)
Simulation CPU 0 warning: IPC 0.020462 < 0.05
Simulation CPU 0 critical: IPC 0.015522 < 0.02
Simulation CPU 0 warning: IPC 0.043406 < 0.05
[ERROR_CYCLE] Error added at CPU cycle 7617499309, interval 108, pending count: 1
[DRAM_CYCLE_ERROR] Cycle-based error applied! address=0x3315a1238 additional_latency=2459910500 cycles
Simulation CPU 0 warning: IPC 0.021745 < 0.05
Simulation CPU 0 panic: IPC 0 < 0.01
Simulation CPU 0 warning: IPC 0.032056 < 0.05
Simulation CPU 0 warning: IPC 0.036727 < 0.05
Simulation CPU 0 panic: IPC 0.0092923 < 0.01
Simulation CPU 0 critical: IPC 0.012168 < 0.02
[ERROR_CYCLE] Error added at CPU cycle 7688031709, interval 109, pending count: 1
[DRAM_CYCLE_ERROR] Cycle-based error applied! address=0x3315a7498 additional_latency=2459910500 cycles
Simulation CPU 0 critical: IPC 0.015751 < 0.02
Simulation CPU 0 panic: IPC 0 < 0.01
Simulation CPU 0 warning: IPC 0.034107 < 0.05
Simulation CPU 0 warning: IPC 0.03556 < 0.05
Simulation CPU 0 panic: IPC 0.006978 < 0.01
Simulation CPU 0 warning: IPC 0.025705 < 0.05
[ERROR_CYCLE] Error added at CPU cycle 7758564110, interval 110, pending count: 1
[DRAM_CYCLE_ERROR] Cycle-based error applied! address=0x3315ad490 additional_latency=2459910500 cycles
Simulation CPU 0 warning: IPC 0.031024 < 0.05
Simulation CPU 0 panic: IPC 0 < 0.01
Simulation CPU 0 panic: IPC 0.0031006 < 0.01
Simulation CPU 0 warning: IPC 0.048184 < 0.05
Simulation CPU 0 critical: IPC 0.016987 < 0.02
Simulation CPU 0 warning: IPC 0.027915 < 0.05
Simulation CPU 0 warning: IPC 0.021723 < 0.05
[ERROR_CYCLE] Error added at CPU cycle 7829096512, interval 111, pending count: 1
[DRAM_CYCLE_ERROR] Cycle-based error applied! address=0x5cf500010 additional_latency=2459910500 cycles
Simulation CPU 0 panic: IPC 0 < 0.01
Simulation CPU 0 warning: IPC 0.023849 < 0.05
Simulation CPU 0 panic: IPC 0.0062432 < 0.01
Simulation CPU 0 panic: IPC 0.0031058 < 0.01
Simulation CPU 0 panic: IPC 0.000472 < 0.01
Simulation CPU 0 warning: IPC 0.021234 < 0.05
[ERROR_CYCLE] Error added at CPU cycle 7899628913, interval 112, pending count: 1
Simulation CPU 0 critical: IPC 0.012413 < 0.02
[DRAM_CYCLE_ERROR] Cycle-based error applied! address=0x3ff708c18 additional_latency=2459910500 cycles
Simulation CPU 0 panic: IPC 0 < 0.01
Simulation CPU 0 critical: IPC 0.017026 < 0.02
Simulation CPU 0 critical: IPC 0.010902 < 0.02
Simulation CPU 0 panic: IPC 0.0062046 < 0.01
Simulation CPU 0 panic: IPC 0.0093342 < 0.01
Simulation CPU 0 critical: IPC 0.018628 < 0.02
Simulation CPU 0 panic: IPC 0.0016322 < 0.01
[ERROR_CYCLE] Error added at CPU cycle 7970161313, interval 113, pending count: 1
[DRAM_CYCLE_ERROR] Cycle-based error applied! address=0x3315c0310 additional_latency=2459910500 cycles
Simulation CPU 0 panic: IPC 0 < 0.01
Simulation CPU 0 panic: IPC 0.00122 < 0.01
Simulation CPU 0 panic: IPC 1.76e-05 < 0.01
Simulation CPU 0 panic: IPC 3.44e-05 < 0.01
Simulation CPU 0 panic: IPC 8e-06 < 0.01
Simulation CPU 0 panic: IPC 8.8e-06 < 0.01
Simulation CPU 0 panic: IPC 1.6e-05 < 0.01
[ERROR_CYCLE] Error added at CPU cycle 8040693714, interval 114, pending count: 1
[DRAM_CYCLE_ERROR] Cycle-based error applied! address=0x4069af3c0 additional_latency=2459910500 cycles
Simulation CPU 0 panic: IPC 0 < 0.01
Simulation CPU 0 panic: IPC 1.6e-06 < 0.01
Simulation CPU 0 panic: IPC 8.8e-06 < 0.01
Simulation CPU 0 panic: IPC 1.92e-05 < 0.01
Simulation CPU 0 panic: IPC 8.8e-06 < 0.01
Simulation CPU 0 panic: IPC 8e-06 < 0.01
Simulation CPU 0 panic: IPC 3.2e-05 < 0.01
[ERROR_CYCLE] Error added at CPU cycle 8111226115, interval 115, pending count: 1
[DRAM_CYCLE_ERROR] Cycle-based error applied! address=0x3315cd2c0 additional_latency=2459910500 cycles
Simulation CPU 0 panic: IPC 0 < 0.01
Simulation CPU 0 panic: IPC 2.4e-05 < 0.01
Simulation CPU 0 panic: IPC 1.6e-05 < 0.01
Simulation CPU 0 panic: IPC 1.6e-06 < 0.01
Simulation CPU 0 panic: IPC 1.04e-05 < 0.01
Simulation CPU 0 panic: IPC 1.84e-05 < 0.01
Simulation CPU 0 panic: IPC 0.0062424 < 0.01
[ERROR_CYCLE] Error added at CPU cycle 8181758517, interval 116, pending count: 1
[DRAM_CYCLE_ERROR] Cycle-based error applied! address=0x32e4d40e8 additional_latency=2459910500 cycles
Simulation CPU 0 panic: IPC 0 < 0.01
Simulation CPU 0 warning: IPC 0.021714 < 0.05
Heartbeat CPU 0 instructions: 190000039 cycles: 8213360910 heartbeat IPC: 0.01561 cumulative IPC: 0.02313 (Simulation time: 10 hr 32 min 13 sec)
Simulation CPU 0 critical: IPC 0.010883 < 0.02
[ERROR_CYCLE] Error added at CPU cycle 8252290918, interval 117, pending count: 1
[DRAM_CYCLE_ERROR] Cycle-based error applied! address=0x3315d92c8 additional_latency=2459910500 cycles
Simulation CPU 0 panic: IPC 0 < 0.01
Simulation CPU 0 warning: IPC 0.022173 < 0.05
Simulation CPU 0 panic: IPC 0.0062151 < 0.01
Simulation CPU 0 panic: IPC 0.0031012 < 0.01
Simulation CPU 0 critical: IPC 0.0186 < 0.02
[ERROR_CYCLE] Error added at CPU cycle 8322823318, interval 118, pending count: 1
[DRAM_CYCLE_ERROR] Cycle-based error applied! address=0x15b400550 additional_latency=2459910500 cycles
Simulation CPU 0 panic: IPC 0 < 0.01
Simulation CPU 0 warning: IPC 0.032853 < 0.05
Simulation CPU 0 warning: IPC 0.049316 < 0.05
Simulation CPU 0 critical: IPC 0.010886 < 0.02
Simulation CPU 0 warning: IPC 0.029456 < 0.05
[ERROR_CYCLE] Error added at CPU cycle 8393355719, interval 119, pending count: 1
[DRAM_CYCLE_ERROR] Cycle-based error applied! address=0x3315e5308 additional_latency=2459910500 cycles
Simulation CPU 0 warning: IPC 0.025674 < 0.05
Simulation CPU 0 critical: IPC 0.010729 < 0.02
Simulation CPU 0 warning: IPC 0.02171 < 0.05
Simulation CPU 0 warning: IPC 0.031028 < 0.05
Heartbeat CPU 0 instructions: 200000040 cycles: 8462414290 heartbeat IPC: 0.04015 cumulative IPC: 0.02363 (Simulation time: 10 hr 51 min 12 sec)
[ERROR_CYCLE] Error added at CPU cycle 8463888120, interval 120, pending count: 1
[DRAM_CYCLE_ERROR] Cycle-based error applied! address=0x63cee1460 additional_latency=2459910500 cycles
Simulation CPU 0 critical: IPC 0.011651 < 0.02
Simulation CPU 0 critical: IPC 0.013999 < 0.02
Simulation CPU 0 panic: IPC 0.0062028 < 0.01
Simulation CPU 0 warning: IPC 0.024822 < 0.05
Simulation CPU 0 critical: IPC 0.012403 < 0.02
Simulation CPU 0 warning: IPC 0.037224 < 0.05
[ERROR_CYCLE] Error added at CPU cycle 8534420522, interval 121, pending count: 1
[DRAM_CYCLE_ERROR] Cycle-based error applied! address=0x3315f1340 additional_latency=2459910500 cycles
Simulation CPU 0 critical: IPC 0.016398 < 0.02
Simulation CPU 0 panic: IPC 0 < 0.01
Simulation CPU 0 warning: IPC 0.045658 < 0.05
Simulation CPU 0 panic: IPC 0.0062005 < 0.01
Simulation CPU 0 critical: IPC 0.012413 < 0.02
Simulation CPU 0 panic: IPC 0.0031006 < 0.01
Simulation CPU 0 warning: IPC 0.028803 < 0.05
[ERROR_CYCLE] Error added at CPU cycle 8604952923, interval 122, pending count: 1
[DRAM_CYCLE_ERROR] Cycle-based error applied! address=0x3315f7350 additional_latency=2459910500 cycles
Simulation CPU 0 critical: IPC 0.017704 < 0.02
Simulation CPU 0 critical: IPC 0.018131 < 0.02
Simulation CPU 0 warning: IPC 0.038146 < 0.05
Simulation CPU 0 warning: IPC 0.021832 < 0.05
Simulation CPU 0 warning: IPC 0.029562 < 0.05
Simulation CPU 0 warning: IPC 0.029956 < 0.05
[ERROR_CYCLE] Error added at CPU cycle 8675485323, interval 123, pending count: 1
[DRAM_CYCLE_ERROR] Cycle-based error applied! address=0x3315fd378 additional_latency=2459910500 cycles
Simulation CPU 0 panic: IPC 0 < 0.01
Simulation CPU 0 warning: IPC 0.034121 < 0.05
Simulation CPU 0 warning: IPC 0.021734 < 0.05
Simulation CPU 0 panic: IPC 0.0062449 < 0.01
Simulation CPU 0 warning: IPC 0.040363 < 0.05
Simulation CPU 0 warning: IPC 0.030228 < 0.05
[ERROR_CYCLE] Error added at CPU cycle 8746017724, interval 124, pending count: 1
[DRAM_CYCLE_ERROR] Cycle-based error applied! address=0x2546033a0 additional_latency=2459910500 cycles
Simulation CPU 0 panic: IPC 0 < 0.01
Simulation CPU 0 warning: IPC 0.024807 < 0.05
Simulation CPU 0 warning: IPC 0.041678 < 0.05
Heartbeat CPU 0 instructions: 210000042 cycles: 8805039397 heartbeat IPC: 0.02919 cumulative IPC: 0.02385 (Simulation time: 11 hr 18 min 02 sec)
[ERROR_CYCLE] Error added at CPU cycle 8816550126, interval 125, pending count: 1
[DRAM_CYCLE_ERROR] Cycle-based error applied! address=0x2546092d0 additional_latency=2459910500 cycles
Simulation CPU 0 warning: IPC 0.02102 < 0.05
Simulation CPU 0 panic: IPC 0 < 0.01
Simulation CPU 0 warning: IPC 0.031015 < 0.05
Simulation CPU 0 warning: IPC 0.027771 < 0.05
Simulation CPU 0 warning: IPC 0.037359 < 0.05
Simulation CPU 0 warning: IPC 0.027927 < 0.05
Simulation CPU 0 warning: IPC 0.029891 < 0.05
[ERROR_CYCLE] Error added at CPU cycle 8887082527, interval 126, pending count: 1
Simulation CPU 0 warning: IPC 0.038322 < 0.05
[DRAM_CYCLE_ERROR] Cycle-based error applied! address=0x25460f3e8 additional_latency=2459910500 cycles
Simulation CPU 0 panic: IPC 0 < 0.01
Simulation CPU 0 panic: IPC 0.0031024 < 0.01
[ERROR_CYCLE] Error added at CPU cycle 8957614927, interval 127, pending count: 1
Simulation CPU 0 warning: IPC 0.024819 < 0.05
[DRAM_CYCLE_ERROR] Cycle-based error applied! address=0x254615270 additional_latency=2459910500 cycles
Simulation CPU 0 panic: IPC 0 < 0.01
Simulation CPU 0 panic: IPC 0.0062096 < 0.01
Simulation CPU 0 warning: IPC 0.03103 < 0.05
Simulation CPU 0 panic: IPC 0.0093087 < 0.01
Simulation CPU 0 critical: IPC 0.012407 < 0.02
Simulation CPU 0 warning: IPC 0.024806 < 0.05
[ERROR_CYCLE] Error added at CPU cycle 9028147328, interval 128, pending count: 1
[DRAM_CYCLE_ERROR] Cycle-based error applied! address=0x25461b240 additional_latency=2459910500 cycles
Simulation CPU 0 critical: IPC 0.012416 < 0.02
Simulation CPU 0 panic: IPC 0 < 0.01
Simulation CPU 0 panic: IPC 0.0062276 < 0.01
Simulation CPU 0 panic: IPC 2.7e-06 < 0.01
Simulation CPU 0 panic: IPC 0.000472 < 0.01
Simulation CPU 0 panic: IPC 0.0088333 < 0.01
Simulation CPU 0 warning: IPC 0.037207 < 0.05
[ERROR_CYCLE] Error added at CPU cycle 9098679729, interval 129, pending count: 1
Simulation CPU 0 panic: IPC 0.005695 < 0.01
[DRAM_CYCLE_ERROR] Cycle-based error applied! address=0x574d00008 additional_latency=2459910500 cycles
Simulation CPU 0 panic: IPC 0 < 0.01
Simulation CPU 0 panic: IPC 0.0036147 < 0.01
Simulation CPU 0 warning: IPC 0.022253 < 0.05
Simulation CPU 0 warning: IPC 0.033557 < 0.05
Simulation CPU 0 warning: IPC 0.026203 < 0.05
Simulation CPU 0 warning: IPC 0.029769 < 0.05
[ERROR_CYCLE] Error added at CPU cycle 9169212131, interval 130, pending count: 1
[DRAM_CYCLE_ERROR] Cycle-based error applied! address=0x42dc00010 additional_latency=2459910500 cycles
Simulation CPU 0 warning: IPC 0.023617 < 0.05
Simulation CPU 0 panic: IPC 0.0072431 < 0.01
Simulation CPU 0 warning: IPC 0.035392 < 0.05
Simulation CPU 0 critical: IPC 0.017346 < 0.02
Simulation CPU 0 warning: IPC 0.042187 < 0.05
Simulation CPU 0 warning: IPC 0.02437 < 0.05
Simulation CPU 0 warning: IPC 0.035218 < 0.05
[ERROR_CYCLE] Error added at CPU cycle 9239744532, interval 131, pending count: 1
[DRAM_CYCLE_ERROR] Cycle-based error applied! address=0x5a6ade3e0 additional_latency=2459910500 cycles
Simulation CPU 0 warning: IPC 0.02018 < 0.05
Simulation CPU 0 critical: IPC 0.012554 < 0.02
Simulation CPU 0 panic: IPC 0.0019584 < 0.01
Heartbeat CPU 0 instructions: 220000045 cycles: 9268995023 heartbeat IPC: 0.02155 cumulative IPC: 0.02374 (Simulation time: 11 hr 54 min 49 sec)
Simulation CPU 0 warning: IPC 0.040317 < 0.05
Simulation CPU 0 critical: IPC 0.015509 < 0.02
Simulation CPU 0 warning: IPC 0.021716 < 0.05
Simulation CPU 0 panic: IPC 0.0062024 < 0.01
Simulation CPU 0 warning: IPC 0.046521 < 0.05
[ERROR_CYCLE] Error added at CPU cycle 9310276932, interval 132, pending count: 1
[DRAM_CYCLE_ERROR] Cycle-based error applied! address=0x2546341c8 additional_latency=2459910500 cycles
Simulation CPU 0 panic: IPC 0 < 0.01
Simulation CPU 0 critical: IPC 0.018612 < 0.02
Simulation CPU 0 panic: IPC 0.0093055 < 0.01
Simulation CPU 0 warning: IPC 0.02481 < 0.05
Simulation CPU 0 warning: IPC 0.034115 < 0.05
Simulation CPU 0 panic: IPC 0.0071916 < 0.01
Simulation CPU 0 critical: IPC 0.014521 < 0.02
[ERROR_CYCLE] Error added at CPU cycle 9380809333, interval 133, pending count: 1
[DRAM_CYCLE_ERROR] Cycle-based error applied! address=0x25463a1b0 additional_latency=2459910500 cycles
Simulation CPU 0 panic: IPC 0 < 0.01
Simulation CPU 0 critical: IPC 0.01241 < 0.02
Simulation CPU 0 panic: IPC 0.0093049 < 0.01
Simulation CPU 0 warning: IPC 0.049609 < 0.05
Simulation CPU 0 warning: IPC 0.029949 < 0.05
Simulation CPU 0 critical: IPC 0.019662 < 0.02
Simulation CPU 0 warning: IPC 0.048249 < 0.05
[ERROR_CYCLE] Error added at CPU cycle 9451341734, interval 134, pending count: 1
[DRAM_CYCLE_ERROR] Cycle-based error applied! address=0x66a400020 additional_latency=2459910500 cycles
Simulation CPU 0 panic: IPC 0 < 0.01
Simulation CPU 0 panic: IPC 0.0013614 < 0.01
Simulation CPU 0 panic: IPC 0.0062116 < 0.01
Simulation CPU 0 panic: IPC 0.0017374 < 0.01
Simulation CPU 0 panic: IPC 0.0031024 < 0.01
[ERROR_CYCLE] Error added at CPU cycle 9521874136, interval 135, pending count: 1
[DRAM_CYCLE_ERROR] Cycle-based error applied! address=0x68a616fa8 additional_latency=2459910500 cycles
Simulation CPU 0 panic: IPC 0 < 0.01
Simulation CPU 0 warning: IPC 0.025456 < 0.05
Simulation CPU 0 warning: IPC 0.021056 < 0.05
Simulation CPU 0 warning: IPC 0.031012 < 0.05
Simulation CPU 0 critical: IPC 0.018577 < 0.02
[ERROR_CYCLE] Error added at CPU cycle 9592406536, interval 136, pending count: 1
[DRAM_CYCLE_ERROR] Cycle-based error applied! address=0x64b92b228 additional_latency=2459910500 cycles
Simulation CPU 0 panic: IPC 0 < 0.01
Simulation CPU 0 critical: IPC 0.012403 < 0.02
Simulation CPU 0 warning: IPC 0.02424 < 0.05
Simulation CPU 0 warning: IPC 0.030214 < 0.05
Simulation CPU 0 critical: IPC 0.016313 < 0.02
Simulation CPU 0 warning: IPC 0.046509 < 0.05
[ERROR_CYCLE] Error added at CPU cycle 9662938937, interval 137, pending count: 1
[DRAM_CYCLE_ERROR] Cycle-based error applied! address=0x5c2106048 additional_latency=2459910500 cycles
Simulation CPU 0 panic: IPC 0 < 0.01
Simulation CPU 0 critical: IPC 0.01446 < 0.02
Heartbeat CPU 0 instructions: 230000046 cycles: 9686119792 heartbeat IPC: 0.02397 cumulative IPC: 0.02375 (Simulation time: 12 hr 27 min 40 sec)
Simulation CPU 0 panic: IPC 0.00449 < 0.01
Simulation CPU 0 warning: IPC 0.029627 < 0.05
Simulation CPU 0 critical: IPC 0.019539 < 0.02
[ERROR_CYCLE] Error added at CPU cycle 9733471338, interval 138, pending count: 1
[DRAM_CYCLE_ERROR] Cycle-based error applied! address=0x7aa298cc0 additional_latency=2459910500 cycles
Simulation CPU 0 panic: IPC 0 < 0.01
Simulation CPU 0 panic: IPC 1.84e-05 < 0.01
Simulation CPU 0 panic: IPC 3.36e-05 < 0.01
Simulation CPU 0 panic: IPC 1.92e-05 < 0.01
Simulation CPU 0 panic: IPC 9.84e-05 < 0.01
Simulation CPU 0 warning: IPC 0.024758 < 0.05
Simulation CPU 0 critical: IPC 0.011352 < 0.02
[ERROR_CYCLE] Error added at CPU cycle 9804003740, interval 139, pending count: 1
[DRAM_CYCLE_ERROR] Cycle-based error applied! address=0x25465f118 additional_latency=2459910500 cycles
Simulation CPU 0 panic: IPC 0.0062084 < 0.01
Simulation CPU 0 panic: IPC 0 < 0.01
Simulation CPU 0 warning: IPC 0.027942 < 0.05
Simulation CPU 0 warning: IPC 0.025469 < 0.05
Simulation CPU 0 critical: IPC 0.011708 < 0.02
[ERROR_CYCLE] Error added at CPU cycle 9874536141, interval 140, pending count: 1
[DRAM_CYCLE_ERROR] Cycle-based error applied! address=0x406975480 additional_latency=2459910500 cycles
Simulation CPU 0 panic: IPC 0.0025384 < 0.01
Simulation CPU 0 warning: IPC 0.034666 < 0.05
Simulation CPU 0 panic: IPC 0.0055238 < 0.01
Simulation CPU 0 warning: IPC 0.040978 < 0.05
Simulation CPU 0 panic: IPC 0.0092978 < 0.01
Simulation CPU 0 warning: IPC 0.043417 < 0.05
Simulation CPU 0 critical: IPC 0.014659 < 0.02
[ERROR_CYCLE] Error added at CPU cycle 9945068541, interval 141, pending count: 1
[DRAM_CYCLE_ERROR] Cycle-based error applied! address=0x3ce9b2dc0 additional_latency=2459910500 cycles
Simulation CPU 0 warning: IPC 0.028677 < 0.05
Simulation CPU 0 critical: IPC 0.010479 < 0.02
Simulation CPU 0 panic: IPC 0.0062035 < 0.01
Simulation CPU 0 warning: IPC 0.049612 < 0.05
Simulation CPU 0 panic: IPC 0.0066738 < 0.01
Simulation CPU 0 panic: IPC 0.0088321 < 0.01
[ERROR_CYCLE] Error added at CPU cycle 10015600942, interval 142, pending count: 1
[DRAM_CYCLE_ERROR] Cycle-based error applied! address=0x2546710d0 additional_latency=2459910500 cycles
Simulation CPU 0 warning: IPC 0.024806 < 0.05
Simulation CPU 0 panic: IPC 0 < 0.01
Simulation CPU 0 warning: IPC 0.044669 < 0.05
Simulation CPU 0 warning: IPC 0.048352 < 0.05
Simulation CPU 0 critical: IPC 0.012416 < 0.02
Simulation CPU 0 panic: IPC 0.0041046 < 0.01
[ERROR_CYCLE] Error added at CPU cycle 10086133343, interval 143, pending count: 1
[DRAM_CYCLE_ERROR] Cycle-based error applied! address=0x254677540 additional_latency=2459910500 cycles
Simulation CPU 0 warning: IPC 0.025281 < 0.05
Simulation CPU 0 panic: IPC 0 < 0.01
Heartbeat CPU 0 instructions: 240000047 cycles: 10103293704 heartbeat IPC: 0.02397 cumulative IPC: 0.02375 (Simulation time: 13 hr 02 min 37 sec)
Simulation CPU 0 warning: IPC 0.025131 < 0.05
Simulation CPU 0 warning: IPC 0.037201 < 0.05
Simulation CPU 0 panic: IPC 0.0054607 < 0.01
[ERROR_CYCLE] Error added at CPU cycle 10156665745, interval 144, pending count: 1
Simulation CPU 0 warning: IPC 0.031004 < 0.05
[DRAM_CYCLE_ERROR] Cycle-based error applied! address=0x25467d090 additional_latency=2459910500 cycles
Simulation CPU 0 panic: IPC 0 < 0.01
Simulation CPU 0 critical: IPC 0.015507 < 0.02
Simulation CPU 0 warning: IPC 0.032864 < 0.05
Simulation CPU 0 warning: IPC 0.035344 < 0.05
Simulation CPU 0 warning: IPC 0.046509 < 0.05
Simulation CPU 0 warning: IPC 0.031009 < 0.05
[ERROR_CYCLE] Error added at CPU cycle 10227198146, interval 145, pending count: 1
Simulation CPU 0 warning: IPC 0.030065 < 0.05
[DRAM_CYCLE_ERROR] Cycle-based error applied! address=0x254683bf0 additional_latency=2459910500 cycles
Simulation CPU 0 panic: IPC 0 < 0.01
Simulation CPU 0 critical: IPC 0.01955 < 0.02
Simulation CPU 0 warning: IPC 0.026013 < 0.05
Simulation CPU 0 critical: IPC 0.014593 < 0.02
Simulation CPU 0 warning: IPC 0.040309 < 0.05
[ERROR_CYCLE] Error added at CPU cycle 10297730546, interval 146, pending count: 1
Simulation CPU 0 warning: IPC 0.024827 < 0.05
[DRAM_CYCLE_ERROR] Cycle-based error applied! address=0x254689580 additional_latency=2459910500 cycles
Simulation CPU 0 panic: IPC 0 < 0.01
Simulation CPU 0 panic: IPC 0.006203 < 0.01
Simulation CPU 0 warning: IPC 0.046264 < 0.05
Simulation CPU 0 warning: IPC 0.021967 < 0.05
Simulation CPU 0 warning: IPC 0.031003 < 0.05
Simulation CPU 0 critical: IPC 0.018623 < 0.02
[ERROR_CYCLE] Error added at CPU cycle 10368262947, interval 147, pending count: 1
[DRAM_CYCLE_ERROR] Cycle-based error applied! address=0x25468f300 additional_latency=2459910500 cycles
Simulation CPU 0 critical: IPC 0.012405 < 0.02
Simulation CPU 0 panic: IPC 0 < 0.01
Simulation CPU 0 warning: IPC 0.024798 < 0.05
Simulation CPU 0 warning: IPC 0.030136 < 0.05
Simulation CPU 0 panic: IPC 0.0070677 < 0.01
Simulation CPU 0 critical: IPC 0.011209 < 0.02
[ERROR_CYCLE] Error added at CPU cycle 10438795349, interval 148, pending count: 1
[DRAM_CYCLE_ERROR] Cycle-based error applied! address=0x254695028 additional_latency=2459910500 cycles
Simulation CPU 0 warning: IPC 0.041502 < 0.05
Simulation CPU 0 panic: IPC 0 < 0.01
Simulation CPU 0 warning: IPC 0.032585 < 0.05
Heartbeat CPU 0 instructions: 250000047 cycles: 10464406530 heartbeat IPC: 0.02769 cumulative IPC: 0.02389 (Simulation time: 13 hr 34 min 17 sec)
Simulation CPU 0 panic: IPC 0.004311 < 0.01
Simulation CPU 0 warning: IPC 0.026698 < 0.05
Simulation CPU 0 critical: IPC 0.013317 < 0.02
[ERROR_CYCLE] Error added at CPU cycle 10509327750, interval 149, pending count: 1
[DRAM_CYCLE_ERROR] Cycle-based error applied! address=0x25469b008 additional_latency=2459910500 cycles
Simulation CPU 0 panic: IPC 0 < 0.01
Simulation CPU 0 panic: IPC 0.006206 < 0.01
Simulation CPU 0 warning: IPC 0.031326 < 0.05
Simulation CPU 0 critical: IPC 0.018605 < 0.02
Simulation CPU 0 critical: IPC 0.018597 < 0.02
[ERROR_CYCLE] Error added at CPU cycle 10579860150, interval 150, pending count: 1
Simulation CPU 0 critical: IPC 0.012415 < 0.02
[DRAM_CYCLE_ERROR] Cycle-based error applied! address=0x2546a2ff0 additional_latency=2459910500 cycles
Simulation CPU 0 panic: IPC 0 < 0.01
Simulation CPU 0 panic: IPC 0.0031012 < 0.01
Simulation CPU 0 panic: IPC 0.0080812 < 0.01
Simulation CPU 0 warning: IPC 0.032242 < 0.05
Simulation CPU 0 warning: IPC 0.027032 < 0.05
Simulation CPU 0 critical: IPC 0.013277 < 0.02
Simulation CPU 0 critical: IPC 0.012358 < 0.02
[ERROR_CYCLE] Error added at CPU cycle 10650392551, interval 151, pending count: 1
[DRAM_CYCLE_ERROR] Cycle-based error applied! address=0x2546a8ba0 additional_latency=2459910500 cycles
Simulation CPU 0 panic: IPC 0 < 0.01
Simulation CPU 0 warning: IPC 0.037266 < 0.05
Simulation CPU 0 panic: IPC 0.0081045 < 0.01
Simulation CPU 0 warning: IPC 0.041818 < 0.05
Simulation CPU 0 warning: IPC 0.021708 < 0.05
Simulation CPU 0 critical: IPC 0.012406 < 0.02
[ERROR_CYCLE] Error added at CPU cycle 10720924952, interval 152, pending count: 1
[DRAM_CYCLE_ERROR] Cycle-based error applied! address=0x2546ae5f0 additional_latency=2459910500 cycles
Simulation CPU 0 panic: IPC 0 < 0.01
Simulation CPU 0 critical: IPC 0.015005 < 0.02
Simulation CPU 0 warning: IPC 0.031014 < 0.05
Simulation CPU 0 warning: IPC 0.024551 < 0.05
Simulation CPU 0 warning: IPC 0.031277 < 0.05
[ERROR_CYCLE] Error added at CPU cycle 10791457354, interval 153, pending count: 1
[DRAM_CYCLE_ERROR] Cycle-based error applied! address=0x2546b4f98 additional_latency=2459910500 cycles
Simulation CPU 0 panic: IPC 0 < 0.01
Simulation CPU 0 warning: IPC 0.027174 < 0.05
Simulation CPU 0 panic: IPC 0.0007056 < 0.01
Simulation CPU 0 panic: IPC 0.0023968 < 0.01
Simulation CPU 0 panic: IPC 0.0084298 < 0.01
Heartbeat CPU 0 instructions: 260000051 cycles: 10857892657 heartbeat IPC: 0.02541 cumulative IPC: 0.02395 (Simulation time: 14 hr 07 min 22 sec)
[ERROR_CYCLE] Error added at CPU cycle 10861989755, interval 154, pending count: 1
[DRAM_CYCLE_ERROR] Cycle-based error applied! address=0x2546baf80 additional_latency=2459910500 cycles
Simulation CPU 0 panic: IPC 0 < 0.01
Simulation CPU 0 critical: IPC 0.012405 < 0.02
Simulation CPU 0 warning: IPC 0.021706 < 0.05
Simulation CPU 0 critical: IPC 0.015516 < 0.02
Simulation CPU 0 warning: IPC 0.027916 < 0.05
Simulation CPU 0 warning: IPC 0.02171 < 0.05
Simulation CPU 0 warning: IPC 0.032315 < 0.05
[ERROR_CYCLE] Error added at CPU cycle 10932522155, interval 155, pending count: 1
[DRAM_CYCLE_ERROR] Cycle-based error applied! address=0x45ea00008 additional_latency=2459910500 cycles
Simulation CPU 0 panic: IPC 0 < 0.01
Simulation CPU 0 critical: IPC 0.011111 < 0.02
Simulation CPU 0 critical: IPC 0.017601 < 0.02
Simulation CPU 0 warning: IPC 0.028514 < 0.05
Simulation CPU 0 panic: IPC 0.0086437 < 0.01
Simulation CPU 0 critical: IPC 0.018656 < 0.02
[ERROR_CYCLE] Error added at CPU cycle 11003054556, interval 156, pending count: 1
[DRAM_CYCLE_ERROR] Cycle-based error applied! address=0x481ec0c30 additional_latency=2459910500 cycles
Simulation CPU 0 panic: IPC 0 < 0.01
Simulation CPU 0 panic: IPC 0.0015792 < 0.01
Simulation CPU 0 warning: IPC 0.028092 < 0.05
Simulation CPU 0 critical: IPC 0.013081 < 0.02
Simulation CPU 0 warning: IPC 0.040326 < 0.05
[ERROR_CYCLE] Error added at CPU cycle 11073586957, interval 157, pending count: 1
[DRAM_CYCLE_ERROR] Cycle-based error applied! address=0x4d48d5670 additional_latency=2459910500 cycles
Simulation CPU 0 panic: IPC 0 < 0.01
Simulation CPU 0 critical: IPC 0.015504 < 0.02
Simulation CPU 0 warning: IPC 0.046515 < 0.05
Simulation CPU 0 warning: IPC 0.034121 < 0.05
Simulation CPU 0 warning: IPC 0.02791 < 0.05
Simulation CPU 0 panic: IPC 0.0031036 < 0.01
[ERROR_CYCLE] Error added at CPU cycle 11144119359, interval 158, pending count: 1
[DRAM_CYCLE_ERROR] Cycle-based error applied! address=0x6bdc88768 additional_latency=2459910500 cycles
Simulation CPU 0 panic: IPC 0 < 0.01
Simulation CPU 0 panic: IPC 0.0031006 < 0.01
Simulation CPU 0 panic: IPC 0.0072122 < 0.01
Simulation CPU 0 warning: IPC 0.020706 < 0.05
Simulation CPU 0 warning: IPC 0.043417 < 0.05
Simulation CPU 0 panic: IPC 0.008245 < 0.01
[ERROR_CYCLE] Error added at CPU cycle 11214651760, interval 159, pending count: 1
[DRAM_CYCLE_ERROR] Cycle-based error applied! address=0x64e8d6798 additional_latency=2459910500 cycles
Simulation CPU 0 panic: IPC 0 < 0.01
Simulation CPU 0 critical: IPC 0.013459 < 0.02
Simulation CPU 0 panic: IPC 0.006206 < 0.01
Simulation CPU 0 warning: IPC 0.048881 < 0.05
Simulation CPU 0 critical: IPC 0.013156 < 0.02
Simulation CPU 0 warning: IPC 0.049627 < 0.05
Heartbeat CPU 0 instructions: 270000051 cycles: 11275048388 heartbeat IPC: 0.02397 cumulative IPC: 0.02395 (Simulation time: 14 hr 38 min 29 sec)
Simulation CPU 0 warning: IPC 0.043412 < 0.05
[ERROR_CYCLE] Error added at CPU cycle 11285184160, interval 160, pending count: 1
[DRAM_CYCLE_ERROR] Cycle-based error applied! address=0x3edbdf88 additional_latency=2459910500 cycles
Simulation CPU 0 warning: IPC 0.026789 < 0.05
Simulation CPU 0 panic: IPC 0.0042141 < 0.01
Simulation CPU 0 warning: IPC 0.024805 < 0.05
Simulation CPU 0 warning: IPC 0.021702 < 0.05
Simulation CPU 0 critical: IPC 0.018609 < 0.02
Simulation CPU 0 critical: IPC 0.018602 < 0.02
[ERROR_CYCLE] Error added at CPU cycle 11355716561, interval 161, pending count: 1
[DRAM_CYCLE_ERROR] Cycle-based error applied! address=0x7f82e80 additional_latency=2459910500 cycles
Simulation CPU 0 warning: IPC 0.0285 < 0.05
Simulation CPU 0 panic: IPC 0.0056224 < 0.01
Simulation CPU 0 warning: IPC 0.031906 < 0.05
Simulation CPU 0 warning: IPC 0.033213 < 0.05
Simulation CPU 0 warning: IPC 0.040531 < 0.05
Simulation CPU 0 critical: IPC 0.012866 < 0.02
[ERROR_CYCLE] Error added at CPU cycle 11426248963, interval 162, pending count: 1
[DRAM_CYCLE_ERROR] Cycle-based error applied! address=0x39da3f808 additional_latency=2459910500 cycles
Simulation CPU 0 panic: IPC 0.0049695 < 0.01
Simulation CPU 0 warning: IPC 0.029141 < 0.05
Simulation CPU 0 warning: IPC 0.036428 < 0.05
Simulation CPU 0 critical: IPC 0.013173 < 0.02
Simulation CPU 0 critical: IPC 0.010327 < 0.02
[ERROR_CYCLE] Error added at CPU cycle 11496781364, interval 163, pending count: 1
[DRAM_CYCLE_ERROR] Cycle-based error applied! address=0x666b261c0 additional_latency=2459910500 cycles
Simulation CPU 0 panic: IPC 0.0068334 < 0.01
Simulation CPU 0 warning: IPC 0.021085 < 0.05
Simulation CPU 0 critical: IPC 0.013777 < 0.02
Simulation CPU 0 warning: IPC 0.026548 < 0.05
Simulation CPU 0 warning: IPC 0.041369 < 0.05
Simulation CPU 0 panic: IPC 0.0038074 < 0.01
[ERROR_CYCLE] Error added at CPU cycle 11567313764, interval 164, pending count: 1
Simulation CPU 0 warning: IPC 0.021019 < 0.05
[DRAM_CYCLE_ERROR] Cycle-based error applied! address=0x2546f7e48 additional_latency=2459910500 cycles
Simulation CPU 0 panic: IPC 0 < 0.01
Simulation CPU 0 warning: IPC 0.027759 < 0.05
Simulation CPU 0 critical: IPC 0.012409 < 0.02
Simulation CPU 0 panic: IPC 0.0030999 < 0.01
Heartbeat CPU 0 instructions: 280000052 cycles: 11636163608 heartbeat IPC: 0.02769 cumulative IPC: 0.02406 (Simulation time: 15 hr 07 min 42 sec)
[ERROR_CYCLE] Error added at CPU cycle 11637846165, interval 165, pending count: 1
[DRAM_CYCLE_ERROR] Cycle-based error applied! address=0x2546fde28 additional_latency=2459910500 cycles
Simulation CPU 0 panic: IPC 0 < 0.01
Simulation CPU 0 panic: IPC 0.0093067 < 0.01
Simulation CPU 0 panic: IPC 0.0031006 < 0.01
Simulation CPU 0 warning: IPC 0.048168 < 0.05
Simulation CPU 0 critical: IPC 0.012402 < 0.02
[ERROR_CYCLE] Error added at CPU cycle 11708378566, interval 166, pending count: 1
Simulation CPU 0 critical: IPC 0.010544 < 0.02
[DRAM_CYCLE_ERROR] Cycle-based error applied! address=0xe8403728 additional_latency=2459910500 cycles
Simulation CPU 0 panic: IPC 0 < 0.01
Simulation CPU 0 panic: IPC 0.0093022 < 0.01
Simulation CPU 0 critical: IPC 0.016489 < 0.02
Simulation CPU 0 warning: IPC 0.039795 < 0.05
Simulation CPU 0 warning: IPC 0.046057 < 0.05
[ERROR_CYCLE] Error added at CPU cycle 11778910968, interval 167, pending count: 1
Simulation CPU 0 warning: IPC 0.036892 < 0.05
[DRAM_CYCLE_ERROR] Cycle-based error applied! address=0xe8409740 additional_latency=2459910500 cycles
Simulation CPU 0 panic: IPC 0 < 0.01
Simulation CPU 0 warning: IPC 0.032648 < 0.05
[...]
Simulation CPU 0 panic: IPC 0.0031006 < 0.01
Simulation CPU 0 warning: IPC 0.031016 < 0.05
Simulation CPU 0 panic: IPC 0.0062135 < 0.01
Simulation CPU 0 panic: IPC 0.006203 < 0.01
Simulation CPU 0 warning: IPC 0.020958 < 0.05
[ERROR_CYCLE] Error added at CPU cycle 33926084882, interval 481, pending count: 1
[DRAM_CYCLE_ERROR] Cycle-based error applied! address=0x213c73658 additional_latency=2459910500 cycles
Simulation CPU 0 warning: IPC 0.028672 < 0.05
Simulation CPU 0 panic: IPC 0 < 0.01
Simulation CPU 0 panic: IPC 0.0031036 < 0.01
Simulation CPU 0 critical: IPC 0.018606 < 0.02
Simulation CPU 0 warning: IPC 0.025282 < 0.05
Simulation CPU 0 panic: IPC 0.005731 < 0.01
Simulation CPU 0 warning: IPC 0.045089 < 0.05
Heartbeat CPU 0 instructions: 890000137 cycles: 33992997965 heartbeat IPC: 0.03872 cumulative IPC: 0.02618 (Simulation time: 21 hr 08 min 59 sec)
[ERROR_CYCLE] Error added at CPU cycle 33996617283, interval 482, pending count: 1
[DRAM_CYCLE_ERROR] Cycle-based error applied! address=0x213c79738 additional_latency=2459910500 cycles
Simulation CPU 0 warning: IPC 0.026214 < 0.05
Simulation CPU 0 panic: IPC 0 < 0.01
Simulation CPU 0 warning: IPC 0.040334 < 0.05
[ERROR_CYCLE] Error added at CPU cycle 34067149683, interval 483, pending count: 1
[DRAM_CYCLE_ERROR] Cycle-based error applied! address=0x50061c608 additional_latency=2459910500 cycles
Simulation CPU 0 panic: IPC 0.0073341 < 0.01
Simulation CPU 0 critical: IPC 0.011567 < 0.02
Simulation CPU 0 warning: IPC 0.031973 < 0.05
Simulation CPU 0 warning: IPC 0.032736 < 0.05
[ERROR_CYCLE] Error added at CPU cycle 34137682084, interval 484, pending count: 1
[DRAM_CYCLE_ERROR] Cycle-based error applied! address=0x1f300020 additional_latency=2459910500 cycles
Simulation CPU 0 panic: IPC 0 < 0.01
Simulation CPU 0 warning: IPC 0.049002 < 0.05
Simulation CPU 0 warning: IPC 0.02525 < 0.05
Simulation CPU 0 panic: IPC 0.0062208 < 0.01
[ERROR_CYCLE] Error added at CPU cycle 34208214485, interval 485, pending count: 1
[DRAM_CYCLE_ERROR] Cycle-based error applied! address=0x213c8a6f8 additional_latency=2459910500 cycles
Simulation CPU 0 panic: IPC 0 < 0.01
Heartbeat CPU 0 instructions: 900000137 cycles: 34224157536 heartbeat IPC: 0.04326 cumulative IPC: 0.0263 (Simulation time: 21 hr 27 min 44 sec)
[ERROR_CYCLE] Error added at CPU cycle 34278746887, interval 486, pending count: 1
Simulation CPU 0 warning: IPC 0.030658 < 0.05
[DRAM_CYCLE_ERROR] Cycle-based error applied! address=0x59e700000 additional_latency=2459910500 cycles
Simulation CPU 0 panic: IPC 0.005777 < 0.01
[ERROR_CYCLE] Error added at CPU cycle 34349279288, interval 487, pending count: 1
[DRAM_CYCLE_ERROR] Cycle-based error applied! address=0x213c95750 additional_latency=2459910500 cycles
Simulation CPU 0 panic: IPC 0 < 0.01
Simulation CPU 0 warning: IPC 0.028434 < 0.05
Simulation CPU 0 panic: IPC 0.0062373 < 0.01
Simulation CPU 0 critical: IPC 0.016729 < 0.02
Heartbeat CPU 0 instructions: 910000140 cycles: 34417164548 heartbeat IPC: 0.05181 cumulative IPC: 0.02644 (Simulation time: 21 hr 42 min 54 sec)
[ERROR_CYCLE] Error added at CPU cycle 34419811688, interval 488, pending count: 1
[DRAM_CYCLE_ERROR] Cycle-based error applied! address=0x213c9b778 additional_latency=2459910500 cycles
Simulation CPU 0 panic: IPC 0 < 0.01
Simulation CPU 0 warning: IPC 0.029395 < 0.05
Simulation CPU 0 warning: IPC 0.030135 < 0.05
[ERROR_CYCLE] Error added at CPU cycle 34490344089, interval 489, pending count: 1
[DRAM_CYCLE_ERROR] Cycle-based error applied! address=0x778e251a0 additional_latency=2459910500 cycles
Simulation CPU 0 panic: IPC 0 < 0.01
Simulation CPU 0 warning: IPC 0.046503 < 0.05
Simulation CPU 0 warning: IPC 0.020051 < 0.05
Simulation CPU 0 warning: IPC 0.049298 < 0.05
[ERROR_CYCLE] Error added at CPU cycle 34560876491, interval 490, pending count: 1
[DRAM_CYCLE_ERROR] Cycle-based error applied! address=0x4d31a71f0 additional_latency=2459910500 cycles
Simulation CPU 0 panic: IPC 0 < 0.01
Simulation CPU 0 warning: IPC 0.033267 < 0.05
Heartbeat CPU 0 instructions: 920000140 cycles: 34629246123 heartbeat IPC: 0.04715 cumulative IPC: 0.02657 (Simulation time: 22 hr 01 min 06 sec)
Simulation CPU 0 warning: IPC 0.034143 < 0.05
[ERROR_CYCLE] Error added at CPU cycle 34631408892, interval 491, pending count: 1
[DRAM_CYCLE_ERROR] Cycle-based error applied! address=0x213cac7f8 additional_latency=2459910500 cycles
Simulation CPU 0 warning: IPC 0.034084 < 0.05
Simulation CPU 0 panic: IPC 0.0020693 < 0.01
[ERROR_CYCLE] Error added at CPU cycle 34701941292, interval 492, pending count: 1
[DRAM_CYCLE_ERROR] Cycle-based error applied! address=0x15400020 additional_latency=2459910500 cycles
Simulation CPU 0 panic: IPC 0 < 0.01
Simulation CPU 0 warning: IPC 0.039362 < 0.05
[ERROR_CYCLE] Error added at CPU cycle 34772473693, interval 493, pending count: 1
[DRAM_CYCLE_ERROR] Cycle-based error applied! address=0x213cb7850 additional_latency=2459910500 cycles
Simulation CPU 0 warning: IPC 0.047087 < 0.05
Simulation CPU 0 panic: IPC 0 < 0.01
Heartbeat CPU 0 instructions: 930000140 cycles: 34813620923 heartbeat IPC: 0.05424 cumulative IPC: 0.02671 (Simulation time: 22 hr 16 min 51 sec)
Simulation CPU 0 critical: IPC 0.016233 < 0.02
[ERROR_CYCLE] Error added at CPU cycle 34843006094, interval 494, pending count: 1
[DRAM_CYCLE_ERROR] Cycle-based error applied! address=0x163f00008 additional_latency=2459910500 cycles
Simulation CPU 0 panic: IPC 0 < 0.01
Simulation CPU 0 warning: IPC 0.042809 < 0.05
Simulation CPU 0 warning: IPC 0.044222 < 0.05
[ERROR_CYCLE] Error added at CPU cycle 34913538496, interval 495, pending count: 1
[DRAM_CYCLE_ERROR] Cycle-based error applied! address=0x213cc28a0 additional_latency=2459910500 cycles
Simulation CPU 0 warning: IPC 0.023709 < 0.05
Simulation CPU 0 critical: IPC 0.012508 < 0.02
Simulation CPU 0 panic: IPC 0.0031219 < 0.01
Simulation CPU 0 warning: IPC 0.028491 < 0.05
Simulation CPU 0 warning: IPC 0.0323 < 0.05
Simulation CPU 0 warning: IPC 0.029167 < 0.05
[ERROR_CYCLE] Error added at CPU cycle 34984070897, interval 496, pending count: 1
[DRAM_CYCLE_ERROR] Cycle-based error applied! address=0x213cc88e0 additional_latency=2459910500 cycles
Simulation CPU 0 panic: IPC 0 < 0.01
Heartbeat CPU 0 instructions: 940000144 cycles: 35044187138 heartbeat IPC: 0.04337 cumulative IPC: 0.02682 (Simulation time: 22 hr 34 min 58 sec)
Simulation CPU 0 warning: IPC 0.040322 < 0.05
[ERROR_CYCLE] Error added at CPU cycle 35054603297, interval 497, pending count: 1
[DRAM_CYCLE_ERROR] Cycle-based error applied! address=0x38899a180 additional_latency=2459910500 cycles
Simulation CPU 0 critical: IPC 0.013616 < 0.02
Simulation CPU 0 warning: IPC 0.032885 < 0.05
Simulation CPU 0 warning: IPC 0.045839 < 0.05
[ERROR_CYCLE] Error added at CPU cycle 35125135698, interval 498, pending count: 1
[DRAM_CYCLE_ERROR] Cycle-based error applied! address=0x6d0910b50 additional_latency=2459910500 cycles
Simulation CPU 0 panic: IPC 0 < 0.01
Simulation CPU 0 warning: IPC 0.041758 < 0.05
Simulation CPU 0 warning: IPC 0.044443 < 0.05
Simulation CPU 0 warning: IPC 0.043144 < 0.05
Simulation CPU 0 warning: IPC 0.041711 < 0.05
[ERROR_CYCLE] Error added at CPU cycle 35195668099, interval 499, pending count: 1
[DRAM_CYCLE_ERROR] Cycle-based error applied! address=0x213cd9968 additional_latency=2459910500 cycles
Simulation CPU 0 panic: IPC 0 < 0.01
Simulation CPU 0 warning: IPC 0.034576 < 0.05
Simulation CPU 0 warning: IPC 0.037426 < 0.05
Heartbeat CPU 0 instructions: 950000147 cycles: 35247035364 heartbeat IPC: 0.0493 cumulative IPC: 0.02695 (Simulation time: 22 hr 51 min 43 sec)
[ERROR_CYCLE] Error added at CPU cycle 35266200501, interval 500, pending count: 1
[DRAM_CYCLE_ERROR] Cycle-based error applied! address=0x112c00020 additional_latency=2459910500 cycles
Simulation CPU 0 panic: IPC 0 < 0.01
Simulation CPU 0 warning: IPC 0.048097 < 0.05
Simulation CPU 0 warning: IPC 0.029785 < 0.05
Simulation CPU 0 critical: IPC 0.018602 < 0.02
Simulation CPU 0 critical: IPC 0.018532 < 0.02
[ERROR_CYCLE] Error added at CPU cycle 35336732902, interval 501, pending count: 1
[DRAM_CYCLE_ERROR] Cycle-based error applied! address=0x32bc00010 additional_latency=2459910500 cycles
Simulation CPU 0 panic: IPC 0 < 0.01
[ERROR_CYCLE] Error added at CPU cycle 35407265302, interval 502, pending count: 1
[DRAM_CYCLE_ERROR] Cycle-based error applied! address=0x4c7f02a58 additional_latency=2459910500 cycles
Simulation CPU 0 panic: IPC 0.000832 < 0.01
Simulation CPU 0 warning: IPC 0.048246 < 0.05
Simulation CPU 0 warning: IPC 0.047116 < 0.05
Heartbeat CPU 0 instructions: 960000147 cycles: 35440636960 heartbeat IPC: 0.05165 cumulative IPC: 0.02709 (Simulation time: 23 hr 05 min 50 sec)
[ERROR_CYCLE] Error added at CPU cycle 35477797703, interval 503, pending count: 1
[DRAM_CYCLE_ERROR] Cycle-based error applied! address=0x3864f4200 additional_latency=2459910500 cycles
Simulation CPU 0 panic: IPC 0.0045159 < 0.01
Simulation CPU 0 warning: IPC 0.043152 < 0.05
Simulation CPU 0 warning: IPC 0.04545 < 0.05
Simulation CPU 0 warning: IPC 0.040368 < 0.05
Simulation CPU 0 warning: IPC 0.037193 < 0.05
[ERROR_CYCLE] Error added at CPU cycle 35548330105, interval 504, pending count: 1
[DRAM_CYCLE_ERROR] Cycle-based error applied! address=0xea4093a8 additional_latency=2459910500 cycles
Simulation CPU 0 warning: IPC 0.021658 < 0.05
Simulation CPU 0 critical: IPC 0.014501 < 0.02
Simulation CPU 0 warning: IPC 0.044773 < 0.05
Simulation CPU 0 warning: IPC 0.043415 < 0.05
Heartbeat CPU 0 instructions: 970000149 cycles: 35615167449 heartbeat IPC: 0.0573 cumulative IPC: 0.02724 (Simulation time: 23 hr 20 min 21 sec)
[ERROR_CYCLE] Error added at CPU cycle 35618862506, interval 505, pending count: 1
Simulation CPU 0 warning: IPC 0.04961 < 0.05
[DRAM_CYCLE_ERROR] Cycle-based error applied! address=0x213cfaa68 additional_latency=2459910500 cycles
Simulation CPU 0 panic: IPC 0 < 0.01
Simulation CPU 0 warning: IPC 0.037803 < 0.05
Simulation CPU 0 panic: IPC 0.008709 < 0.01
[ERROR_CYCLE] Error added at CPU cycle 35689394906, interval 506, pending count: 1
[DRAM_CYCLE_ERROR] Cycle-based error applied! address=0x51f300a90 additional_latency=2459910500 cycles
Simulation CPU 0 panic: IPC 0 < 0.01
Simulation CPU 0 warning: IPC 0.029983 < 0.05
[ERROR_CYCLE] Error added at CPU cycle 35759927307, interval 507, pending count: 1
Simulation CPU 0 panic: IPC 0.0062162 < 0.01
[DRAM_CYCLE_ERROR] Cycle-based error applied! address=0x7b54a5af0 additional_latency=2459910500 cycles
Simulation CPU 0 panic: IPC 0 < 0.01
Simulation CPU 0 warning: IPC 0.033611 < 0.05
Heartbeat CPU 0 instructions: 980000150 cycles: 35827250134 heartbeat IPC: 0.04715 cumulative IPC: 0.02735 (Simulation time: 23 hr 36 min 57 sec)
[ERROR_CYCLE] Error added at CPU cycle 35830459708, interval 508, pending count: 1
[DRAM_CYCLE_ERROR] Cycle-based error applied! address=0x51f30bae0 additional_latency=2459910500 cycles
Simulation CPU 0 panic: IPC 0 < 0.01
Simulation CPU 0 warning: IPC 0.045138 < 0.05
[ERROR_CYCLE] Error added at CPU cycle 35900992110, interval 509, pending count: 1
[DRAM_CYCLE_ERROR] Cycle-based error applied! address=0x5e4a00018 additional_latency=2459910500 cycles
Simulation CPU 0 panic: IPC 0 < 0.01
Simulation CPU 0 warning: IPC 0.044304 < 0.05
Simulation CPU 0 warning: IPC 0.029963 < 0.05
[ERROR_CYCLE] Error added at CPU cycle 35971524511, interval 510, pending count: 1
[DRAM_CYCLE_ERROR] Cycle-based error applied! address=0x7e94b07c0 additional_latency=2459910500 cycles
Simulation CPU 0 warning: IPC 0.029347 < 0.05
Simulation CPU 0 critical: IPC 0.014504 < 0.02
Simulation CPU 0 warning: IPC 0.048699 < 0.05
Heartbeat CPU 0 instructions: 990000150 cycles: 36002363007 heartbeat IPC: 0.05711 cumulative IPC: 0.0275 (Simulation time: 23 hr 50 min 53 sec)
[ERROR_CYCLE] Error added at CPU cycle 36042056911, interval 511, pending count: 1
[DRAM_CYCLE_ERROR] Cycle-based error applied! address=0x22b700008 additional_latency=2459910500 cycles
Simulation CPU 0 panic: IPC 0 < 0.01
Simulation CPU 0 panic: IPC 0.0070156 < 0.01
Simulation CPU 0 warning: IPC 0.049134 < 0.05
[ERROR_CYCLE] Error added at CPU cycle 36112589312, interval 512, pending count: 1
[DRAM_CYCLE_ERROR] Cycle-based error applied! address=0x51f321b88 additional_latency=2459910500 cycles
Simulation CPU 0 panic: IPC 0 < 0.01
Simulation CPU 0 warning: IPC 0.046507 < 0.05
Simulation CPU 0 critical: IPC 0.010927 < 0.02
Simulation CPU 0 warning: IPC 0.029579 < 0.05
Simulation CPU 0 warning: IPC 0.030039 < 0.05
[ERROR_CYCLE] Error added at CPU cycle 36183121713, interval 513, pending count: 1
[DRAM_CYCLE_ERROR] Cycle-based error applied! address=0x51f327ba8 additional_latency=2459910500 cycles
Simulation CPU 0 panic: IPC 0 < 0.01
Heartbeat CPU 0 instructions: 1000000152 cycles: 36223691628 heartbeat IPC: 0.04518 cumulative IPC: 0.02761 (Simulation time: 00 hr 06 min 19 sec)
Simulation CPU 0 warning: IPC 0.044384 < 0.05
Simulation CPU 0 panic: IPC 0.0062136 < 0.01
[ERROR_CYCLE] Error added at CPU cycle 36253654115, interval 514, pending count: 1
[DRAM_CYCLE_ERROR] Cycle-based error applied! address=0x7d495f348 additional_latency=2459910500 cycles
Simulation CPU 0 panic: IPC 0 < 0.01
Simulation CPU 0 warning: IPC 0.021724 < 0.05
Simulation CPU 0 warning: IPC 0.046372 < 0.05
[ERROR_CYCLE] Error added at CPU cycle 36324186515, interval 515, pending count: 1
[DRAM_CYCLE_ERROR] Cycle-based error applied! address=0x67ab00018 additional_latency=2459910500 cycles
Simulation CPU 0 panic: IPC 0 < 0.01
Simulation CPU 0 warning: IPC 0.029637 < 0.05
Simulation CPU 0 warning: IPC 0.037355 < 0.05
[ERROR_CYCLE] Error added at CPU cycle 36394718916, interval 516, pending count: 1
[DRAM_CYCLE_ERROR] Cycle-based error applied! address=0x7b7953408 additional_latency=2459910500 cycles
Simulation CPU 0 warning: IPC 0.031263 < 0.05
Heartbeat CPU 0 instructions: 1010000153 cycles: 36417286141 heartbeat IPC: 0.05165 cumulative IPC: 0.02773 (Simulation time: 00 hr 19 min 10 sec)
Simulation CPU 0 warning: IPC 0.04701 < 0.05
Simulation CPU 0 warning: IPC 0.048742 < 0.05
[ERROR_CYCLE] Error added at CPU cycle 36465251317, interval 517, pending count: 1
[DRAM_CYCLE_ERROR] Cycle-based error applied! address=0x51f33dc50 additional_latency=2459910500 cycles
Simulation CPU 0 panic: IPC 0 < 0.01
Simulation CPU 0 warning: IPC 0.049473 < 0.05
[ERROR_CYCLE] Error added at CPU cycle 36535783719, interval 518, pending count: 1
[DRAM_CYCLE_ERROR] Cycle-based error applied! address=0x485a00010 additional_latency=2459910500 cycles
Simulation CPU 0 panic: IPC 0 < 0.01
Simulation CPU 0 warning: IPC 0.04209 < 0.05
Simulation CPU 0 warning: IPC 0.029909 < 0.05
Heartbeat CPU 0 instructions: 1020000155 cycles: 36582570858 heartbeat IPC: 0.0605 cumulative IPC: 0.02788 (Simulation time: 00 hr 30 min 43 sec)
[ERROR_CYCLE] Error added at CPU cycle 36606316120, interval 519, pending count: 1
[DRAM_CYCLE_ERROR] Cycle-based error applied! address=0x51f348ca0 additional_latency=2459910500 cycles
Simulation CPU 0 panic: IPC 0 < 0.01
Simulation CPU 0 warning: IPC 0.049845 < 0.05
[ERROR_CYCLE] Error added at CPU cycle 36676848520, interval 520, pending count: 1
[DRAM_CYCLE_ERROR] Cycle-based error applied! address=0x716300008 additional_latency=2459910500 cycles
Simulation CPU 0 panic: IPC 0 < 0.01
Simulation CPU 0 warning: IPC 0.049862 < 0.05
Simulation CPU 0 warning: IPC 0.029844 < 0.05
Simulation CPU 0 warning: IPC 0.040674 < 0.05
[ERROR_CYCLE] Error added at CPU cycle 36747380921, interval 521, pending count: 1
[DRAM_CYCLE_ERROR] Cycle-based error applied! address=0x51f353cf8 additional_latency=2459910500 cycles
Simulation CPU 0 panic: IPC 0 < 0.01
Simulation CPU 0 critical: IPC 0.017236 < 0.02
Heartbeat CPU 0 instructions: 1030000155 cycles: 36794651705 heartbeat IPC: 0.04715 cumulative IPC: 0.02799 (Simulation time: 00 hr 47 min 08 sec)
[ERROR_CYCLE] Error added at CPU cycle 36817913322, interval 522, pending count: 1
[DRAM_CYCLE_ERROR] Cycle-based error applied! address=0x1b50a3f00 additional_latency=2459910500 cycles
Simulation CPU 0 warning: IPC 0.04842 < 0.05
Simulation CPU 0 warning: IPC 0.034468 < 0.05
Simulation CPU 0 warning: IPC 0.045881 < 0.05
Simulation CPU 0 warning: IPC 0.037659 < 0.05
[ERROR_CYCLE] Error added at CPU cycle 36888445724, interval 523, pending count: 1
[DRAM_CYCLE_ERROR] Cycle-based error applied! address=0x51f35ed48 additional_latency=2459910500 cycles
Simulation CPU 0 panic: IPC 0 < 0.01
[ERROR_CYCLE] Error added at CPU cycle 36958978125, interval 524, pending count: 1
[DRAM_CYCLE_ERROR] Cycle-based error applied! address=0x142f00020 additional_latency=2459910500 cycles
Simulation CPU 0 warning: IPC 0.027073 < 0.05
Heartbeat CPU 0 instructions: 1040000157 cycles: 36969795141 heartbeat IPC: 0.0571 cumulative IPC: 0.02813 (Simulation time: 01 hr 03 min 13 sec)
Simulation CPU 0 panic: IPC 0.0091292 < 0.01
Simulation CPU 0 critical: IPC 0.013025 < 0.02
[ERROR_CYCLE] Error added at CPU cycle 37029510525, interval 525, pending count: 1
[DRAM_CYCLE_ERROR] Cycle-based error applied! address=0x51f369d98 additional_latency=2459910500 cycles
Simulation CPU 0 panic: IPC 0 < 0.01
Simulation CPU 0 warning: IPC 0.029579 < 0.05
Simulation CPU 0 warning: IPC 0.042545 < 0.05
[ERROR_CYCLE] Error added at CPU cycle 37100042926, interval 526, pending count: 1
[DRAM_CYCLE_ERROR] Cycle-based error applied! address=0x7dc400020 additional_latency=2459910500 cycles
Simulation CPU 0 panic: IPC 0 < 0.01
Heartbeat CPU 0 instructions: 1050000160 cycles: 37135077854 heartbeat IPC: 0.0605 cumulative IPC: 0.02828 (Simulation time: 01 hr 14 min 49 sec)
[ERROR_CYCLE] Error added at CPU cycle 37170575328, interval 527, pending count: 1
[DRAM_CYCLE_ERROR] Cycle-based error applied! address=0x51f374df0 additional_latency=2459910500 cycles
Simulation CPU 0 panic: IPC 0 < 0.01
Simulation CPU 0 warning: IPC 0.029461 < 0.05
[ERROR_CYCLE] Error added at CPU cycle 37241107729, interval 528, pending count: 1
[DRAM_CYCLE_ERROR] Cycle-based error applied! address=0x797600010 additional_latency=2459910500 cycles
Simulation CPU 0 panic: IPC 0 < 0.01
Simulation CPU 0 warning: IPC 0.029653 < 0.05
Simulation CPU 0 panic: IPC 0.0062172 < 0.01
[ERROR_CYCLE] Error added at CPU cycle 37311640129, interval 529, pending count: 1
[DRAM_CYCLE_ERROR] Cycle-based error applied! address=0x51f37fe40 additional_latency=2459910500 cycles
Simulation CPU 0 panic: IPC 0 < 0.01
Heartbeat CPU 0 instructions: 1060000161 cycles: 37328697098 heartbeat IPC: 0.05165 cumulative IPC: 0.0284 (Simulation time: 01 hr 30 min 10 sec)
Simulation CPU 0 warning: IPC 0.035019 < 0.05
Simulation CPU 0 warning: IPC 0.04509 < 0.05
[ERROR_CYCLE] Error added at CPU cycle 37382172530, interval 530, pending count: 1
[DRAM_CYCLE_ERROR] Cycle-based error applied! address=0x4d8f00010 additional_latency=2459910500 cycles
Simulation CPU 0 panic: IPC 0 < 0.01
Simulation CPU 0 warning: IPC 0.036865 < 0.05
Simulation CPU 0 panic: IPC 0.0027425 < 0.01
[ERROR_CYCLE] Error added at CPU cycle 37452704931, interval 531, pending count: 1
[DRAM_CYCLE_ERROR] Cycle-based error applied! address=0x51f38ae90 additional_latency=2459910500 cycles
Simulation CPU 0 panic: IPC 0 < 0.01
Simulation CPU 0 warning: IPC 0.030048 < 0.05
Simulation CPU 0 warning: IPC 0.029646 < 0.05
Simulation CPU 0 warning: IPC 0.029903 < 0.05
Heartbeat CPU 0 instructions: 1070000162 cycles: 37512468234 heartbeat IPC: 0.05442 cumulative IPC: 0.02852 (Simulation time: 01 hr 44 min 54 sec)
[ERROR_CYCLE] Error added at CPU cycle 37523237333, interval 532, pending count: 1
[DRAM_CYCLE_ERROR] Cycle-based error applied! address=0x4a6f92880 additional_latency=2459910500 cycles
Simulation CPU 0 warning: IPC 0.044961 < 0.05
Simulation CPU 0 warning: IPC 0.038172 < 0.05
Simulation CPU 0 panic: IPC 0.0062064 < 0.01
[ERROR_CYCLE] Error added at CPU cycle 37593769734, interval 533, pending count: 1
[DRAM_CYCLE_ERROR] Cycle-based error applied! address=0x121846570 additional_latency=2459910500 cycles
Simulation CPU 0 panic: IPC 0 < 0.01
Simulation CPU 0 