
*** ChampSim Multicore Out-of-Order Simulator ***
Warmup Instructions: 0
Simulation Instructions: 9223372036854775807
Number of CPUs: 1
Page size: 1048576

Off-chip DRAM Size: 32 GiB Channels: 2 Width: 32-bit Data Rate: 4807 MT/s
[ERROR_PAGE_MANAGER] Error latency: 2459910500 
[ERROR_PAGE_MANAGER] Random seed: 54321 (fixed for preload reproducibility)
[ERROR_PAGE_MANAGER] Cycle-based error modeling enabled
[ERROR_PAGE_MANAGER] Errors per interval: 1
[ERROR_PAGE_MANAGER] Error cycle interval: 705324015 cycles

=== ERROR PAGE STATISTICS ===
Mode: CYCLE
Error Cycle Interval: 705324015 CPU cycles
Total Error Accesses: 0
==============================
Warmup finished CPU 0 instructions: 0 cycles: 1 cumulative IPC: 0 (Simulation time: 00 hr 00 min 00 sec)
Warmup complete CPU 0 instructions: 0 cycles: 1 cumulative IPC: 0 (Simulation time: 00 hr 00 min 00 sec)
Simulation CPU 0 panic: IPC 0 < 0.01
Simulation CPU 0 panic: IPC 0 < 0.01
Simulation CPU 0 panic: IPC 0 < 0.01
Simulation CPU 0 panic: IPC 5e-07 < 0.01
Simulation CPU 0 panic: IPC 1.1e-06 < 0.01
Simulation CPU 0 panic: IPC 0 < 0.01
Simulation CPU 0 panic: IPC 8e-06 < 0.01
Simulation CPU 0 panic: IPC 4.54e-05 < 0.01
Simulation CPU 0 panic: IPC 0.0001128 < 0.01
Simulation CPU 0 panic: IPC 0.0001051 < 0.01
Simulation CPU 0 panic: IPC 0.0026152 < 0.01
Simulation CPU 0 panic: IPC 3.34e-05 < 0.01
Simulation CPU 0 panic: IPC 0.0010197 < 0.01
Simulation CPU 0 panic: IPC 7e-06 < 0.01
Simulation CPU 0 panic: IPC 6.5e-06 < 0.01
Simulation CPU 0 panic: IPC 2.05e-05 < 0.01
Simulation CPU 0 panic: IPC 1.14e-05 < 0.01
Simulation CPU 0 panic: IPC 2.72e-05 < 0.01
Simulation CPU 0 panic: IPC 0.00025 < 0.01
Simulation CPU 0 panic: IPC 0.0001349 < 0.01
Simulation CPU 0 panic: IPC 0 < 0.01
Simulation CPU 0 panic: IPC 0.0004092 < 0.01
Simulation CPU 0 panic: IPC 0.000361 < 0.01
Simulation CPU 0 panic: IPC 0.0001798 < 0.01
Simulation CPU 0 panic: IPC 0.0005803 < 0.01
Simulation CPU 0 warning: IPC 0.026295 < 0.05
Simulation CPU 0 panic: IPC 4.9e-06 < 0.01
Simulation CPU 0 panic: IPC 4.4e-06 < 0.01
Simulation CPU 0 panic: IPC 1.52e-05 < 0.01
Simulation CPU 0 panic: IPC 7.6e-06 < 0.01
Simulation CPU 0 panic: IPC 7.1e-06 < 0.01
Simulation CPU 0 panic: IPC 1.75e-05 < 0.01
Simulation CPU 0 panic: IPC 1e-05 < 0.01
Simulation CPU 0 panic: IPC 4.3e-06 < 0.01
Simulation CPU 0 panic: IPC 9.6e-06 < 0.01
Simulation CPU 0 panic: IPC 2.45e-05 < 0.01
Simulation CPU 0 panic: IPC 2.87e-05 < 0.01
Simulation CPU 0 panic: IPC 1.96e-05 < 0.01
Simulation CPU 0 panic: IPC 4.6e-06 < 0.01
Simulation CPU 0 panic: IPC 1.42e-05 < 0.01
Simulation CPU 0 panic: IPC 1.24e-05 < 0.01
Simulation CPU 0 panic: IPC 3e-05 < 0.01
Simulation CPU 0 panic: IPC 5.34e-05 < 0.01
Simulation CPU 0 panic: IPC 3.88e-05 < 0.01
Simulation CPU 0 panic: IPC 2.17e-05 < 0.01
Simulation CPU 0 panic: IPC 3.42e-05 < 0.01
Simulation CPU 0 panic: IPC 6.8e-06 < 0.01
Simulation CPU 0 panic: IPC 4.24e-05 < 0.01
Simulation CPU 0 panic: IPC 5.63e-05 < 0.01
Simulation CPU 0 panic: IPC 4.17e-05 < 0.01
Simulation CPU 0 panic: IPC 1.71e-05 < 0.01
Simulation CPU 0 panic: IPC 1.43e-05 < 0.01
Simulation CPU 0 panic: IPC 5.89e-05 < 0.01
Simulation CPU 0 panic: IPC 6.6e-06 < 0.01
Simulation CPU 0 panic: IPC 1.53e-05 < 0.01
Simulation CPU 0 panic: IPC 1.18e-05 < 0.01
Simulation CPU 0 panic: IPC 0.0001261 < 0.01
Simulation CPU 0 panic: IPC 2.42e-05 < 0.01
Simulation CPU 0 panic: IPC 0.0001872 < 0.01
Simulation CPU 0 panic: IPC 7.6e-06 < 0.01
Simulation CPU 0 panic: IPC 5.06e-05 < 0.01
Simulation CPU 0 panic: IPC 0.0001728 < 0.01
Simulation CPU 0 panic: IPC 0.0001305 < 0.01
Simulation CPU 0 panic: IPC 6.93e-05 < 0.01
Simulation CPU 0 panic: IPC 8.56e-05 < 0.01
Simulation CPU 0 panic: IPC 0 < 0.01
Simulation CPU 0 panic: IPC 0.0001422 < 0.01
Simulation CPU 0 panic: IPC 0.0002701 < 0.01
Simulation CPU 0 panic: IPC 9.4e-06 < 0.01
Simulation CPU 0 panic: IPC 4.54e-05 < 0.01
[ERROR_CYCLE] Error added at CPU cycle 705324016, interval 1, pending count: 1
[DRAM_CYCLE_ERROR] Cycle-based error applied! address=0x2afb964f8 additional_latency=2459910500 cycles
Simulation CPU 0 panic: IPC 4e-07 < 0.01
Simulation CPU 0 panic: IPC 7.19e-05 < 0.01
Simulation CPU 0 panic: IPC 2.85e-05 < 0.01
Simulation CPU 0 panic: IPC 3.84e-05 < 0.01
Simulation CPU 0 panic: IPC 1.47e-05 < 0.01
Simulation CPU 0 panic: IPC 0.0002031 < 0.01
Simulation CPU 0 panic: IPC 0.0001284 < 0.01
Simulation CPU 0 panic: IPC 0.0002105 < 0.01
Simulation CPU 0 panic: IPC 0.0007568 < 0.01
Simulation CPU 0 panic: IPC 9.6e-05 < 0.01
Simulation CPU 0 panic: IPC 0.0002754 < 0.01
Simulation CPU 0 panic: IPC 9.35e-05 < 0.01
Simulation CPU 0 panic: IPC 0.0002402 < 0.01
Simulation CPU 0 panic: IPC 7.99e-05 < 0.01
Simulation CPU 0 panic: IPC 8.3e-05 < 0.01
Simulation CPU 0 panic: IPC 0.0001353 < 0.01
Simulation CPU 0 panic: IPC 0.0005871 < 0.01
Simulation CPU 0 panic: IPC 1.46e-05 < 0.01
Simulation CPU 0 panic: IPC 0.0003208 < 0.01
Simulation CPU 0 panic: IPC 0.0003422 < 0.01
Simulation CPU 0 panic: IPC 0.0001082 < 0.01
Simulation CPU 0 panic: IPC 9.6e-06 < 0.01
Simulation CPU 0 panic: IPC 0.0001903 < 0.01
Simulation CPU 0 panic: IPC 0.0006171 < 0.01
Simulation CPU 0 panic: IPC 0.0001232 < 0.01
Simulation CPU 0 panic: IPC 0.0010295 < 0.01
Simulation CPU 0 panic: IPC 0.0008541 < 0.01
Simulation CPU 0 panic: IPC 0.0006314 < 0.01
Simulation CPU 0 panic: IPC 0.0001833 < 0.01
Simulation CPU 0 panic: IPC 0.0001434 < 0.01
Simulation CPU 0 panic: IPC 4.77e-05 < 0.01
Simulation CPU 0 panic: IPC 0.0008204 < 0.01
Simulation CPU 0 panic: IPC 1.22e-05 < 0.01
Simulation CPU 0 panic: IPC 0.0001603 < 0.01
Simulation CPU 0 panic: IPC 0.0004101 < 0.01
Simulation CPU 0 panic: IPC 0.0006529 < 0.01
Simulation CPU 0 panic: IPC 0.0004779 < 0.01
Simulation CPU 0 panic: IPC 0.0005578 < 0.01
Simulation CPU 0 panic: IPC 7.93e-05 < 0.01
Simulation CPU 0 panic: IPC 0.000243 < 0.01
Simulation CPU 0 panic: IPC 0.0002813 < 0.01
Simulation CPU 0 panic: IPC 5.3e-06 < 0.01
Simulation CPU 0 panic: IPC 0.0004785 < 0.01
Simulation CPU 0 panic: IPC 0.0005448 < 0.01
Simulation CPU 0 panic: IPC 0.0004207 < 0.01
Simulation CPU 0 panic: IPC 0.0004945 < 0.01
Simulation CPU 0 panic: IPC 0.0003328 < 0.01
Simulation CPU 0 panic: IPC 0.0009242 < 0.01
Simulation CPU 0 panic: IPC 0.0010043 < 0.01
Simulation CPU 0 panic: IPC 0.0001551 < 0.01
Simulation CPU 0 panic: IPC 0.0002527 < 0.01
Simulation CPU 0 panic: IPC 0.0006688 < 0.01
Simulation CPU 0 panic: IPC 4.36e-05 < 0.01
Simulation CPU 0 panic: IPC 0.0008939 < 0.01
Simulation CPU 0 panic: IPC 2e-07 < 0.01
Simulation CPU 0 panic: IPC 1.12e-05 < 0.01
Simulation CPU 0 panic: IPC 2.01e-05 < 0.01
Simulation CPU 0 panic: IPC 7.1e-06 < 0.01
Simulation CPU 0 panic: IPC 5.1e-06 < 0.01
Simulation CPU 0 panic: IPC 6.6e-06 < 0.01
Simulation CPU 0 panic: IPC 4.6e-06 < 0.01
Simulation CPU 0 panic: IPC 9.2e-06 < 0.01
Simulation CPU 0 panic: IPC 7.4e-06 < 0.01
Simulation CPU 0 panic: IPC 9.4e-06 < 0.01
Simulation CPU 0 panic: IPC 7.1e-06 < 0.01
Simulation CPU 0 panic: IPC 2.5e-06 < 0.01
Simulation CPU 0 panic: IPC 6.6e-06 < 0.01
Simulation CPU 0 panic: IPC 2.18e-05 < 0.01
Simulation CPU 0 panic: IPC 1.14e-05 < 0.01
Simulation CPU 0 panic: IPC 2.3e-06 < 0.01
[ERROR_CYCLE] Error added at CPU cycle 1410648031, interval 2, pending count: 1
[DRAM_CYCLE_ERROR] Cycle-based error applied! address=0x537cc3080 additional_latency=2459910500 cycles
Simulation CPU 0 panic: IPC 0 < 0.01
Simulation CPU 0 panic: IPC 9.4e-06 < 0.01
Simulation CPU 0 panic: IPC 1.63e-05 < 0.01
Simulation CPU 0 panic: IPC 2.57e-05 < 0.01
Simulation CPU 0 panic: IPC 9.4e-06 < 0.01
Simulation CPU 0 panic: IPC 2.8e-06 < 0.01
Simulation CPU 0 panic: IPC 6.6e-06 < 0.01
Simulation CPU 0 panic: IPC 1.91e-05 < 0.01
Simulation CPU 0 panic: IPC 1.67e-05 < 0.01
Simulation CPU 0 panic: IPC 8.9e-06 < 0.01
Simulation CPU 0 panic: IPC 5.19e-05 < 0.01
Simulation CPU 0 panic: IPC 1.65e-05 < 0.01
Simulation CPU 0 panic: IPC 1.19e-05 < 0.01
Simulation CPU 0 panic: IPC 4.65e-05 < 0.01
Simulation CPU 0 panic: IPC 9.7e-06 < 0.01
Simulation CPU 0 panic: IPC 2.34e-05 < 0.01
Simulation CPU 0 panic: IPC 9.1e-06 < 0.01
Simulation CPU 0 panic: IPC 4.75e-05 < 0.01
Simulation CPU 0 panic: IPC 7.1e-06 < 0.01
Simulation CPU 0 panic: IPC 6.09e-05 < 0.01
Simulation CPU 0 panic: IPC 1.4e-05 < 0.01
Simulation CPU 0 panic: IPC 2.85e-05 < 0.01
Simulation CPU 0 panic: IPC 2.59e-05 < 0.01
Simulation CPU 0 panic: IPC 1.81e-05 < 0.01
Simulation CPU 0 panic: IPC 2.8e-06 < 0.01
Simulation CPU 0 panic: IPC 1.65e-05 < 0.01
Simulation CPU 0 panic: IPC 1.65e-05 < 0.01
Simulation CPU 0 panic: IPC 4.94e-05 < 0.01
Simulation CPU 0 panic: IPC 4.72e-05 < 0.01
Simulation CPU 0 panic: IPC 5.42e-05 < 0.01
Simulation CPU 0 panic: IPC 7e-05 < 0.01
Simulation CPU 0 panic: IPC 0.0001075 < 0.01
Simulation CPU 0 panic: IPC 4.66e-05 < 0.01
Simulation CPU 0 panic: IPC 1.2e-05 < 0.01
Simulation CPU 0 panic: IPC 5.32e-05 < 0.01
Simulation CPU 0 panic: IPC 5.39e-05 < 0.01
Simulation CPU 0 panic: IPC 5.83e-05 < 0.01
Simulation CPU 0 panic: IPC 7.4e-06 < 0.01
Simulation CPU 0 panic: IPC 9.64e-05 < 0.01
Simulation CPU 0 panic: IPC 3.93e-05 < 0.01
Simulation CPU 0 panic: IPC 4.01e-05 < 0.01
Simulation CPU 0 panic: IPC 5.43e-05 < 0.01
Simulation CPU 0 panic: IPC 3.28e-05 < 0.01
Simulation CPU 0 panic: IPC 8.15e-05 < 0.01
Simulation CPU 0 panic: IPC 0.0001264 < 0.01
Simulation CPU 0 panic: IPC 5.18e-05 < 0.01
Simulation CPU 0 panic: IPC 0.0001083 < 0.01
Simulation CPU 0 panic: IPC 0.0001309 < 0.01
Simulation CPU 0 panic: IPC 0.0001174 < 0.01
Simulation CPU 0 panic: IPC 0.0001295 < 0.01
Simulation CPU 0 panic: IPC 1.22e-05 < 0.01
Simulation CPU 0 panic: IPC 0.0001157 < 0.01
Simulation CPU 0 panic: IPC 0.0001207 < 0.01
Simulation CPU 0 panic: IPC 8.65e-05 < 0.01
Simulation CPU 0 panic: IPC 0.0002114 < 0.01
Simulation CPU 0 panic: IPC 0.0002879 < 0.01
Simulation CPU 0 panic: IPC 3.03e-05 < 0.01
Simulation CPU 0 panic: IPC 7.25e-05 < 0.01
Simulation CPU 0 panic: IPC 7.52e-05 < 0.01
Simulation CPU 0 panic: IPC 5.14e-05 < 0.01
Simulation CPU 0 panic: IPC 3.01e-05 < 0.01
Simulation CPU 0 panic: IPC 8.75e-05 < 0.01
Simulation CPU 0 panic: IPC 0.0002192 < 0.01
Simulation CPU 0 panic: IPC 5.18e-05 < 0.01
Simulation CPU 0 panic: IPC 0.0001361 < 0.01
Simulation CPU 0 panic: IPC 9.2e-06 < 0.01
Simulation CPU 0 panic: IPC 3.28e-05 < 0.01
Simulation CPU 0 panic: IPC 3.54e-05 < 0.01
Simulation CPU 0 panic: IPC 0.0001211 < 0.01
Simulation CPU 0 panic: IPC 7.1e-06 < 0.01
[ERROR_CYCLE] Error added at CPU cycle 2115972045, interval 3, pending count: 1
Simulation CPU 0 panic: IPC 2.11e-05 < 0.01
[DRAM_CYCLE_ERROR] Cycle-based error applied! address=0x59ad51de8 additional_latency=2459910500 cycles
Simulation CPU 0 panic: IPC 7.08e-05 < 0.01
Simulation CPU 0 panic: IPC 2.57e-05 < 0.01
Simulation CPU 0 panic: IPC 0.0001952 < 0.01
Simulation CPU 0 panic: IPC 5.38e-05 < 0.01
Simulation CPU 0 panic: IPC 0.0003188 < 0.01
Simulation CPU 0 panic: IPC 8.4e-05 < 0.01
Simulation CPU 0 panic: IPC 5.62e-05 < 0.01
Simulation CPU 0 panic: IPC 0.0001369 < 0.01
Simulation CPU 0 panic: IPC 1.35e-05 < 0.01
Simulation CPU 0 panic: IPC 9.4e-06 < 0.01
Simulation CPU 0 panic: IPC 3.56e-05 < 0.01
Simulation CPU 0 panic: IPC 0.0001177 < 0.01
Simulation CPU 0 panic: IPC 5.19e-05 < 0.01
Simulation CPU 0 panic: IPC 0.0001791 < 0.01
Simulation CPU 0 panic: IPC 0.0002348 < 0.01
Simulation CPU 0 panic: IPC 1.17e-05 < 0.01
Simulation CPU 0 panic: IPC 0.0001456 < 0.01
Simulation CPU 0 panic: IPC 7e-05 < 0.01
Simulation CPU 0 panic: IPC 7.07e-05 < 0.01
Simulation CPU 0 panic: IPC 0.0001799 < 0.01
Simulation CPU 0 panic: IPC 0.0002571 < 0.01
Simulation CPU 0 panic: IPC 8.01e-05 < 0.01
Simulation CPU 0 panic: IPC 2.09e-05 < 0.01
Simulation CPU 0 panic: IPC 0.0001618 < 0.01
Simulation CPU 0 panic: IPC 2.83e-05 < 0.01
Simulation CPU 0 panic: IPC 0.0003312 < 0.01
Simulation CPU 0 panic: IPC 0.0001744 < 0.01
Simulation CPU 0 panic: IPC 0.0002223 < 0.01
Simulation CPU 0 panic: IPC 5.1e-06 < 0.01
Simulation CPU 0 panic: IPC 5e-05 < 0.01
Simulation CPU 0 panic: IPC 3.24e-05 < 0.01
Simulation CPU 0 panic: IPC 7.56e-05 < 0.01
Simulation CPU 0 panic: IPC 0.0001378 < 0.01
Simulation CPU 0 panic: IPC 0.0001715 < 0.01
Simulation CPU 0 panic: IPC 4.89e-05 < 0.01
Simulation CPU 0 panic: IPC 2.37e-05 < 0.01
Simulation CPU 0 panic: IPC 4.61e-05 < 0.01
Simulation CPU 0 panic: IPC 0.0001943 < 0.01
Simulation CPU 0 panic: IPC 0.0001005 < 0.01
Simulation CPU 0 panic: IPC 2.82e-05 < 0.01
Simulation CPU 0 panic: IPC 0.0003203 < 0.01
Simulation CPU 0 panic: IPC 0.0002769 < 0.01
Simulation CPU 0 panic: IPC 0.0005878 < 0.01
Simulation CPU 0 panic: IPC 0.0002437 < 0.01
Simulation CPU 0 panic: IPC 2.82e-05 < 0.01
Simulation CPU 0 panic: IPC 1.66e-05 < 0.01
Simulation CPU 0 panic: IPC 0.0002559 < 0.01
Simulation CPU 0 panic: IPC 0.0002372 < 0.01
Simulation CPU 0 panic: IPC 3.95e-05 < 0.01
Simulation CPU 0 panic: IPC 0.000163 < 0.01
Simulation CPU 0 panic: IPC 0.0001676 < 0.01
Simulation CPU 0 panic: IPC 0.0002414 < 0.01
Simulation CPU 0 panic: IPC 4.16e-05 < 0.01
Simulation CPU 0 panic: IPC 3.72e-05 < 0.01
Simulation CPU 0 panic: IPC 0.0001227 < 0.01
Simulation CPU 0 panic: IPC 0.0002476 < 0.01
Simulation CPU 0 panic: IPC 0.0001958 < 0.01
Simulation CPU 0 panic: IPC 0.0003686 < 0.01
Simulation CPU 0 panic: IPC 0.0001047 < 0.01
Simulation CPU 0 panic: IPC 0.0001047 < 0.01
Simulation CPU 0 panic: IPC 7.88e-05 < 0.01
Simulation CPU 0 panic: IPC 0.0007421 < 0.01
Simulation CPU 0 panic: IPC 7.1e-06 < 0.01
Simulation CPU 0 panic: IPC 4.22e-05 < 0.01
Simulation CPU 0 panic: IPC 3.03e-05 < 0.01
Simulation CPU 0 panic: IPC 0.0006245 < 0.01
Simulation CPU 0 panic: IPC 3.49e-05 < 0.01
Simulation CPU 0 panic: IPC 7.48e-05 < 0.01
Simulation CPU 0 panic: IPC 0.0002813 < 0.01
Simulation CPU 0 panic: IPC 0.0002666 < 0.01
[ERROR_CYCLE] Error added at CPU cycle 2821296060, interval 4, pending count: 1
[DRAM_CYCLE_ERROR] Cycle-based error applied! address=0x70587ea0 additional_latency=2459910500 cycles
Simulation CPU 0 panic: IPC 4e-07 < 0.01
Simulation CPU 0 panic: IPC 0.0003518 < 0.01
Simulation CPU 0 panic: IPC 0.0005807 < 0.01
Simulation CPU 0 panic: IPC 0.0004421 < 0.01
Simulation CPU 0 panic: IPC 0.000318 < 0.01
Simulation CPU 0 panic: IPC 0.0001644 < 0.01
Simulation CPU 0 panic: IPC 2.53e-05 < 0.01
Simulation CPU 0 panic: IPC 0.0003332 < 0.01
Simulation CPU 0 panic: IPC 7.25e-05 < 0.01
Simulation CPU 0 panic: IPC 2.8e-06 < 0.01
Simulation CPU 0 panic: IPC 7.21e-05 < 0.01
Simulation CPU 0 panic: IPC 0.0003807 < 0.01
Simulation CPU 0 panic: IPC 0.0004946 < 0.01
Simulation CPU 0 panic: IPC 0.0003261 < 0.01
Simulation CPU 0 panic: IPC 0.0004985 < 0.01
Simulation CPU 0 panic: IPC 0.0001152 < 0.01
Simulation CPU 0 panic: IPC 0.0009513 < 0.01
Simulation CPU 0 panic: IPC 0.0010281 < 0.01
Simulation CPU 0 panic: IPC 1.63e-05 < 0.01
Simulation CPU 0 panic: IPC 0.0004864 < 0.01
Simulation CPU 0 panic: IPC 8.65e-05 < 0.01
Simulation CPU 0 panic: IPC 0.0007665 < 0.01
Simulation CPU 0 panic: IPC 0.0004636 < 0.01
Simulation CPU 0 panic: IPC 0.0003405 < 0.01
Simulation CPU 0 panic: IPC 0.0001647 < 0.01
Simulation CPU 0 panic: IPC 3.01e-05 < 0.01
Simulation CPU 0 panic: IPC 0.000104 < 0.01
Simulation CPU 0 panic: IPC 6.9e-06 < 0.01
Simulation CPU 0 panic: IPC 4.2e-05 < 0.01
Simulation CPU 0 panic: IPC 0.001005 < 0.01
Simulation CPU 0 panic: IPC 0.000117 < 0.01
Simulation CPU 0 panic: IPC 4.2e-05 < 0.01
Simulation CPU 0 panic: IPC 7.98e-05 < 0.01
Simulation CPU 0 panic: IPC 0.0001563 < 0.01
Simulation CPU 0 panic: IPC 0.0002212 < 0.01
Simulation CPU 0 panic: IPC 0.0002193 < 0.01
Simulation CPU 0 panic: IPC 0.0001872 < 0.01
Simulation CPU 0 panic: IPC 0.0014846 < 0.01
Simulation CPU 0 panic: IPC 0.0002043 < 0.01
Simulation CPU 0 panic: IPC 0.0003212 < 0.01
Simulation CPU 0 panic: IPC 0.0006029 < 0.01
Simulation CPU 0 panic: IPC 0.0006286 < 0.01
Simulation CPU 0 panic: IPC 0.0014964 < 0.01
Simulation CPU 0 panic: IPC 0.000788 < 0.01
Simulation CPU 0 panic: IPC 6.58e-05 < 0.01
Simulation CPU 0 panic: IPC 0.000169 < 0.01
Simulation CPU 0 panic: IPC 0.0048339 < 0.01
Simulation CPU 0 panic: IPC 0.0019413 < 0.01
Simulation CPU 0 panic: IPC 7.95e-05 < 0.01
Simulation CPU 0 panic: IPC 0.000563 < 0.01
Simulation CPU 0 panic: IPC 6.52e-05 < 0.01
Simulation CPU 0 panic: IPC 0.0007563 < 0.01
Simulation CPU 0 panic: IPC 0.0006593 < 0.01
Simulation CPU 0 panic: IPC 0.0006741 < 0.01
Simulation CPU 0 panic: IPC 0.0006288 < 0.01
Simulation CPU 0 panic: IPC 0.0033912 < 0.01
Heartbeat CPU 0 instructions: 10000001 cycles: 3393147637 heartbeat IPC: 0.002947 cumulative IPC: 0.002947 (Simulation time: 05 hr 05 min 30 sec)
Simulation CPU 0 panic: IPC 7e-06 < 0.01
Simulation CPU 0 panic: IPC 4.4e-06 < 0.01
Simulation CPU 0 panic: IPC 1.3e-05 < 0.01
Simulation CPU 0 panic: IPC 9.6e-06 < 0.01
Simulation CPU 0 panic: IPC 4.6e-06 < 0.01
Simulation CPU 0 panic: IPC 5.3e-06 < 0.01
Simulation CPU 0 panic: IPC 6.8e-06 < 0.01
Simulation CPU 0 panic: IPC 2.3e-06 < 0.01
Simulation CPU 0 panic: IPC 9.2e-06 < 0.01
Simulation CPU 0 panic: IPC 2.8e-06 < 0.01
Simulation CPU 0 panic: IPC 4.3e-06 < 0.01
Simulation CPU 0 panic: IPC 5.1e-06 < 0.01
[ERROR_CYCLE] Error added at CPU cycle 3526620075, interval 5, pending count: 1
[DRAM_CYCLE_ERROR] Cycle-based error applied! address=0x7d72c32b0 additional_latency=2459910500 cycles
Simulation CPU 0 panic: IPC 7.1e-06 < 0.01
Simulation CPU 0 panic: IPC 4.3e-06 < 0.01
Simulation CPU 0 panic: IPC 5.1e-06 < 0.01
Simulation CPU 0 panic: IPC 1.42e-05 < 0.01
Simulation CPU 0 panic: IPC 6.6e-06 < 0.01
Simulation CPU 0 panic: IPC 7.4e-06 < 0.01
Simulation CPU 0 panic: IPC 7.1e-06 < 0.01
Simulation CPU 0 panic: IPC 3.32e-05 < 0.01
Simulation CPU 0 panic: IPC 2.12e-05 < 0.01
Simulation CPU 0 panic: IPC 9.6e-06 < 0.01
Simulation CPU 0 panic: IPC 1.24e-05 < 0.01
Simulation CPU 0 panic: IPC 1.14e-05 < 0.01
Simulation CPU 0 panic: IPC 6.9e-06 < 0.01
Simulation CPU 0 panic: IPC 2.8e-06 < 0.01
Simulation CPU 0 panic: IPC 7.1e-06 < 0.01
Simulation CPU 0 panic: IPC 2.5e-06 < 0.01
Simulation CPU 0 panic: IPC 9.6e-06 < 0.01
Simulation CPU 0 panic: IPC 2.58e-05 < 0.01
Simulation CPU 0 panic: IPC 2.13e-05 < 0.01
Simulation CPU 0 panic: IPC 5.3e-06 < 0.01
Simulation CPU 0 panic: IPC 9.6e-06 < 0.01
Simulation CPU 0 panic: IPC 1.25e-05 < 0.01
Simulation CPU 0 panic: IPC 9.6e-06 < 0.01
Simulation CPU 0 panic: IPC 2.37e-05 < 0.01
Simulation CPU 0 panic: IPC 5.1e-06 < 0.01
Simulation CPU 0 panic: IPC 1.85e-05 < 0.01
Simulation CPU 0 panic: IPC 2.3e-06 < 0.01
Simulation CPU 0 panic: IPC 2.3e-06 < 0.01
Simulation CPU 0 panic: IPC 5.3e-06 < 0.01
Simulation CPU 0 panic: IPC 4.76e-05 < 0.01
Simulation CPU 0 panic: IPC 2.33e-05 < 0.01
Simulation CPU 0 panic: IPC 1.93e-05 < 0.01
Simulation CPU 0 panic: IPC 1.88e-05 < 0.01
Simulation CPU 0 panic: IPC 1.42e-05 < 0.01
Simulation CPU 0 panic: IPC 2.34e-05 < 0.01
Simulation CPU 0 panic: IPC 9.6e-06 < 0.01
Simulation CPU 0 panic: IPC 9.6e-06 < 0.01
Simulation CPU 0 panic: IPC 9.4e-06 < 0.01
Simulation CPU 0 panic: IPC 1.67e-05 < 0.01
Simulation CPU 0 panic: IPC 1.64e-05 < 0.01
Simulation CPU 0 panic: IPC 3.13e-05 < 0.01
Simulation CPU 0 panic: IPC 3.35e-05 < 0.01
Simulation CPU 0 panic: IPC 2.13e-05 < 0.01
Simulation CPU 0 panic: IPC 7.1e-06 < 0.01
Simulation CPU 0 panic: IPC 2.38e-05 < 0.01
Simulation CPU 0 panic: IPC 5.25e-05 < 0.01
Simulation CPU 0 panic: IPC 2.3e-06 < 0.01
Simulation CPU 0 panic: IPC 1.7e-05 < 0.01
Simulation CPU 0 panic: IPC 3.25e-05 < 0.01
Simulation CPU 0 panic: IPC 2.91e-05 < 0.01
Simulation CPU 0 panic: IPC 4.96e-05 < 0.01
Simulation CPU 0 panic: IPC 8.05e-05 < 0.01
Simulation CPU 0 panic: IPC 3.07e-05 < 0.01
Simulation CPU 0 panic: IPC 0.0002384 < 0.01
Simulation CPU 0 panic: IPC 0.0001135 < 0.01
Simulation CPU 0 panic: IPC 2.43e-05 < 0.01
Simulation CPU 0 panic: IPC 3.09e-05 < 0.01
Simulation CPU 0 panic: IPC 1.92e-05 < 0.01
Simulation CPU 0 panic: IPC 3.12e-05 < 0.01
Simulation CPU 0 panic: IPC 0.0001283 < 0.01
Simulation CPU 0 panic: IPC 2.5e-06 < 0.01
Simulation CPU 0 panic: IPC 1.83e-05 < 0.01
Simulation CPU 0 panic: IPC 1.63e-05 < 0.01
Simulation CPU 0 panic: IPC 5.45e-05 < 0.01
Simulation CPU 0 panic: IPC 1.74e-05 < 0.01
Simulation CPU 0 panic: IPC 4.67e-05 < 0.01
Simulation CPU 0 panic: IPC 9.96e-05 < 0.01
Simulation CPU 0 panic: IPC 3.51e-05 < 0.01
Simulation CPU 0 panic: IPC 9.4e-06 < 0.01
Simulation CPU 0 panic: IPC 4.29e-05 < 0.01
Simulation CPU 0 panic: IPC 0.0002013 < 0.01
[ERROR_CYCLE] Error added at CPU cycle 4231944091, interval 6, pending count: 1
[DRAM_CYCLE_ERROR] Cycle-based error applied! address=0x4b81ffae8 additional_latency=2459910500 cycles
Simulation CPU 0 panic: IPC 0 < 0.01
Simulation CPU 0 panic: IPC 7.34e-05 < 0.01
Simulation CPU 0 panic: IPC 1.88e-05 < 0.01
Simulation CPU 0 panic: IPC 5.3e-06 < 0.01
Simulation CPU 0 panic: IPC 4.03e-05 < 0.01
Simulation CPU 0 panic: IPC 1.6e-05 < 0.01
Simulation CPU 0 panic: IPC 2.85e-05 < 0.01
Simulation CPU 0 panic: IPC 9.78e-05 < 0.01
Simulation CPU 0 panic: IPC 8.54e-05 < 0.01
Simulation CPU 0 panic: IPC 5.68e-05 < 0.01
Simulation CPU 0 panic: IPC 5.04e-05 < 0.01
Simulation CPU 0 panic: IPC 4e-05 < 0.01
Simulation CPU 0 panic: IPC 7.85e-05 < 0.01
Simulation CPU 0 panic: IPC 3.83e-05 < 0.01
Simulation CPU 0 panic: IPC 2.5e-06 < 0.01
Simulation CPU 0 panic: IPC 0.0001909 < 0.01
Simulation CPU 0 panic: IPC 9.9e-06 < 0.01
Simulation CPU 0 panic: IPC 0.0001807 < 0.01
Simulation CPU 0 panic: IPC 0.0001314 < 0.01
Simulation CPU 0 panic: IPC 0.0001063 < 0.01
Simulation CPU 0 panic: IPC 0.000188 < 0.01
Simulation CPU 0 panic: IPC 0.0001402 < 0.01
Simulation CPU 0 panic: IPC 0.0001561 < 0.01
Simulation CPU 0 panic: IPC 0.0001679 < 0.01
Simulation CPU 0 panic: IPC 5.89e-05 < 0.01
Simulation CPU 0 panic: IPC 0.0001449 < 0.01
Simulation CPU 0 panic: IPC 3.41e-05 < 0.01
Simulation CPU 0 panic: IPC 0.0004179 < 0.01
Simulation CPU 0 panic: IPC 0.0002767 < 0.01
Simulation CPU 0 panic: IPC 0.0002127 < 0.01
Simulation CPU 0 panic: IPC 0.0009855 < 0.01
Simulation CPU 0 panic: IPC 0.0002115 < 0.01
Simulation CPU 0 panic: IPC 0.0001977 < 0.01
Simulation CPU 0 panic: IPC 1.24e-05 < 0.01
Simulation CPU 0 panic: IPC 0.0006533 < 0.01
Simulation CPU 0 panic: IPC 0.0002484 < 0.01
Simulation CPU 0 panic: IPC 0.0001168 < 0.01
Simulation CPU 0 panic: IPC 1.62e-05 < 0.01
Simulation CPU 0 panic: IPC 2.41e-05 < 0.01
Simulation CPU 0 panic: IPC 3.78e-05 < 0.01
Simulation CPU 0 panic: IPC 5.17e-05 < 0.01
Simulation CPU 0 panic: IPC 4.95e-05 < 0.01
Simulation CPU 0 panic: IPC 0.0002053 < 0.01
Simulation CPU 0 panic: IPC 0.0003816 < 0.01
Simulation CPU 0 panic: IPC 0.000499 < 0.01
Simulation CPU 0 panic: IPC 0.0001065 < 0.01
Simulation CPU 0 panic: IPC 0.0006812 < 0.01
Simulation CPU 0 panic: IPC 3.96e-05 < 0.01
Simulation CPU 0 panic: IPC 0.0001518 < 0.01
Simulation CPU 0 panic: IPC 0.0003459 < 0.01
Simulation CPU 0 panic: IPC 1.39e-05 < 0.01
Simulation CPU 0 panic: IPC 0.0004057 < 0.01
Simulation CPU 0 panic: IPC 3.12e-05 < 0.01
Simulation CPU 0 panic: IPC 1.88e-05 < 0.01
Simulation CPU 0 panic: IPC 1.14e-05 < 0.01
Simulation CPU 0 panic: IPC 0.000274 < 0.01
Simulation CPU 0 panic: IPC 0.0002413 < 0.01
Simulation CPU 0 panic: IPC 0.0001925 < 0.01
Simulation CPU 0 panic: IPC 0.0002117 < 0.01
Simulation CPU 0 panic: IPC 0.0008982 < 0.01
Simulation CPU 0 panic: IPC 0.0002563 < 0.01
Simulation CPU 0 panic: IPC 0.000161 < 0.01
Simulation CPU 0 panic: IPC 0.0001234 < 0.01
Simulation CPU 0 panic: IPC 0.0001119 < 0.01
Simulation CPU 0 panic: IPC 7.83e-05 < 0.01
Simulation CPU 0 panic: IPC 0.0006044 < 0.01
Simulation CPU 0 panic: IPC 1.49e-05 < 0.01
Simulation CPU 0 panic: IPC 0.0003012 < 0.01
Simulation CPU 0 panic: IPC 0.0002754 < 0.01
Simulation CPU 0 panic: IPC 0.0002837 < 0.01
[ERROR_CYCLE] Error added at CPU cycle 4937268106, interval 7, pending count: 1
[DRAM_CYCLE_ERROR] Cycle-based error applied! address=0x25bff0970 additional_latency=2459910500 cycles
Simulation CPU 0 panic: IPC 0 < 0.01
Simulation CPU 0 panic: IPC 0.0002628 < 0.01
Simulation CPU 0 panic: IPC 0.0002292 < 0.01
Simulation CPU 0 panic: IPC 0.0006179 < 0.01
Simulation CPU 0 panic: IPC 1.62e-05 < 0.01
Simulation CPU 0 panic: IPC 0.000624 < 0.01
Simulation CPU 0 panic: IPC 0.0004406 < 0.01
Simulation CPU 0 panic: IPC 0.0002682 < 0.01
Simulation CPU 0 panic: IPC 0.0004035 < 0.01
Simulation CPU 0 panic: IPC 0.0007626 < 0.01
Simulation CPU 0 panic: IPC 0.0001954 < 0.01
Simulation CPU 0 panic: IPC 4.92e-05 < 0.01
Simulation CPU 0 panic: IPC 0.0003397 < 0.01
Simulation CPU 0 panic: IPC 0.0002975 < 0.01
Simulation CPU 0 panic: IPC 0.0001417 < 0.01
Simulation CPU 0 panic: IPC 0.0002578 < 0.01
Simulation CPU 0 panic: IPC 0.0002692 < 0.01
Simulation CPU 0 panic: IPC 5.2e-05 < 0.01
Simulation CPU 0 panic: IPC 2.56e-05 < 0.01
Simulation CPU 0 panic: IPC 0.0006772 < 0.01
Simulation CPU 0 panic: IPC 6.41e-05 < 0.01
Simulation CPU 0 panic: IPC 7.36e-05 < 0.01
Simulation CPU 0 panic: IPC 0.0001944 < 0.01
Simulation CPU 0 panic: IPC 7.32e-05 < 0.01
Simulation CPU 0 panic: IPC 0.0014217 < 0.01
Simulation CPU 0 panic: IPC 0.0010271 < 0.01
Simulation CPU 0 panic: IPC 0.0006471 < 0.01
Simulation CPU 0 panic: IPC 0.0002276 < 0.01
Simulation CPU 0 panic: IPC 0.0006109 < 0.01
Simulation CPU 0 panic: IPC 0.0003269 < 0.01
Simulation CPU 0 panic: IPC 0.0001231 < 0.01
Simulation CPU 0 panic: IPC 5.91e-05 < 0.01
Simulation CPU 0 panic: IPC 0.0001871 < 0.01
Simulation CPU 0 panic: IPC 0.0003582 < 0.01
Simulation CPU 0 panic: IPC 2.36e-05 < 0.01
Simulation CPU 0 panic: IPC 0.0008499 < 0.01
Simulation CPU 0 panic: IPC 9.8e-05 < 0.01
Simulation CPU 0 panic: IPC 0.0001566 < 0.01
Simulation CPU 0 panic: IPC 0.0006001 < 0.01
Simulation CPU 0 panic: IPC 5.69e-05 < 0.01
Simulation CPU 0 panic: IPC 9.01e-05 < 0.01
Simulation CPU 0 panic: IPC 0.0001665 < 0.01
Simulation CPU 0 panic: IPC 0.0002031 < 0.01
Simulation CPU 0 panic: IPC 0.0001226 < 0.01
Simulation CPU 0 panic: IPC 0.0004496 < 0.01
Simulation CPU 0 panic: IPC 2.38e-05 < 0.01
Simulation CPU 0 panic: IPC 0.0011129 < 0.01
Simulation CPU 0 panic: IPC 0.000271 < 0.01
Simulation CPU 0 panic: IPC 0.0003288 < 0.01
Simulation CPU 0 panic: IPC 0.0007477 < 0.01
Simulation CPU 0 panic: IPC 0.0004635 < 0.01
Simulation CPU 0 panic: IPC 1.21e-05 < 0.01
Simulation CPU 0 panic: IPC 0.0017167 < 0.01
Simulation CPU 0 panic: IPC 0.0001702 < 0.01
Simulation CPU 0 panic: IPC 0.0010633 < 0.01
Simulation CPU 0 panic: IPC 9.7e-05 < 0.01
Simulation CPU 0 panic: IPC 0.0004995 < 0.01
Simulation CPU 0 panic: IPC 4.22e-05 < 0.01
Simulation CPU 0 panic: IPC 0.0020236 < 0.01
Simulation CPU 0 panic: IPC 0.0004137 < 0.01
Simulation CPU 0 panic: IPC 0.0002729 < 0.01
Simulation CPU 0 panic: IPC 0.0040989 < 0.01
Simulation CPU 0 panic: IPC 0.0008909 < 0.01
Simulation CPU 0 panic: IPC 0.0007025 < 0.01
Simulation CPU 0 panic: IPC 0.0002011 < 0.01
Simulation CPU 0 panic: IPC 8.12e-05 < 0.01
Simulation CPU 0 panic: IPC 0.0003724 < 0.01
Simulation CPU 0 panic: IPC 0.0004801 < 0.01
Simulation CPU 0 panic: IPC 0.0005158 < 0.01
Simulation CPU 0 panic: IPC 6.88e-05 < 0.01
Simulation CPU 0 panic: IPC 0.0004272 < 0.01
[ERROR_CYCLE] Error added at CPU cycle 5642592121, interval 8, pending count: 1
[DRAM_CYCLE_ERROR] Cycle-based error applied! address=0x57cfb8df0 additional_latency=2459910500 cycles
Simulation CPU 0 panic: IPC 4.98e-05 < 0.01
Simulation CPU 0 panic: IPC 0 < 0.01
Simulation CPU 0 panic: IPC 0.0019386 < 0.01
Simulation CPU 0 panic: IPC 0.0006044 < 0.01
Simulation CPU 0 panic: IPC 0.0012498 < 0.01
Simulation CPU 0 panic: IPC 0.000909 < 0.01
Simulation CPU 0 panic: IPC 0.0023565 < 0.01
Simulation CPU 0 panic: IPC 2.31e-05 < 0.01
Simulation CPU 0 panic: IPC 0.0017323 < 0.01
Simulation CPU 0 panic: IPC 0.0008731 < 0.01
Simulation CPU 0 panic: IPC 0.0003639 < 0.01
Simulation CPU 0 panic: IPC 0.0002037 < 0.01
Simulation CPU 0 panic: IPC 0.0004434 < 0.01
Simulation CPU 0 panic: IPC 0.0003872 < 0.01
Simulation CPU 0 panic: IPC 0.0010376 < 0.01
Simulation CPU 0 panic: IPC 0.0003176 < 0.01
Simulation CPU 0 panic: IPC 0.0019995 < 0.01
Simulation CPU 0 panic: IPC 0.0015962 < 0.01
Simulation CPU 0 panic: IPC 0.000826 < 0.01
Simulation CPU 0 panic: IPC 0.0010144 < 0.01
Simulation CPU 0 panic: IPC 0.0014461 < 0.01
Simulation CPU 0 panic: IPC 0.0032179 < 0.01
Simulation CPU 0 panic: IPC 0.0002517 < 0.01
Simulation CPU 0 panic: IPC 0.0011276 < 0.01
Simulation CPU 0 panic: IPC 0.0011061 < 0.01
Simulation CPU 0 panic: IPC 0.0001502 < 0.01
Simulation CPU 0 panic: IPC 0.0002236 < 0.01
Simulation CPU 0 panic: IPC 0.0005721 < 0.01
Simulation CPU 0 panic: IPC 0.0049299 < 0.01
Heartbeat CPU 0 instructions: 20000002 cycles: 5938348052 heartbeat IPC: 0.003929 cumulative IPC: 0.003368 (Simulation time: 08 hr 54 min 25 sec)
Simulation CPU 0 panic: IPC 1.5e-06 < 0.01
Simulation CPU 0 panic: IPC 4.3e-06 < 0.01
Simulation CPU 0 panic: IPC 2e-07 < 0.01
Simulation CPU 0 panic: IPC 1.2e-06 < 0.01
Simulation CPU 0 panic: IPC 2.5e-06 < 0.01
Simulation CPU 0 panic: IPC 1.2e-05 < 0.01
Simulation CPU 0 panic: IPC 1.1e-05 < 0.01
Simulation CPU 0 panic: IPC 4.6e-06 < 0.01
Simulation CPU 0 panic: IPC 5.1e-06 < 0.01
Simulation CPU 0 panic: IPC 6.8e-06 < 0.01
Simulation CPU 0 panic: IPC 8.7e-06 < 0.01
Simulation CPU 0 panic: IPC 1.12e-05 < 0.01
Simulation CPU 0 panic: IPC 1.8e-06 < 0.01
Simulation CPU 0 panic: IPC 2.32e-05 < 0.01
Simulation CPU 0 panic: IPC 2.1e-06 < 0.01
Simulation CPU 0 panic: IPC 4.3e-06 < 0.01
Simulation CPU 0 panic: IPC 1.51e-05 < 0.01
Simulation CPU 0 panic: IPC 1.39e-05 < 0.01
Simulation CPU 0 panic: IPC 8.9e-06 < 0.01
Simulation CPU 0 panic: IPC 1.04e-05 < 0.01
Simulation CPU 0 panic: IPC 2.33e-05 < 0.01
Simulation CPU 0 panic: IPC 7.1e-06 < 0.01
Simulation CPU 0 panic: IPC 3.09e-05 < 0.01
Simulation CPU 0 panic: IPC 3.95e-05 < 0.01
Simulation CPU 0 panic: IPC 1.71e-05 < 0.01
Simulation CPU 0 panic: IPC 3.95e-05 < 0.01
Simulation CPU 0 panic: IPC 4.3e-06 < 0.01
Simulation CPU 0 panic: IPC 2.14e-05 < 0.01
Simulation CPU 0 panic: IPC 4.3e-06 < 0.01
Simulation CPU 0 panic: IPC 2.76e-05 < 0.01
Simulation CPU 0 panic: IPC 7.9e-05 < 0.01
Simulation CPU 0 panic: IPC 4.05e-05 < 0.01
Simulation CPU 0 panic: IPC 7.17e-05 < 0.01
Simulation CPU 0 panic: IPC 3.55e-05 < 0.01
Simulation CPU 0 panic: IPC 5.04e-05 < 0.01
Simulation CPU 0 panic: IPC 3.5e-05 < 0.01
Simulation CPU 0 panic: IPC 1.1e-05 < 0.01
Simulation CPU 0 panic: IPC 6.91e-05 < 0.01
Simulation CPU 0 panic: IPC 2.45e-05 < 0.01
[ERROR_CYCLE] Error added at CPU cycle 6347916135, interval 9, pending count: 1
[DRAM_CYCLE_ERROR] Cycle-based error applied! address=0x7db23dda0 additional_latency=2459910500 cycles
Simulation CPU 0 panic: IPC 4e-07 < 0.01
Simulation CPU 0 panic: IPC 0.0001001 < 0.01
Simulation CPU 0 panic: IPC 1.17e-05 < 0.01
Simulation CPU 0 panic: IPC 3.17e-05 < 0.01
Simulation CPU 0 panic: IPC 0.0001939 < 0.01
Simulation CPU 0 panic: IPC 4.3e-06 < 0.01
Simulation CPU 0 panic: IPC 0.0001068 < 0.01
Simulation CPU 0 panic: IPC 4.11e-05 < 0.01
Simulation CPU 0 panic: IPC 0.0003488 < 0.01
Simulation CPU 0 panic: IPC 4.22e-05 < 0.01
Simulation CPU 0 panic: IPC 4.13e-05 < 0.01
Simulation CPU 0 panic: IPC 0.0001591 < 0.01
Simulation CPU 0 panic: IPC 3.89e-05 < 0.01
Simulation CPU 0 panic: IPC 5.57e-05 < 0.01
Simulation CPU 0 panic: IPC 0.0001569 < 0.01
Simulation CPU 0 panic: IPC 1.96e-05 < 0.01
Simulation CPU 0 panic: IPC 0.0001126 < 0.01
Simulation CPU 0 panic: IPC 0.0001277 < 0.01
Simulation CPU 0 panic: IPC 8.51e-05 < 0.01
Simulation CPU 0 panic: IPC 0.0001768 < 0.01
Simulation CPU 0 panic: IPC 3.95e-05 < 0.01
Simulation CPU 0 panic: IPC 0.0001695 < 0.01
Simulation CPU 0 panic: IPC 0.0001111 < 0.01
Simulation CPU 0 panic: IPC 0.000173 < 0.01
Simulation CPU 0 panic: IPC 0.0006067 < 0.01
Simulation CPU 0 panic: IPC 0.00024 < 0.01
Simulation CPU 0 panic: IPC 2.17e-05 < 0.01
Simulation CPU 0 panic: IPC 1.62e-05 < 0.01
Simulation CPU 0 panic: IPC 7.3e-05 < 0.01
Simulation CPU 0 panic: IPC 0.0002533 < 0.01
Simulation CPU 0 panic: IPC 0.0002499 < 0.01
Simulation CPU 0 panic: IPC 2.04e-05 < 0.01
Simulation CPU 0 panic: IPC 4.33e-05 < 0.01
Simulation CPU 0 panic: IPC 0.0001348 < 0.01
Simulation CPU 0 panic: IPC 7.92e-05 < 0.01
Simulation CPU 0 panic: IPC 0.0001081 < 0.01
Simulation CPU 0 panic: IPC 0.0001261 < 0.01
Simulation CPU 0 panic: IPC 2.67e-05 < 0.01
Simulation CPU 0 panic: IPC 6.01e-05 < 0.01
Simulation CPU 0 panic: IPC 1.54e-05 < 0.01
Simulation CPU 0 panic: IPC 2.63e-05 < 0.01
Simulation CPU 0 panic: IPC 5.7e-06 < 0.01
Simulation CPU 0 panic: IPC 0.0001868 < 0.01
Simulation CPU 0 panic: IPC 2.55e-05 < 0.01
Simulation CPU 0 panic: IPC 1.31e-05 < 0.01
Simulation CPU 0 panic: IPC 0.0004005 < 0.01
Simulation CPU 0 panic: IPC 0.0001294 < 0.01
Simulation CPU 0 panic: IPC 7.55e-05 < 0.01
Simulation CPU 0 panic: IPC 0.0004357 < 0.01
Simulation CPU 0 panic: IPC 0.0001482 < 0.01
Simulation CPU 0 panic: IPC 4.92e-05 < 0.01
Simulation CPU 0 panic: IPC 0.0005786 < 0.01
Simulation CPU 0 panic: IPC 9.4e-06 < 0.01
Simulation CPU 0 panic: IPC 1.19e-05 < 0.01
Simulation CPU 0 panic: IPC 0.0002427 < 0.01
Simulation CPU 0 panic: IPC 0.0002509 < 0.01
Simulation CPU 0 panic: IPC 5.56e-05 < 0.01
Simulation CPU 0 panic: IPC 0.0001706 < 0.01
Simulation CPU 0 panic: IPC 4.04e-05 < 0.01
Simulation CPU 0 panic: IPC 0.0001518 < 0.01
Simulation CPU 0 panic: IPC 0.0001975 < 0.01
Simulation CPU 0 panic: IPC 0.0001179 < 0.01
Simulation CPU 0 panic: IPC 7.61e-05 < 0.01
Simulation CPU 0 panic: IPC 3.4e-05 < 0.01
Simulation CPU 0 panic: IPC 0.0005928 < 0.01
Simulation CPU 0 panic: IPC 0.0001694 < 0.01
Simulation CPU 0 panic: IPC 4.8e-05 < 0.01
Simulation CPU 0 panic: IPC 0.0001112 < 0.01
Simulation CPU 0 panic: IPC 6.21e-05 < 0.01
Simulation CPU 0 panic: IPC 0.0001095 < 0.01
Simulation CPU 0 panic: IPC 0.0001 < 0.01
[ERROR_CYCLE] Error added at CPU cycle 7053240150, interval 10, pending count: 1
[DRAM_CYCLE_ERROR] Cycle-based error applied! address=0x13c6564b8 additional_latency=2459910500 cycles
Simulation CPU 0 panic: IPC 0.0001861 < 0.01
Simulation CPU 0 panic: IPC 0 < 0.01
Simulation CPU 0 panic: IPC 0.0004086 < 0.01
Simulation CPU 0 panic: IPC 0.0006393 < 0.01
Simulation CPU 0 panic: IPC 9.4e-06 < 0.01
Simulation CPU 0 panic: IPC 8.56e-05 < 0.01
Simulation CPU 0 panic: IPC 8.57e-05 < 0.01
Simulation CPU 0 panic: IPC 8.17e-05 < 0.01
Simulation CPU 0 panic: IPC 2.9e-05 < 0.01
Simulation CPU 0 panic: IPC 0.0001897 < 0.01
Simulation CPU 0 panic: IPC 2.61e-05 < 0.01
Simulation CPU 0 panic: IPC 1.86e-05 < 0.01
Simulation CPU 0 panic: IPC 3.14e-05 < 0.01
Simulation CPU 0 panic: IPC 8.29e-05 < 0.01
Simulation CPU 0 panic: IPC 0.0003469 < 0.01
Simulation CPU 0 panic: IPC 0.000116 < 0.01
Simulation CPU 0 panic: IPC 0.0002337 < 0.01
Simulation CPU 0 panic: IPC 0.0002626 < 0.01
Simulation CPU 0 panic: IPC 0.0002498 < 0.01
Simulation CPU 0 panic: IPC 0.000109 < 0.01
Simulation CPU 0 panic: IPC 0.0005098 < 0.01
Simulation CPU 0 panic: IPC 0.0002056 < 0.01
Simulation CPU 0 panic: IPC 9.7e-06 < 0.01
Simulation CPU 0 panic: IPC 5.89e-05 < 0.01
Simulation CPU 0 panic: IPC 0.0003568 < 0.01
Simulation CPU 0 panic: IPC 0.0001968 < 0.01
Simulation CPU 0 panic: IPC 0.0003042 < 0.01
Simulation CPU 0 panic: IPC 0.0001708 < 0.01
Simulation CPU 0 panic: IPC 0.0002553 < 0.01
Simulation CPU 0 panic: IPC 0.000135 < 0.01
Simulation CPU 0 panic: IPC 8.39e-05 < 0.01
Simulation CPU 0 panic: IPC 0.0003554 < 0.01
Simulation CPU 0 panic: IPC 0.0011507 < 0.01
Simulation CPU 0 panic: IPC 0.0003622 < 0.01
Simulation CPU 0 panic: IPC 0.0001338 < 0.01
Simulation CPU 0 panic: IPC 0.0002468 < 0.01
Simulation CPU 0 panic: IPC 0.000304 < 0.01
Simulation CPU 0 panic: IPC 1.71e-05 < 0.01
Simulation CPU 0 panic: IPC 5.51e-05 < 0.01
Simulation CPU 0 panic: IPC 0.0002797 < 0.01
Simulation CPU 0 panic: IPC 0.0004052 < 0.01
Simulation CPU 0 panic: IPC 0.0001712 < 0.01
Simulation CPU 0 panic: IPC 1.04e-05 < 0.01
Simulation CPU 0 panic: IPC 3.87e-05 < 0.01
Simulation CPU 0 panic: IPC 0.00014 < 0.01
Simulation CPU 0 panic: IPC 4.4e-06 < 0.01
Simulation CPU 0 panic: IPC 0.0011559 < 0.01
Simulation CPU 0 panic: IPC 0.0002521 < 0.01
Simulation CPU 0 panic: IPC 0.0003425 < 0.01
Simulation CPU 0 panic: IPC 4.42e-05 < 0.01
Simulation CPU 0 panic: IPC 9.35e-05 < 0.01
Simulation CPU 0 panic: IPC 0.0002167 < 0.01
Simulation CPU 0 panic: IPC 0.0001386 < 0.01
Simulation CPU 0 panic: IPC 0.0001403 < 0.01
Simulation CPU 0 panic: IPC 0.0001228 < 0.01
Simulation CPU 0 panic: IPC 1.46e-05 < 0.01
Simulation CPU 0 panic: IPC 0.0001518 < 0.01
Simulation CPU 0 panic: IPC 0.0001631 < 0.01
Simulation CPU 0 panic: IPC 0.0001727 < 0.01
Simulation CPU 0 panic: IPC 0.0003224 < 0.01
Simulation CPU 0 panic: IPC 9.1e-06 < 0.01
Simulation CPU 0 panic: IPC 4.28e-05 < 0.01
Simulation CPU 0 panic: IPC 0.0004744 < 0.01
Simulation CPU 0 panic: IPC 0.0006959 < 0.01
Simulation CPU 0 panic: IPC 0.0003558 < 0.01
Simulation CPU 0 panic: IPC 0.0005323 < 0.01
Simulation CPU 0 panic: IPC 1.05e-05 < 0.01
Simulation CPU 0 panic: IPC 0.0007276 < 0.01
Simulation CPU 0 panic: IPC 4.4e-06 < 0.01
Simulation CPU 0 panic: IPC 0.0005376 < 0.01
[ERROR_CYCLE] Error added at CPU cycle 7758564165, interval 11, pending count: 1
[DRAM_CYCLE_ERROR] Cycle-based error applied! address=0x13c6a1c10 additional_latency=2459910500 cycles
Simulation CPU 0 panic: IPC 2.88e-05 < 0.01
Simulation CPU 0 panic: IPC 0 < 0.01
Simulation CPU 0 panic: IPC 0.0004702 < 0.01
Simulation CPU 0 panic: IPC 9.84e-05 < 0.01
Simulation CPU 0 panic: IPC 0.0002854 < 0.01
Simulation CPU 0 panic: IPC 0.0001352 < 0.01
Simulation CPU 0 panic: IPC 1.11e-05 < 0.01
Simulation CPU 0 panic: IPC 0.0003875 < 0.01
Simulation CPU 0 panic: IPC 0.0002053 < 0.01
Simulation CPU 0 panic: IPC 0.0001095 < 0.01
Simulation CPU 0 panic: IPC 0.0003887 < 0.01
Simulation CPU 0 panic: IPC 0.0003474 < 0.01
Simulation CPU 0 panic: IPC 4.3e-06 < 0.01
Simulation CPU 0 panic: IPC 0.000223 < 0.01
Simulation CPU 0 panic: IPC 5.58e-05 < 0.01
Simulation CPU 0 panic: IPC 0.0001658 < 0.01
Simulation CPU 0 panic: IPC 0.0001228 < 0.01
Simulation CPU 0 panic: IPC 0.0006092 < 0.01
Simulation CPU 0 panic: IPC 0.0006614 < 0.01
Simulation CPU 0 panic: IPC 0.0001554 < 0.01
Simulation CPU 0 panic: IPC 0.0003663 < 0.01
Simulation CPU 0 panic: IPC 0.0001168 < 0.01
Simulation CPU 0 panic: IPC 2.11e-05 < 0.01
Simulation CPU 0 panic: IPC 0.000197 < 0.01
Simulation CPU 0 panic: IPC 2.19e-05 < 0.01
Simulation CPU 0 panic: IPC 0.0008169 < 0.01
Simulation CPU 0 panic: IPC 0.0008844 < 0.01
Simulation CPU 0 panic: IPC 0.0001471 < 0.01
Simulation CPU 0 panic: IPC 8.91e-05 < 0.01
Simulation CPU 0 panic: IPC 6.78e-05 < 0.01
Simulation CPU 0 panic: IPC 0.000334 < 0.01
Simulation CPU 0 panic: IPC 0.0005023 < 0.01
Simulation CPU 0 panic: IPC 0.0001019 < 0.01
Simulation CPU 0 panic: IPC 6.2e-05 < 0.01
Simulation CPU 0 panic: IPC 1.53e-05 < 0.01
Simulation CPU 0 panic: IPC 3.57e-05 < 0.01
Simulation CPU 0 panic: IPC 5.28e-05 < 0.01
Simulation CPU 0 panic: IPC 0.0001181 < 0.01
Simulation CPU 0 panic: IPC 7.77e-05 < 0.01
Simulation CPU 0 panic: IPC 6.23e-05 < 0.01
Simulation CPU 0 panic: IPC 0.0004393 < 0.01
Simulation CPU 0 panic: IPC 5.1e-06 < 0.01
Simulation CPU 0 panic: IPC 8.9e-05 < 0.01
Simulation CPU 0 panic: IPC 0.0002086 < 0.01
Simulation CPU 0 panic: IPC 0.0003076 < 0.01
Simulation CPU 0 panic: IPC 0.0002009 < 0.01
Simulation CPU 0 panic: IPC 0.0001885 < 0.01
Simulation CPU 0 panic: IPC 4.15e-05 < 0.01
Simulation CPU 0 panic: IPC 8.53e-05 < 0.01
Simulation CPU 0 panic: IPC 1.94e-05 < 0.01
Simulation CPU 0 panic: IPC 7.81e-05 < 0.01
Simulation CPU 0 panic: IPC 0.0001928 < 0.01
Simulation CPU 0 panic: IPC 4.21e-05 < 0.01
Simulation CPU 0 panic: IPC 1.76e-05 < 0.01
Simulation CPU 0 panic: IPC 1.07e-05 < 0.01
Simulation CPU 0 panic: IPC 4.17e-05 < 0.01
Simulation CPU 0 panic: IPC 0.0003275 < 0.01
Simulation CPU 0 panic: IPC 0.0001441 < 0.01
Simulation CPU 0 panic: IPC 5.79e-05 < 0.01
Simulation CPU 0 panic: IPC 5.1e-06 < 0.01
Simulation CPU 0 panic: IPC 6.38e-05 < 0.01
Simulation CPU 0 panic: IPC 0.0004373 < 0.01
Simulation CPU 0 panic: IPC 0.0001486 < 0.01
Simulation CPU 0 panic: IPC 0.0002091 < 0.01
Simulation CPU 0 panic: IPC 0.0001072 < 0.01
Simulation CPU 0 panic: IPC 0.0001429 < 0.01
Simulation CPU 0 panic: IPC 8.17e-05 < 0.01
Simulation CPU 0 panic: IPC 2.1e-05 < 0.01
Simulation CPU 0 panic: IPC 0.0004403 < 0.01
Simulation CPU 0 panic: IPC 0.0003599 < 0.01
Simulation CPU 0 panic: IPC 0.000285 < 0.01
[ERROR_CYCLE] Error added at CPU cycle 8463888181, interval 12, pending count: 1
[DRAM_CYCLE_ERROR] Cycle-based error applied! address=0x79a23e440 additional_latency=2459910500 cycles
Simulation CPU 0 panic: IPC 0 < 0.01
Simulation CPU 0 panic: IPC 0.0001074 < 0.01
Simulation CPU 0 panic: IPC 0.0001296 < 0.01
Simulation CPU 0 panic: IPC 6.27e-05 < 0.01
Simulation CPU 0 panic: IPC 2.46e-05 < 0.01
Simulation CPU 0 panic: IPC 0.00022 < 0.01
Simulation CPU 0 panic: IPC 0.0008485 < 0.01
Simulation CPU 0 panic: IPC 0.0002906 < 0.01
Simulation CPU 0 panic: IPC 0.0001656 < 0.01
Simulation CPU 0 panic: IPC 0.0001319 < 0.01
Simulation CPU 0 panic: IPC 0.0003947 < 0.01
Simulation CPU 0 panic: IPC 0.0003691 < 0.01
Simulation CPU 0 panic: IPC 0.000229 < 0.01
Simulation CPU 0 panic: IPC 7.33e-05 < 0.01
Simulation CPU 0 panic: IPC 0.0002531 < 0.01
Simulation CPU 0 panic: IPC 9.06e-05 < 0.01
Simulation CPU 0 panic: IPC 3.13e-05 < 0.01
Simulation CPU 0 panic: IPC 0.0005034 < 0.01
Simulation CPU 0 panic: IPC 3.01e-05 < 0.01
Simulation CPU 0 panic: IPC 0.0011624 < 0.01
Simulation CPU 0 panic: IPC 0.0004178 < 0.01
Simulation CPU 0 panic: IPC 0.0004944 < 0.01
Simulation CPU 0 panic: IPC 0.0001229 < 0.01
Simulation CPU 0 panic: IPC 0.0008754 < 0.01
Simulation CPU 0 panic: IPC 0.0001581 < 0.01
Simulation CPU 0 panic: IPC 0.0001235 < 0.01
Simulation CPU 0 panic: IPC 2.1e-06 < 0.01
Simulation CPU 0 panic: IPC 0.0002647 < 0.01
Simulation CPU 0 panic: IPC 9.12e-05 < 0.01
Simulation CPU 0 panic: IPC 0.0004271 < 0.01
Simulation CPU 0 panic: IPC 6.08e-05 < 0.01
Simulation CPU 0 panic: IPC 0.0001186 < 0.01
Simulation CPU 0 panic: IPC 0.0001622 < 0.01
Simulation CPU 0 panic: IPC 0.000209 < 0.01
Simulation CPU 0 panic: IPC 0.0001247 < 0.01
Simulation CPU 0 panic: IPC 6.27e-05 < 0.01
Simulation CPU 0 panic: IPC 8.14e-05 < 0.01
Simulation CPU 0 panic: IPC 0.0001806 < 0.01
Simulation CPU 0 panic: IPC 3.53e-05 < 0.01
Simulation CPU 0 panic: IPC 0.000102 < 0.01
Simulation CPU 0 panic: IPC 0.0001811 < 0.01
Simulation CPU 0 panic: IPC 4.36e-05 < 0.01
Simulation CPU 0 panic: IPC 0.0005 < 0.01
Simulation CPU 0 panic: IPC 0.0002208 < 0.01
Simulation CPU 0 panic: IPC 0.0006199 < 0.01
Simulation CPU 0 panic: IPC 2.53e-05 < 0.01
Simulation CPU 0 panic: IPC 0.0001688 < 0.01
Simulation CPU 0 panic: IPC 0.0010716 < 0.01
Simulation CPU 0 panic: IPC 8.6e-06 < 0.01
Simulation CPU 0 panic: IPC 6.85e-05 < 0.01
Simulation CPU 0 panic: IPC 0.0002814 < 0.01
Simulation CPU 0 panic: IPC 0.000323 < 0.01
Simulation CPU 0 panic: IPC 7.77e-05 < 0.01
Simulation CPU 0 panic: IPC 5.61e-05 < 0.01
Simulation CPU 0 panic: IPC 0.0002608 < 0.01
Simulation CPU 0 panic: IPC 7.46e-05 < 0.01
Simulation CPU 0 panic: IPC 0.0002379 < 0.01
Simulation CPU 0 panic: IPC 0.0001566 < 0.01
Simulation CPU 0 panic: IPC 1.14e-05 < 0.01
Simulation CPU 0 panic: IPC 0.0001794 < 0.01
Simulation CPU 0 panic: IPC 0.000825 < 0.01
Simulation CPU 0 panic: IPC 3.8e-05 < 0.01
Simulation CPU 0 panic: IPC 6.65e-05 < 0.01
Simulation CPU 0 panic: IPC 0.0007922 < 0.01
Simulation CPU 0 panic: IPC 0.000485 < 0.01
Simulation CPU 0 panic: IPC 0.0002233 < 0.01
Simulation CPU 0 panic: IPC 0.0002474 < 0.01
Simulation CPU 0 panic: IPC 0.0001173 < 0.01
Simulation CPU 0 panic: IPC 1.81e-05 < 0.01
Simulation CPU 0 panic: IPC 0.0002717 < 0.01
[ERROR_CYCLE] Error added at CPU cycle 9169212196, interval 13, pending count: 1
Simulation CPU 0 panic: IPC 0.0002939 < 0.01
[DRAM_CYCLE_ERROR] Cycle-based error applied! address=0x7f33e6fd0 additional_latency=2459910500 cycles
Simulation CPU 0 panic: IPC 0 < 0.01
Simulation CPU 0 panic: IPC 4e-05 < 0.01
Simulation CPU 0 panic: IPC 0.0012497 < 0.01
Simulation CPU 0 panic: IPC 6.13e-05 < 0.01
Simulation CPU 0 panic: IPC 6.37e-05 < 0.01
Simulation CPU 0 panic: IPC 4.38e-05 < 0.01
Simulation CPU 0 panic: IPC 0.0006427 < 0.01
Simulation CPU 0 panic: IPC 6.99e-05 < 0.01
Simulation CPU 0 panic: IPC 0.0002371 < 0.01
Simulation CPU 0 panic: IPC 8.97e-05 < 0.01
Simulation CPU 0 panic: IPC 0.0002711 < 0.01
Simulation CPU 0 panic: IPC 0.0005678 < 0.01
Simulation CPU 0 panic: IPC 0.0002065 < 0.01
Simulation CPU 0 panic: IPC 0.0001829 < 0.01
Simulation CPU 0 panic: IPC 0.0001342 < 0.01
Simulation CPU 0 panic: IPC 4.35e-05 < 0.01
Simulation CPU 0 panic: IPC 0.0001248 < 0.01
Simulation CPU 0 panic: IPC 0.0001372 < 0.01
Simulation CPU 0 panic: IPC 0.000339 < 0.01
Simulation CPU 0 panic: IPC 0.0001928 < 0.01
Simulation CPU 0 panic: IPC 0.000647 < 0.01
Simulation CPU 0 panic: IPC 0.0003275 < 0.01
Simulation CPU 0 panic: IPC 7.3e-05 < 0.01
Simulation CPU 0 panic: IPC 0.0001096 < 0.01
Simulation CPU 0 panic: IPC 0.0002002 < 0.01
Simulation CPU 0 panic: IPC 0.0001027 < 0.01
Simulation CPU 0 panic: IPC 0.0001172 < 0.01
Simulation CPU 0 panic: IPC 3.04e-05 < 0.01
Simulation CPU 0 panic: IPC 0.0002275 < 0.01
Simulation CPU 0 panic: IPC 0.0001118 < 0.01
Simulation CPU 0 panic: IPC 0.0001866 < 0.01
Simulation CPU 0 panic: IPC 0.0003179 < 0.01
Simulation CPU 0 panic: IPC 0.0002887 < 0.01
Simulation CPU 0 panic: IPC 0.000205 < 0.01
Simulation CPU 0 panic: IPC 2.87e-05 < 0.01
Simulation CPU 0 panic: IPC 6.03e-05 < 0.01
Simulation CPU 0 panic: IPC 0.0002131 < 0.01
Simulation CPU 0 panic: IPC 0.0002862 < 0.01
Simulation CPU 0 panic: IPC 3.92e-05 < 0.01
Simulation CPU 0 panic: IPC 0.0002351 < 0.01
Simulation CPU 0 panic: IPC 3.95e-05 < 0.01
Simulation CPU 0 panic: IPC 0.0005352 < 0.01
Simulation CPU 0 panic: IPC 0.0001108 < 0.01
Simulation CPU 0 panic: IPC 0.0001899 < 0.01
Simulation CPU 0 panic: IPC 0.000147 < 0.01
Simulation CPU 0 panic: IPC 0.0002102 < 0.01
Simulation CPU 0 panic: IPC 0.0002241 < 0.01
Simulation CPU 0 panic: IPC 0.0004685 < 0.01
Simulation CPU 0 panic: IPC 0.0001088 < 0.01
Simulation CPU 0 panic: IPC 0.0002746 < 0.01
Simulation CPU 0 panic: IPC 5.02e-05 < 0.01
Simulation CPU 0 panic: IPC 0.0001436 < 0.01
Simulation CPU 0 panic: IPC 0.0001172 < 0.01
Simulation CPU 0 panic: IPC 0.0003327 < 0.01
Simulation CPU 0 panic: IPC 0.0001355 < 0.01
Simulation CPU 0 panic: IPC 0.0003783 < 0.01
Simulation CPU 0 panic: IPC 5.91e-05 < 0.01
Simulation CPU 0 panic: IPC 0.0005729 < 0.01
Simulation CPU 0 panic: IPC 5.59e-05 < 0.01
Simulation CPU 0 panic: IPC 1.87e-05 < 0.01
Simulation CPU 0 panic: IPC 0.0001355 < 0.01
Simulation CPU 0 panic: IPC 8.82e-05 < 0.01
Simulation CPU 0 panic: IPC 0.0006069 < 0.01
Simulation CPU 0 panic: IPC 0.0002721 < 0.01
Simulation CPU 0 panic: IPC 0.0002295 < 0.01
Simulation CPU 0 panic: IPC 0.000533 < 0.01
Simulation CPU 0 panic: IPC 0.0002229 < 0.01
Simulation CPU 0 panic: IPC 0.0004173 < 0.01
Simulation CPU 0 panic: IPC 3.09e-05 < 0.01
Simulation CPU 0 panic: IPC 0.0008507 < 0.01
[ERROR_CYCLE] Error added at CPU cycle 9874536211, interval 14, pending count: 1
[DRAM_CYCLE_ERROR] Cycle-based error applied! address=0x1ab435820 additional_latency=2459910500 cycles
Simulation CPU 0 panic: IPC 0 < 0.01
Simulation CPU 0 panic: IPC 0.0001961 < 0.01
Simulation CPU 0 panic: IPC 2.97e-05 < 0.01
Simulation CPU 0 panic: IPC 0.0008716 < 0.01
Simulation CPU 0 panic: IPC 0.0004794 < 0.01
Simulation CPU 0 panic: IPC 2.82e-05 < 0.01
Simulation CPU 0 panic: IPC 0.0003551 < 0.01
Simulation CPU 0 panic: IPC 0.0018761 < 0.01
Simulation CPU 0 panic: IPC 0.000683 < 0.01
Simulation CPU 0 panic: IPC 0.0005767 < 0.01
Simulation CPU 0 panic: IPC 0.0004452 < 0.01
Simulation CPU 0 panic: IPC 0.0001906 < 0.01
Simulation CPU 0 panic: IPC 0.0003783 < 0.01
Simulation CPU 0 panic: IPC 0.0004302 < 0.01
Simulation CPU 0 panic: IPC 2.3e-06 < 0.01
Simulation CPU 0 panic: IPC 0.0002825 < 0.01
Simulation CPU 0 panic: IPC 7.46e-05 < 0.01
Simulation CPU 0 panic: IPC 4.15e-05 < 0.01
Simulation CPU 0 panic: IPC 6.1e-06 < 0.01
Simulation CPU 0 panic: IPC 0.0004948 < 0.01
Simulation CPU 0 panic: IPC 0.0001894 < 0.01
Simulation CPU 0 panic: IPC 0.0001777 < 0.01
Simulation CPU 0 panic: IPC 0.0001078 < 0.01
Simulation CPU 0 panic: IPC 0.0001729 < 0.01
Simulation CPU 0 panic: IPC 0.0002951 < 0.01
Simulation CPU 0 panic: IPC 4.1e-05 < 0.01
Simulation CPU 0 panic: IPC 9.01e-05 < 0.01
Simulation CPU 0 panic: IPC 4.96e-05 < 0.01
Simulation CPU 0 panic: IPC 5.58e-05 < 0.01
Simulation CPU 0 panic: IPC 0.0003167 < 0.01
Simulation CPU 0 panic: IPC 0.0002774 < 0.01
Simulation CPU 0 panic: IPC 0.0003125 < 0.01
Simulation CPU 0 panic: IPC 8.24e-05 < 0.01
Simulation CPU 0 panic: IPC 0.0001991 < 0.01
Simulation CPU 0 panic: IPC 0.0005268 < 0.01
Simulation CPU 0 panic: IPC 0.0003604 < 0.01
Simulation CPU 0 panic: IPC 1.56e-05 < 0.01
Simulation CPU 0 panic: IPC 0.0001762 < 0.01
Simulation CPU 0 panic: IPC 0.0002859 < 0.01
Simulation CPU 0 panic: IPC 0.0010916 < 0.01
Simulation CPU 0 panic: IPC 0.001065 < 0.01
Simulation CPU 0 panic: IPC 1.8e-06 < 0.01
Simulation CPU 0 panic: IPC 0.0011213 < 0.01
Simulation CPU 0 panic: IPC 0.0002427 < 0.01
Simulation CPU 0 panic: IPC 0.000844 < 0.01
Simulation CPU 0 panic: IPC 0.0001096 < 0.01
Simulation CPU 0 panic: IPC 0.000311 < 0.01
Simulation CPU 0 panic: IPC 9.13e-05 < 0.01
Simulation CPU 0 panic: IPC 0.0005972 < 0.01
Simulation CPU 0 panic: IPC 8.07e-05 < 0.01
Simulation CPU 0 panic: IPC 0.0003685 < 0.01
Simulation CPU 0 panic: IPC 0.0001653 < 0.01
Simulation CPU 0 panic: IPC 0.0008265 < 0.01
Simulation CPU 0 panic: IPC 0.001385 < 0.01
Simulation CPU 0 panic: IPC 8.43e-05 < 0.01
Simulation CPU 0 panic: IPC 0.0012837 < 0.01
Simulation CPU 0 panic: IPC 0.001835 < 0.01
Simulation CPU 0 panic: IPC 0.001022 < 0.01
Simulation CPU 0 panic: IPC 7.88e-05 < 0.01
Simulation CPU 0 panic: IPC 0.0008157 < 0.01
Simulation CPU 0 panic: IPC 9.55e-05 < 0.01
Simulation CPU 0 panic: IPC 0.0011197 < 0.01
Heartbeat CPU 0 instructions: 30000002 cycles: 10500199661 heartbeat IPC: 0.002192 cumulative IPC: 0.002857 (Simulation time: 15 hr 02 min 12 sec)
Heartbeat CPU 0 instructions: 40000005 cycles: 10510355433 heartbeat IPC: 0.9847 cumulative IPC: 0.003806 (Simulation time: 15 hr 03 min 28 sec)
Simulation CPU 0 panic: IPC 1.09e-05 < 0.01
Simulation CPU 0 panic: IPC 0.0002232 < 0.01
Simulation CPU 0 panic: IPC 0.0006822 < 0.01
Simulation CPU 0 panic: IPC 0.000802 < 0.01
Simulation CPU 0 panic: IPC 0.0015221 < 0.01
[ERROR_CYCLE] Error added at CPU cycle 10579860225, interval 15, pending count: 1
Simulation CPU 0 panic: IPC 0.000329 < 0.01
[DRAM_CYCLE_ERROR] Cycle-based error applied! address=0x878cd960 additional_latency=2459910500 cycles
Simulation CPU 0 panic: IPC 0 < 0.01
Simulation CPU 0 panic: IPC 0.0006917 < 0.01
Simulation CPU 0 panic: IPC 0.0043945 < 0.01
Simulation CPU 0 panic: IPC 0.0001536 < 0.01
Simulation CPU 0 panic: IPC 0.0001136 < 0.01
Simulation CPU 0 panic: IPC 0.001236 < 0.01
Simulation CPU 0 panic: IPC 0.0011719 < 0.01
Simulation CPU 0 panic: IPC 0.0008616 < 0.01
Simulation CPU 0 panic: IPC 0.0004781 < 0.01
Simulation CPU 0 panic: IPC 0.0003362 < 0.01
Simulation CPU 0 panic: IPC 0.0018759 < 0.01
Simulation CPU 0 panic: IPC 0.003327 < 0.01
Simulation CPU 0 panic: IPC 0.0007901 < 0.01
Simulation CPU 0 panic: IPC 0.0034794 < 0.01
Simulation CPU 0 panic: IPC 0.0004507 < 0.01
Simulation CPU 0 panic: IPC 0.0039655 < 0.01
Simulation CPU 0 panic: IPC 0.0001885 < 0.01
Simulation CPU 0 panic: IPC 0.0010644 < 0.01
Simulation CPU 0 panic: IPC 0.0027768 < 0.01
Simulation CPU 0 panic: IPC 0.0009948 < 0.01
Simulation CPU 0 panic: IPC 0.0002379 < 0.01
Simulation CPU 0 panic: IPC 0.0038665 < 0.01
Simulation CPU 0 panic: IPC 8.26e-05 < 0.01
Simulation CPU 0 panic: IPC 0.004253 < 0.01
Simulation CPU 0 panic: IPC 0.0060014 < 0.01
Simulation CPU 0 panic: IPC 0.0023399 < 0.01
Simulation CPU 0 panic: IPC 0.003127 < 0.01
Simulation CPU 0 panic: IPC 0.003356 < 0.01
Simulation CPU 0 panic: IPC 0.000954 < 0.01
Simulation CPU 0 panic: IPC 0.0009652 < 0.01
Simulation CPU 0 panic: IPC 0.0014659 < 0.01
Simulation CPU 0 panic: IPC 0.0016552 < 0.01
Simulation CPU 0 panic: IPC 0.0012115 < 0.01
Simulation CPU 0 panic: IPC 0.0019959 < 0.01
Simulation CPU 0 panic: IPC 0.0013098 < 0.01
Simulation CPU 0 panic: IPC 0.0041551 < 0.01
Simulation CPU 0 panic: IPC 0.0025454 < 0.01
Simulation CPU 0 panic: IPC 0.0017551 < 0.01
Simulation CPU 0 critical: IPC 0.011931 < 0.02
Simulation CPU 0 panic: IPC 0.0011536 < 0.01
Simulation CPU 0 panic: IPC 0.0005779 < 0.01
Simulation CPU 0 panic: IPC 0.002196 < 0.01
Simulation CPU 0 panic: IPC 0.0001616 < 0.01
Simulation CPU 0 panic: IPC 0.0058939 < 0.01
Simulation CPU 0 panic: IPC 0.0009893 < 0.01
Simulation CPU 0 panic: IPC 0.0005063 < 0.01
Simulation CPU 0 panic: IPC 0.005345 < 0.01
Simulation CPU 0 panic: IPC 0.0016333 < 0.01
Simulation CPU 0 panic: IPC 0.0038256 < 0.01
Simulation CPU 0 panic: IPC 0.0008069 < 0.01
Simulation CPU 0 panic: IPC 0.0005036 < 0.01
Simulation CPU 0 panic: IPC 0.000706 < 0.01
Simulation CPU 0 panic: IPC 0.0058625 < 0.01
Simulation CPU 0 panic: IPC 0.0007261 < 0.01
Simulation CPU 0 panic: IPC 0.004217 < 0.01
Simulation CPU 0 panic: IPC 0.0032196 < 0.01
Simulation CPU 0 panic: IPC 0.0003735 < 0.01
Simulation CPU 0 panic: IPC 0.0014995 < 0.01
Simulation CPU 0 panic: IPC 0.0018213 < 0.01
Simulation CPU 0 panic: IPC 0.0002664 < 0.01
Simulation CPU 0 panic: IPC 0.0019407 < 0.01
Simulation CPU 0 panic: IPC 0.0026608 < 0.01
Simulation CPU 0 panic: IPC 0.0018177 < 0.01
Simulation CPU 0 panic: IPC 0.0039653 < 0.01
Simulation CPU 0 panic: IPC 0.0035213 < 0.01
Simulation CPU 0 panic: IPC 0.0009275 < 0.01
Simulation CPU 0 panic: IPC 0.0025717 < 0.01
Simulation CPU 0 panic: IPC 0.0044305 < 0.01
Simulation CPU 0 panic: IPC 0.0004441 < 0.01
Simulation CPU 0 panic: IPC 0.0001163 < 0.01
[ERROR_CYCLE] Error added at CPU cycle 11285184240, interval 16, pending count: 1
[DRAM_CYCLE_ERROR] Cycle-based error applied! address=0x7eaa683a0 additional_latency=2459910500 cycles
Simulation CPU 0 panic: IPC 0 < 0.01
Simulation CPU 0 panic: IPC 0.0047938 < 0.01
Simulation CPU 0 panic: IPC 0.0033325 < 0.01
Simulation CPU 0 panic: IPC 0.0013515 < 0.01
Simulation CPU 0 panic: IPC 0.0043376 < 0.01
Simulation CPU 0 panic: IPC 0.0024248 < 0.01
Simulation CPU 0 panic: IPC 0.0055995 < 0.01
Simulation CPU 0 panic: IPC 0.0002012 < 0.01
Simulation CPU 0 panic: IPC 0.0060398 < 0.01
Simulation CPU 0 panic: IPC 0.0002445 < 0.01
Simulation CPU 0 panic: IPC 0.0001638 < 0.01
Simulation CPU 0 panic: IPC 0.0013849 < 0.01
Simulation CPU 0 panic: IPC 0.0015885 < 0.01
Simulation CPU 0 panic: IPC 0.0058898 < 0.01
Simulation CPU 0 panic: IPC 0.0018609 < 0.01
Simulation CPU 0 panic: IPC 0.0039194 < 0.01
Simulation CPU 0 panic: IPC 0.000682 < 0.01
Simulation CPU 0 panic: IPC 0.0010527 < 0.01
Simulation CPU 0 panic: IPC 0.0037237 < 0.01
Simulation CPU 0 panic: IPC 0.0018712 < 0.01
Simulation CPU 0 panic: IPC 0.0001619 < 0.01
Simulation CPU 0 panic: IPC 0.0002635 < 0.01
Simulation CPU 0 panic: IPC 0.0027166 < 0.01
Simulation CPU 0 panic: IPC 0.0001772 < 0.01
Simulation CPU 0 panic: IPC 0.0011788 < 0.01
Simulation CPU 0 panic: IPC 0.0005796 < 0.01
Simulation CPU 0 panic: IPC 0.0001396 < 0.01
Simulation CPU 0 panic: IPC 0.0016226 < 0.01
Simulation CPU 0 panic: IPC 0.0020205 < 0.01
Simulation CPU 0 panic: IPC 0.0003671 < 0.01
Simulation CPU 0 panic: IPC 9.71e-05 < 0.01
Simulation CPU 0 panic: IPC 0.0049168 < 0.01
Simulation CPU 0 critical: IPC 0.011131 < 0.02
Simulation CPU 0 panic: IPC 0.0021724 < 0.01
Simulation CPU 0 panic: IPC 0.0020781 < 0.01
Simulation CPU 0 panic: IPC 0.0003764 < 0.01
Simulation CPU 0 panic: IPC 0.0047292 < 0.01
Simulation CPU 0 panic: IPC 0.000702 < 0.01
Simulation CPU 0 panic: IPC 0.0047868 < 0.01
Simulation CPU 0 panic: IPC 0.0002701 < 0.01
Simulation CPU 0 panic: IPC 0.0031274 < 0.01
Simulation CPU 0 panic: IPC 0.0038167 < 0.01
Simulation CPU 0 panic: IPC 5.04e-05 < 0.01
Simulation CPU 0 panic: IPC 0.0037798 < 0.01
Simulation CPU 0 panic: IPC 0.0050807 < 0.01
Simulation CPU 0 panic: IPC 0.0030732 < 0.01
Simulation CPU 0 panic: IPC 0.0003776 < 0.01
Simulation CPU 0 panic: IPC 0.0033511 < 0.01
Simulation CPU 0 panic: IPC 0.0086842 < 0.01
Simulation CPU 0 panic: IPC 0.0008329 < 0.01
Simulation CPU 0 panic: IPC 0.0063675 < 0.01
Simulation CPU 0 panic: IPC 0.0010047 < 0.01
Simulation CPU 0 panic: IPC 0.0008566 < 0.01
Simulation CPU 0 panic: IPC 0.0005742 < 0.01
Simulation CPU 0 panic: IPC 0.0014445 < 0.01
Simulation CPU 0 panic: IPC 0.0036811 < 0.01
Simulation CPU 0 panic: IPC 0.0017474 < 0.01
Simulation CPU 0 panic: IPC 0.0032243 < 0.01
Simulation CPU 0 panic: IPC 0.005999 < 0.01
Simulation CPU 0 panic: IPC 0.0007005 < 0.01
Simulation CPU 0 panic: IPC 0.0017838 < 0.01
Simulation CPU 0 panic: IPC 0.0018997 < 0.01
Simulation CPU 0 panic: IPC 0.0017735 < 0.01
Simulation CPU 0 panic: IPC 0.001565 < 0.01
Simulation CPU 0 panic: IPC 0.002997 < 0.01
Simulation CPU 0 panic: IPC 0.0002374 < 0.01
Simulation CPU 0 panic: IPC 0.0023981 < 0.01
Simulation CPU 0 panic: IPC 0.0010499 < 0.01
Simulation CPU 0 panic: IPC 0.0026072 < 0.01
Simulation CPU 0 panic: IPC 0.0029651 < 0.01
Simulation CPU 0 panic: IPC 0.0005511 < 0.01
[ERROR_CYCLE] Error added at CPU cycle 11990508255, interval 17, pending count: 1
[DRAM_CYCLE_ERROR] Cycle-based error applied! address=0x2f7a63d50 additional_latency=2459910500 cycles
Simulation CPU 0 panic: IPC 0 < 0.01
Simulation CPU 0 panic: IPC 0.0061565 < 0.01
Simulation CPU 0 panic: IPC 0.0008642 < 0.01
Simulation CPU 0 panic: IPC 0.0021942 < 0.01
Simulation CPU 0 panic: IPC 1.18e-05 < 0.01
Simulation CPU 0 panic: IPC 0.0005595 < 0.01
Simulation CPU 0 panic: IPC 0.0007938 < 0.01
Simulation CPU 0 panic: IPC 0.0009042 < 0.01
Simulation CPU 0 panic: IPC 0.0005772 < 0.01
Simulation CPU 0 panic: IPC 0.0006617 < 0.01
Simulation CPU 0 panic: IPC 0.0056233 < 0.01
Simulation CPU 0 panic: IPC 0.0024556 < 0.01
Simulation CPU 0 panic: IPC 0.0022931 < 0.01
Simulation CPU 0 panic: IPC 0.0001617 < 0.01
Simulation CPU 0 panic: IPC 0.0016575 < 0.01
Simulation CPU 0 panic: IPC 0.0028725 < 0.01
Simulation CPU 0 panic: IPC 0.0017505 < 0.01
Simulation CPU 0 panic: IPC 0.0012968 < 0.01
Simulation CPU 0 panic: IPC 0.0006322 < 0.01
Simulation CPU 0 panic: IPC 0.0006884 < 0.01
Simulation CPU 0 panic: IPC 0.001009 < 0.01
Simulation CPU 0 panic: IPC 0.0038769 < 0.01
Simulation CPU 0 panic: IPC 0.0007594 < 0.01
Simulation CPU 0 panic: IPC 0.0019421 < 0.01
Simulation CPU 0 panic: IPC 0.0006368 < 0.01
Simulation CPU 0 panic: IPC 0.0012415 < 0.01
Simulation CPU 0 critical: IPC 0.011576 < 0.02
Simulation CPU 0 panic: IPC 2.92e-05 < 0.01
Simulation CPU 0 panic: IPC 0.00192 < 0.01
Simulation CPU 0 panic: IPC 0.0001657 < 0.01
Simulation CPU 0 panic: IPC 0.0012353 < 0.01
Simulation CPU 0 panic: IPC 0.0014887 < 0.01
Simulation CPU 0 panic: IPC 0.0036257 < 0.01
Simulation CPU 0 panic: IPC 0.0005362 < 0.01
Simulation CPU 0 panic: IPC 0.0007185 < 0.01
Simulation CPU 0 panic: IPC 0.0031278 < 0.01
Simulation CPU 0 panic: IPC 0.0001112 < 0.01
Simulation CPU 0 panic: IPC 0.0063878 < 0.01
Simulation CPU 0 panic: IPC 0.0020873 < 0.01
Simulation CPU 0 panic: IPC 0.0009473 < 0.01
Simulation CPU 0 panic: IPC 0.0050994 < 0.01
Simulation CPU 0 panic: IPC 0.0009493 < 0.01
Simulation CPU 0 panic: IPC 0.0005279 < 0.01
Simulation CPU 0 panic: IPC 0.0013248 < 0.01
Simulation CPU 0 panic: IPC 0.0021886 < 0.01
Simulation CPU 0 panic: IPC 0.0055791 < 0.01
Heartbeat CPU 0 instructions: 50000005 cycles: 12468322301 heartbeat IPC: 0.005107 cumulative IPC: 0.00401 (Simulation time: 17 hr 35 min 12 sec)
Heartbeat CPU 0 instructions: 60000005 cycles: 12483323312 heartbeat IPC: 0.6666 cumulative IPC: 0.004806 (Simulation time: 17 hr 36 min 26 sec)
Heartbeat CPU 0 instructions: 70000005 cycles: 12498960777 heartbeat IPC: 0.6395 cumulative IPC: 0.0056 (Simulation time: 17 hr 37 min 49 sec)
Heartbeat CPU 0 instructions: 80000007 cycles: 12508746496 heartbeat IPC: 1.022 cumulative IPC: 0.006396 (Simulation time: 17 hr 38 min 46 sec)
Heartbeat CPU 0 instructions: 90000007 cycles: 12519106490 heartbeat IPC: 0.9653 cumulative IPC: 0.007189 (Simulation time: 17 hr 39 min 59 sec)
Heartbeat CPU 0 instructions: 100000007 cycles: 12528371431 heartbeat IPC: 1.079 cumulative IPC: 0.007982 (Simulation time: 17 hr 41 min 02 sec)
Heartbeat CPU 0 instructions: 110000007 cycles: 12547982072 heartbeat IPC: 0.5099 cumulative IPC: 0.008766 (Simulation time: 17 hr 42 min 41 sec)
Heartbeat CPU 0 instructions: 120000009 cycles: 12561390038 heartbeat IPC: 0.7458 cumulative IPC: 0.009553 (Simulation time: 17 hr 43 min 51 sec)
Heartbeat CPU 0 instructions: 130000011 cycles: 12571966968 heartbeat IPC: 0.9455 cumulative IPC: 0.01034 (Simulation time: 17 hr 44 min 51 sec)
Simulation CPU 0 panic: IPC 0.001496 < 0.01
Simulation CPU 0 critical: IPC 0.017236 < 0.02
Simulation CPU 0 panic: IPC 0.0020877 < 0.01
Simulation CPU 0 panic: IPC 0.0002275 < 0.01
Simulation CPU 0 warning: IPC 0.03943 < 0.05
Simulation CPU 0 panic: IPC 0.0035797 < 0.01
Simulation CPU 0 panic: IPC 0.000357 < 0.01
Simulation CPU 0 panic: IPC 0.0001088 < 0.01
Simulation CPU 0 critical: IPC 0.016886 < 0.02
Simulation CPU 0 panic: IPC 0.0035105 < 0.01
Simulation CPU 0 panic: IPC 0.0028688 < 0.01
[ERROR_CYCLE] Error added at CPU cycle 12695832271, interval 18, pending count: 1
[DRAM_CYCLE_ERROR] Cycle-based error applied! address=0x2f7aa0c00 additional_latency=2459910500 cycles
Simulation CPU 0 panic: IPC 0.0045273 < 0.01
Simulation CPU 0 panic: IPC 0 < 0.01
Simulation CPU 0 panic: IPC 0.0014785 < 0.01
Simulation CPU 0 panic: IPC 0.0093019 < 0.01
Simulation CPU 0 critical: IPC 0.012603 < 0.02
Simulation CPU 0 panic: IPC 0.0019676 < 0.01
Simulation CPU 0 panic: IPC 0.0079056 < 0.01
Simulation CPU 0 panic: IPC 0.0038463 < 0.01
Simulation CPU 0 panic: IPC 0.007583 < 0.01
Simulation CPU 0 panic: IPC 0.0034548 < 0.01
Simulation CPU 0 panic: IPC 0.0087781 < 0.01
Simulation CPU 0 critical: IPC 0.014632 < 0.02
Simulation CPU 0 panic: IPC 0.0010875 < 0.01
Simulation CPU 0 panic: IPC 0.0010083 < 0.01
Simulation CPU 0 critical: IPC 0.015786 < 0.02
Simulation CPU 0 panic: IPC 0.0051403 < 0.01
Simulation CPU 0 critical: IPC 0.016832 < 0.02
Simulation CPU 0 panic: IPC 0.0064024 < 0.01
Heartbeat CPU 0 instructions: 140000012 cycles: 12875973009 heartbeat IPC: 0.03289 cumulative IPC: 0.01087 (Simulation time: 18 hr 08 min 50 sec)
Simulation CPU 0 warning: IPC 0.029312 < 0.05
Simulation CPU 0 panic: IPC 0.0027006 < 0.01
Simulation CPU 0 panic: IPC 0.0091198 < 0.01
Simulation CPU 0 panic: IPC 0.0042005 < 0.01
Simulation CPU 0 panic: IPC 0.0039546 < 0.01
Simulation CPU 0 panic: IPC 0.0082611 < 0.01
Simulation CPU 0 panic: IPC 0.0066303 < 0.01
Simulation CPU 0 panic: IPC 0.0023496 < 0.01
Simulation CPU 0 panic: IPC 0.0063523 < 0.01
Simulation CPU 0 panic: IPC 0.0023258 < 0.01
Simulation CPU 0 panic: IPC 0.0068166 < 0.01
Simulation CPU 0 warning: IPC 0.02462 < 0.05
Simulation CPU 0 critical: IPC 0.017064 < 0.02
Simulation CPU 0 panic: IPC 0.0071573 < 0.01
Simulation CPU 0 warning: IPC 0.038399 < 0.05
Simulation CPU 0 panic: IPC 0.0009689 < 0.01
Simulation CPU 0 panic: IPC 0.0029348 < 0.01
Simulation CPU 0 critical: IPC 0.01162 < 0.02
Simulation CPU 0 critical: IPC 0.011349 < 0.02
Simulation CPU 0 panic: IPC 0.0039513 < 0.01
Simulation CPU 0 panic: IPC 0.009105 < 0.01
Simulation CPU 0 panic: IPC 0.0089175 < 0.01
Simulation CPU 0 panic: IPC 0.0090605 < 0.01
Simulation CPU 0 critical: IPC 0.013525 < 0.02
Simulation CPU 0 critical: IPC 0.014336 < 0.02
Simulation CPU 0 panic: IPC 0.0063834 < 0.01
Simulation CPU 0 critical: IPC 0.013253 < 0.02
Simulation CPU 0 warning: IPC 0.04483 < 0.05
Heartbeat CPU 0 instructions: 150000014 cycles: 13160213075 heartbeat IPC: 0.03518 cumulative IPC: 0.0114 (Simulation time: 18 hr 32 min 10 sec)
Heartbeat CPU 0 instructions: 160000017 cycles: 13171153494 heartbeat IPC: 0.914 cumulative IPC: 0.01215 (Simulation time: 18 hr 33 min 03 sec)
Heartbeat CPU 0 instructions: 170000020 cycles: 13179213876 heartbeat IPC: 1.241 cumulative IPC: 0.0129 (Simulation time: 18 hr 34 min 08 sec)
Heartbeat CPU 0 instructions: 180000022 cycles: 13207896851 heartbeat IPC: 0.3486 cumulative IPC: 0.01363 (Simulation time: 18 hr 37 min 06 sec)
Heartbeat CPU 0 instructions: 190000022 cycles: 13216372335 heartbeat IPC: 1.18 cumulative IPC: 0.01438 (Simulation time: 18 hr 38 min 12 sec)
Heartbeat CPU 0 instructions: 200000022 cycles: 13227593349 heartbeat IPC: 0.8912 cumulative IPC: 0.01512 (Simulation time: 18 hr 39 min 33 sec)
Heartbeat CPU 0 instructions: 210000023 cycles: 13244052320 heartbeat IPC: 0.6076 cumulative IPC: 0.01586 (Simulation time: 18 hr 41 min 24 sec)
Heartbeat CPU 0 instructions: 220000024 cycles: 13265878285 heartbeat IPC: 0.4582 cumulative IPC: 0.01658 (Simulation time: 18 hr 43 min 45 sec)
Heartbeat CPU 0 instructions: 230000024 cycles: 13276289574 heartbeat IPC: 0.9605 cumulative IPC: 0.01732 (Simulation time: 18 hr 45 min 01 sec)
Heartbeat CPU 0 instructions: 240000028 cycles: 13287816776 heartbeat IPC: 0.8675 cumulative IPC: 0.01806 (Simulation time: 18 hr 46 min 26 sec)
Heartbeat CPU 0 instructions: 250000028 cycles: 13296385533 heartbeat IPC: 1.167 cumulative IPC: 0.0188 (Simulation time: 18 hr 47 min 33 sec)
Simulation CPU 0 panic: IPC 5.8e-06 < 0.01
Simulation CPU 0 panic: IPC 5.3e-06 < 0.01
Simulation CPU 0 panic: IPC 1.2e-06 < 0.01
Simulation CPU 0 warning: IPC 0.036063 < 0.05
Simulation CPU 0 warning: IPC 0.031296 < 0.05
Simulation CPU 0 warning: IPC 0.029247 < 0.05
[ERROR_CYCLE] Error added at CPU cycle 13401156286, interval 19, pending count: 1
[DRAM_CYCLE_ERROR] Cycle-based error applied! address=0x6d30236b8 additional_latency=2459910500 cycles
Simulation CPU 0 panic: IPC 0 < 0.01
Simulation CPU 0 warning: IPC 0.034375 < 0.05
Simulation CPU 0 warning: IPC 0.022789 < 0.05
Simulation CPU 0 critical: IPC 0.019893 < 0.02
Simulation CPU 0 warning: IPC 0.025095 < 0.05
Heartbeat CPU 0 instructions: 260000028 cycles: 13474944493 heartbeat IPC: 0.056 cumulative IPC: 0.0193 (Simulation time: 19 hr 03 min 27 sec)
Simulation CPU 0 panic: IPC 0.0084805 < 0.01
Simulation CPU 0 warning: IPC 0.024518 < 0.05
Simulation CPU 0 warning: IPC 0.029414 < 0.05
Simulation CPU 0 warning: IPC 0.028116 < 0.05
Heartbeat CPU 0 instructions: 270000028 cycles: 13588642534 heartbeat IPC: 0.08795 cumulative IPC: 0.01987 (Simulation time: 19 hr 13 min 32 sec)
Heartbeat CPU 0 instructions: 280000028 cycles: 13605506595 heartbeat IPC: 0.593 cumulative IPC: 0.02058 (Simulation time: 19 hr 15 min 25 sec)
Heartbeat CPU 0 instructions: 290000029 cycles: 13622269573 heartbeat IPC: 0.5966 cumulative IPC: 0.02129 (Simulation time: 19 hr 17 min 16 sec)
Heartbeat CPU 0 instructions: 300000029 cycles: 13640340646 heartbeat IPC: 0.5534 cumulative IPC: 0.02199 (Simulation time: 19 hr 19 min 14 sec)
Heartbeat CPU 0 instructions: 310000030 cycles: 13651087970 heartbeat IPC: 0.9305 cumulative IPC: 0.02271 (Simulation time: 19 hr 20 min 17 sec)
Heartbeat CPU 0 instructions: 320000030 cycles: 13661725992 heartbeat IPC: 0.94 cumulative IPC: 0.02342 (Simulation time: 19 hr 21 min 06 sec)
Heartbeat CPU 0 instructions: 330000032 cycles: 13684379417 heartbeat IPC: 0.4414 cumulative IPC: 0.02412 (Simulation time: 19 hr 22 min 56 sec)
Heartbeat CPU 0 instructions: 340000032 cycles: 13695028449 heartbeat IPC: 0.9391 cumulative IPC: 0.02483 (Simulation time: 19 hr 24 min 14 sec)
Heartbeat CPU 0 instructions: 350000032 cycles: 13703129580 heartbeat IPC: 1.234 cumulative IPC: 0.02554 (Simulation time: 19 hr 25 min 18 sec)
Heartbeat CPU 0 instructions: 360000032 cycles: 13723539106 heartbeat IPC: 0.49 cumulative IPC: 0.02623 (Simulation time: 19 hr 27 min 23 sec)
Heartbeat CPU 0 instructions: 370000034 cycles: 13735820437 heartbeat IPC: 0.8142 cumulative IPC: 0.02694 (Simulation time: 19 hr 28 min 36 sec)
Heartbeat CPU 0 instructions: 380000034 cycles: 13745179854 heartbeat IPC: 1.068 cumulative IPC: 0.02765 (Simulation time: 19 hr 29 min 46 sec)
Heartbeat CPU 0 instructions: 390000037 cycles: 13769771908 heartbeat IPC: 0.4066 cumulative IPC: 0.02832 (Simulation time: 19 hr 32 min 04 sec)
Heartbeat CPU 0 instructions: 400000039 cycles: 13793744118 heartbeat IPC: 0.4171 cumulative IPC: 0.029 (Simulation time: 19 hr 33 min 50 sec)
Heartbeat CPU 0 instructions: 410000039 cycles: 13804243949 heartbeat IPC: 0.9524 cumulative IPC: 0.0297 (Simulation time: 19 hr 34 min 49 sec)
Heartbeat CPU 0 instructions: 420000040 cycles: 13813101370 heartbeat IPC: 1.129 cumulative IPC: 0.03041 (Simulation time: 19 hr 35 min 48 sec)
Heartbeat CPU 0 instructions: 430000041 cycles: 13826572547 heartbeat IPC: 0.7423 cumulative IPC: 0.0311 (Simulation time: 19 hr 36 min 56 sec)
Heartbeat CPU 0 instructions: 440000041 cycles: 13858243197 heartbeat IPC: 0.3157 cumulative IPC: 0.03175 (Simulation time: 19 hr 40 min 10 sec)
Heartbeat CPU 0 instructions: 450000044 cycles: 13866672158 heartbeat IPC: 1.186 cumulative IPC: 0.03245 (Simulation time: 19 hr 41 min 16 sec)
Heartbeat CPU 0 instructions: 460000044 cycles: 13880028807 heartbeat IPC: 0.7487 cumulative IPC: 0.03314 (Simulation time: 19 hr 42 min 24 sec)
Heartbeat CPU 0 instructions: 470000044 cycles: 13888871588 heartbeat IPC: 1.131 cumulative IPC: 0.03384 (Simulation time: 19 hr 43 min 13 sec)
Heartbeat CPU 0 instructions: 480000045 cycles: 13898691787 heartbeat IPC: 1.018 cumulative IPC: 0.03454 (Simulation time: 19 hr 44 min 27 sec)
Heartbeat CPU 0 instructions: 490000046 cycles: 13923857938 heartbeat IPC: 0.3974 cumulative IPC: 0.03519 (Simulation time: 19 hr 47 min 06 sec)
Heartbeat CPU 0 instructions: 500000046 cycles: 13933861340 heartbeat IPC: 0.9997 cumulative IPC: 0.03588 (Simulation time: 19 hr 48 min 21 sec)
Heartbeat CPU 0 instructions: 510000047 cycles: 13945079198 heartbeat IPC: 0.8914 cumulative IPC: 0.03657 (Simulation time: 19 hr 49 min 43 sec)
Heartbeat CPU 0 instructions: 520000048 cycles: 13953625973 heartbeat IPC: 1.17 cumulative IPC: 0.03727 (Simulation time: 19 hr 50 min 31 sec)
Heartbeat CPU 0 instructions: 530000052 cycles: 13963859678 heartbeat IPC: 0.9772 cumulative IPC: 0.03796 (Simulation time: 19 hr 51 min 47 sec)
Simulation CPU 0 panic: IPC 1.3e-06 < 0.01
Simulation CPU 0 panic: IPC 3.8e-06 < 0.01
Simulation CPU 0 panic: IPC 1.3e-06 < 0.01
Simulation CPU 0 panic: IPC 4.1e-06 < 0.01
Simulation CPU 0 panic: IPC 1.2e-06 < 0.01
Simulation CPU 0 warning: IPC 0.034925 < 0.05
Simulation CPU 0 critical: IPC 0.016405 < 0.02
Simulation CPU 0 warning: IPC 0.02656 < 0.05
Simulation CPU 0 panic: IPC 0.0018624 < 0.01
Simulation CPU 0 critical: IPC 0.014784 < 0.02
Simulation CPU 0 warning: IPC 0.044701 < 0.05
Simulation CPU 0 warning: IPC 0.032263 < 0.05
[ERROR_CYCLE] Error added at CPU cycle 14106480301, interval 20, pending count: 1
[DRAM_CYCLE_ERROR] Cycle-based error applied! address=0x475059a10 additional_latency=2459910500 cycles
Simulation CPU 0 panic: IPC 0 < 0.01
Simulation CPU 0 critical: IPC 0.011918 < 0.02
Simulation CPU 0 warning: IPC 0.0241 < 0.05
Simulation CPU 0 warning: IPC 0.023157 < 0.05
Simulation CPU 0 panic: IPC 5.81e-05 < 0.01
Simulation CPU 0 warning: IPC 0.027268 < 0.05
Simulation CPU 0 critical: IPC 0.010337 < 0.02
Simulation CPU 0 warning: IPC 0.040249 < 0.05
Simulation CPU 0 critical: IPC 0.014793 < 0.02
Simulation CPU 0 critical: IPC 0.011298 < 0.02
Simulation CPU 0 warning: IPC 0.035708 < 0.05
Simulation CPU 0 critical: IPC 0.013475 < 0.02
Heartbeat CPU 0 instructions: 540000053 cycles: 14254773723 heartbeat IPC: 0.03437 cumulative IPC: 0.03788 (Simulation time: 20 hr 15 min 37 sec)
Simulation CPU 0 warning: IPC 0.034467 < 0.05
Simulation CPU 0 panic: IPC 0.0069732 < 0.01
Simulation CPU 0 warning: IPC 0.021373 < 0.05
Simulation CPU 0 warning: IPC 0.047834 < 0.05
Simulation CPU 0 warning: IPC 0.021399 < 0.05
Simulation CPU 0 warning: IPC 0.02665 < 0.05
Simulation CPU 0 critical: IPC 0.010094 < 0.02
Simulation CPU 0 critical: IPC 0.01427 < 0.02
Simulation CPU 0 panic: IPC 0.003213 < 0.01
Simulation CPU 0 critical: IPC 0.014776 < 0.02
Simulation CPU 0 warning: IPC 0.042481 < 0.05
Simulation CPU 0 warning: IPC 0.024948 < 0.05
Simulation CPU 0 warning: IPC 0.044979 < 0.05
Simulation CPU 0 panic: IPC 0.0093349 < 0.01
Simulation CPU 0 warning: IPC 0.030843 < 0.05
Simulation CPU 0 warning: IPC 0.026509 < 0.05
Simulation CPU 0 warning: IPC 0.043065 < 0.05
Simulation CPU 0 critical: IPC 0.019365 < 0.02
Simulation CPU 0 warning: IPC 0.021979 < 0.05
Simulation CPU 0 warning: IPC 0.022716 < 0.05
Simulation CPU 0 panic: IPC 0.0002928 < 0.01
Simulation CPU 0 critical: IPC 0.019849 < 0.02
Simulation CPU 0 warning: IPC 0.04462 < 0.05
Simulation CPU 0 critical: IPC 0.010106 < 0.02
Simulation CPU 0 critical: IPC 0.018078 < 0.02
Simulation CPU 0 critical: IPC 0.018059 < 0.02
Heartbeat CPU 0 instructions: 550000054 cycles: 14569937291 heartbeat IPC: 0.03173 cumulative IPC: 0.03775 (Simulation time: 20 hr 43 min 49 sec)
Simulation CPU 0 warning: IPC 0.023829 < 0.05
Simulation CPU 0 critical: IPC 0.011547 < 0.02
Simulation CPU 0 warning: IPC 0.025485 < 0.05
Simulation CPU 0 warning: IPC 0.029828 < 0.05
Simulation CPU 0 panic: IPC 0.0091262 < 0.01
Simulation CPU 0 warning: IPC 0.040667 < 0.05
Simulation CPU 0 warning: IPC 0.028302 < 0.05
Simulation CPU 0 critical: IPC 0.012512 < 0.02
Simulation CPU 0 warning: IPC 0.035295 < 0.05
Simulation CPU 0 warning: IPC 0.022293 < 0.05
Simulation CPU 0 critical: IPC 0.01811 < 0.02
Simulation CPU 0 critical: IPC 0.017692 < 0.02
Simulation CPU 0 critical: IPC 0.018447 < 0.02
Simulation CPU 0 warning: IPC 0.031082 < 0.05
Simulation CPU 0 critical: IPC 0.014411 < 0.02
Simulation CPU 0 warning: IPC 0.021798 < 0.05
Simulation CPU 0 critical: IPC 0.010878 < 0.02
Simulation CPU 0 warning: IPC 0.024586 < 0.05
Simulation CPU 0 critical: IPC 0.017296 < 0.02
Simulation CPU 0 warning: IPC 0.026737 < 0.05
[ERROR_CYCLE] Error added at CPU cycle 14811804315, interval 21, pending count: 1
[DRAM_CYCLE_ERROR] Cycle-based error applied! address=0x69ef4ec8 additional_latency=2459910500 cycles
Simulation CPU 0 panic: IPC 0 < 0.01
Simulation CPU 0 critical: IPC 0.019242 < 0.02
Simulation CPU 0 critical: IPC 0.016679 < 0.02
Simulation CPU 0 warning: IPC 0.035373 < 0.05
Simulation CPU 0 panic: IPC 0.0001573 < 0.01
Simulation CPU 0 critical: IPC 0.019235 < 0.02
Heartbeat CPU 0 instructions: 560000054 cycles: 14890313043 heartbeat IPC: 0.03121 cumulative IPC: 0.03761 (Simulation time: 21 hr 12 min 18 sec)
Simulation CPU 0 warning: IPC 0.033308 < 0.05
Simulation CPU 0 warning: IPC 0.025707 < 0.05
Simulation CPU 0 critical: IPC 0.015364 < 0.02
Simulation CPU 0 warning: IPC 0.036629 < 0.05
Simulation CPU 0 critical: IPC 0.011111 < 0.02
Simulation CPU 0 warning: IPC 0.036228 < 0.05
Simulation CPU 0 critical: IPC 0.019151 < 0.02
Simulation CPU 0 warning: IPC 0.025123 < 0.05
Simulation CPU 0 critical: IPC 0.01066 < 0.02
Simulation CPU 0 critical: IPC 0.010524 < 0.02
Simulation CPU 0 panic: IPC 0.0078878 < 0.01
Simulation CPU 0 warning: IPC 0.026456 < 0.05
Simulation CPU 0 critical: IPC 0.018831 < 0.02
Simulation CPU 0 warning: IPC 0.033282 < 0.05
Simulation CPU 0 warning: IPC 0.030388 < 0.05
Simulation CPU 0 critical: IPC 0.018478 < 0.02
Simulation CPU 0 warning: IPC 0.025588 < 0.05
Simulation CPU 0 warning: IPC 0.032795 < 0.05
Simulation CPU 0 warning: IPC 0.025989 < 0.05
Simulation CPU 0 panic: IPC 0.0023976 < 0.01
Simulation CPU 0 warning: IPC 0.03435 < 0.05
Simulation CPU 0 warning: IPC 0.033582 < 0.05
Heartbeat CPU 0 instructions: 570000057 cycles: 15164567297 heartbeat IPC: 0.03646 cumulative IPC: 0.03759 (Simulation time: 21 hr 33 min 44 sec)
Simulation CPU 0 warning: IPC 0.042097 < 0.05
Simulation CPU 0 warning: IPC 0.025862 < 0.05
Simulation CPU 0 warning: IPC 0.020957 < 0.05
Simulation CPU 0 critical: IPC 0.013287 < 0.02
Simulation CPU 0 critical: IPC 0.017247 < 0.02
Simulation CPU 0 critical: IPC 0.017095 < 0.02
Simulation CPU 0 critical: IPC 0.01748 < 0.02
Simulation CPU 0 critical: IPC 0.018102 < 0.02
Simulation CPU 0 warning: IPC 0.044109 < 0.05
Simulation CPU 0 warning: IPC 0.044658 < 0.05
Simulation CPU 0 warning: IPC 0.026924 < 0.05
Simulation CPU 0 warning: IPC 0.031409 < 0.05
Simulation CPU 0 critical: IPC 0.018697 < 0.02
Simulation CPU 0 warning: IPC 0.036352 < 0.05
Simulation CPU 0 warning: IPC 0.024331 < 0.05
Simulation CPU 0 warning: IPC 0.032509 < 0.05
Simulation CPU 0 critical: IPC 0.012886 < 0.02
Simulation CPU 0 warning: IPC 0.020668 < 0.05
Heartbeat CPU 0 instructions: 580000060 cycles: 15410292807 heartbeat IPC: 0.0407 cumulative IPC: 0.03764 (Simulation time: 21 hr 54 min 21 sec)
Simulation CPU 0 warning: IPC 0.020856 < 0.05
Simulation CPU 0 warning: IPC 0.029352 < 0.05
Simulation CPU 0 critical: IPC 0.015188 < 0.02
Simulation CPU 0 critical: IPC 0.016003 < 0.02
Simulation CPU 0 warning: IPC 0.041837 < 0.05
Simulation CPU 0 critical: IPC 0.01024 < 0.02
Simulation CPU 0 warning: IPC 0.026817 < 0.05
Simulation CPU 0 warning: IPC 0.040834 < 0.05
[ERROR_CYCLE] Error added at CPU cycle 15517128330, interval 22, pending count: 1
[DRAM_CYCLE_ERROR] Cycle-based error applied! address=0x144da37c0 additional_latency=2459910500 cycles
Simulation CPU 0 critical: IPC 0.011358 < 0.02
Simulation CPU 0 warning: IPC 0.045136 < 0.05
Simulation CPU 0 critical: IPC 0.017973 < 0.02
Simulation CPU 0 critical: IPC 0.016929 < 0.02
Simulation CPU 0 warning: IPC 0.029282 < 0.05
Simulation CPU 0 panic: IPC 0.002456 < 0.01
Simulation CPU 0 warning: IPC 0.029386 < 0.05
Simulation CPU 0 critical: IPC 0.013559 < 0.02
Simulation CPU 0 warning: IPC 0.035856 < 0.05
Simulation CPU 0 panic: IPC 0.007594 < 0.01
Simulation CPU 0 warning: IPC 0.040105 < 0.05
Heartbeat CPU 0 instructions: 590000060 cycles: 15675161431 heartbeat IPC: 0.03775 cumulative IPC: 0.03764 (Simulation time: 22 hr 16 min 18 sec)
Simulation CPU 0 panic: IPC 0.0041199 < 0.01
Simulation CPU 0 warning: IPC 0.027465 < 0.05
Simulation CPU 0 warning: IPC 0.04616 < 0.05
Simulation CPU 0 warning: IPC 0.024143 < 0.05
Simulation CPU 0 warning: IPC 0.033369 < 0.05
Simulation CPU 0 warning: IPC 0.047584 < 0.05
Simulation CPU 0 panic: IPC 0.0012692 < 0.01
Simulation CPU 0 warning: IPC 0.032894 < 0.05
Simulation CPU 0 critical: IPC 0.015624 < 0.02
Simulation CPU 0 warning: IPC 0.023652 < 0.05
Simulation CPU 0 warning: IPC 0.024486 < 0.05
Simulation CPU 0 critical: IPC 0.019231 < 0.02
Simulation CPU 0 warning: IPC 0.029572 < 0.05
Simulation CPU 0 warning: IPC 0.039243 < 0.05
Simulation CPU 0 critical: IPC 0.010804 < 0.02
Simulation CPU 0 warning: IPC 0.032597 < 0.05
Simulation CPU 0 warning: IPC 0.048486 < 0.05
Simulation CPU 0 panic: IPC 3.64e-05 < 0.01
Simulation CPU 0 critical: IPC 0.011096 < 0.02
Simulation CPU 0 warning: IPC 0.047398 < 0.05
Simulation CPU 0 warning: IPC 0.048365 < 0.05
Heartbeat CPU 0 instructions: 600000063 cycles: 15948562333 heartbeat IPC: 0.03658 cumulative IPC: 0.03762 (Simulation time: 22 hr 39 min 20 sec)
Simulation CPU 0 warning: IPC 0.036547 < 0.05
Simulation CPU 0 critical: IPC 0.018621 < 0.02
Simulation CPU 0 warning: IPC 0.025962 < 0.05
Simulation CPU 0 critical: IPC 0.015344 < 0.02
Simulation CPU 0 critical: IPC 0.013905 < 0.02
Simulation CPU 0 warning: IPC 0.043475 < 0.05
Simulation CPU 0 critical: IPC 0.017458 < 0.02
Simulation CPU 0 panic: IPC 0.0069889 < 0.01
Simulation CPU 0 warning: IPC 0.04136 < 0.05
Simulation CPU 0 critical: IPC 0.011574 < 0.02
Simulation CPU 0 warning: IPC 0.023846 < 0.05
Simulation CPU 0 critical: IPC 0.016907 < 0.02
Simulation CPU 0 warning: IPC 0.031983 < 0.05
Simulation CPU 0 critical: IPC 0.014379 < 0.02
Simulation CPU 0 panic: IPC 0.0013234 < 0.01
Simulation CPU 0 warning: IPC 0.044046 < 0.05
Simulation CPU 0 critical: IPC 0.012736 < 0.02
Simulation CPU 0 warning: IPC 0.029138 < 0.05
Simulation CPU 0 panic: IPC 0.000718 < 0.01
Simulation CPU 0 warning: IPC 0.027769 < 0.05
Simulation CPU 0 critical: IPC 0.017723 < 0.02
Simulation CPU 0 warning: IPC 0.029219 < 0.05
[ERROR_CYCLE] Error added at CPU cycle 16222452345, interval 23, pending count: 1
[DRAM_CYCLE_ERROR] Cycle-based error applied! address=0xb4eb4008 additional_latency=2459910500 cycles
[...]
Heartbeat CPU 0 instructions: 1120000135 cycles: 17297744502 heartbeat IPC: 1.06 cumulative IPC: 0.06475 (Simulation time: 00 hr 54 min 47 sec)
Heartbeat CPU 0 instructions: 1130000136 cycles: 17305931617 heartbeat IPC: 1.221 cumulative IPC: 0.0653 (Simulation time: 00 hr 55 min 37 sec)
Heartbeat CPU 0 instructions: 1140000137 cycles: 17329200915 heartbeat IPC: 0.4298 cumulative IPC: 0.06578 (Simulation time: 00 hr 57 min 27 sec)
Heartbeat CPU 0 instructions: 1150000137 cycles: 17339434765 heartbeat IPC: 0.9771 cumulative IPC: 0.06632 (Simulation time: 00 hr 58 min 18 sec)
Heartbeat CPU 0 instructions: 1160000139 cycles: 17355945550 heartbeat IPC: 0.6057 cumulative IPC: 0.06684 (Simulation time: 00 hr 59 min 39 sec)
Heartbeat CPU 0 instructions: 1170000141 cycles: 17364391732 heartbeat IPC: 1.184 cumulative IPC: 0.06738 (Simulation time: 01 hr 00 min 23 sec)
Heartbeat CPU 0 instructions: 1180000142 cycles: 17374133924 heartbeat IPC: 1.026 cumulative IPC: 0.06792 (Simulation time: 01 hr 01 min 28 sec)
Heartbeat CPU 0 instructions: 1190000146 cycles: 17403085375 heartbeat IPC: 0.3454 cumulative IPC: 0.06838 (Simulation time: 01 hr 04 min 03 sec)
Heartbeat CPU 0 instructions: 1200000147 cycles: 17412771311 heartbeat IPC: 1.032 cumulative IPC: 0.06891 (Simulation time: 01 hr 05 min 13 sec)
Heartbeat CPU 0 instructions: 1210000151 cycles: 17427780537 heartbeat IPC: 0.6663 cumulative IPC: 0.06943 (Simulation time: 01 hr 06 min 58 sec)
Heartbeat CPU 0 instructions: 1220000151 cycles: 17441650308 heartbeat IPC: 0.721 cumulative IPC: 0.06995 (Simulation time: 01 hr 08 min 27 sec)
Heartbeat CPU 0 instructions: 1230000154 cycles: 17449599058 heartbeat IPC: 1.258 cumulative IPC: 0.07049 (Simulation time: 01 hr 09 min 08 sec)
Heartbeat CPU 0 instructions: 1240000154 cycles: 17459264173 heartbeat IPC: 1.035 cumulative IPC: 0.07102 (Simulation time: 01 hr 09 min 55 sec)
Heartbeat CPU 0 instructions: 1250000157 cycles: 17479993126 heartbeat IPC: 0.4824 cumulative IPC: 0.07151 (Simulation time: 01 hr 11 min 47 sec)
Heartbeat CPU 0 instructions: 1260000157 cycles: 17489105044 heartbeat IPC: 1.097 cumulative IPC: 0.07204 (Simulation time: 01 hr 12 min 56 sec)
Heartbeat CPU 0 instructions: 1270000157 cycles: 17501202326 heartbeat IPC: 0.8266 cumulative IPC: 0.07257 (Simulation time: 01 hr 14 min 25 sec)
Heartbeat CPU 0 instructions: 1280000159 cycles: 17519664165 heartbeat IPC: 0.5417 cumulative IPC: 0.07306 (Simulation time: 01 hr 16 min 24 sec)
Heartbeat CPU 0 instructions: 1290000163 cycles: 17551012173 heartbeat IPC: 0.319 cumulative IPC: 0.0735 (Simulation time: 01 hr 19 min 38 sec)
Heartbeat CPU 0 instructions: 1300000165 cycles: 17560096956 heartbeat IPC: 1.101 cumulative IPC: 0.07403 (Simulation time: 01 hr 20 min 25 sec)
Heartbeat CPU 0 instructions: 1310000166 cycles: 17569664904 heartbeat IPC: 1.045 cumulative IPC: 0.07456 (Simulation time: 01 hr 21 min 12 sec)
Heartbeat CPU 0 instructions: 1320000166 cycles: 17577876866 heartbeat IPC: 1.218 cumulative IPC: 0.07509 (Simulation time: 01 hr 22 min 12 sec)
Heartbeat CPU 0 instructions: 1330000167 cycles: 17598348082 heartbeat IPC: 0.4885 cumulative IPC: 0.07558 (Simulation time: 01 hr 24 min 05 sec)
[ERROR_CYCLE] Error added at CPU cycle 17633100376, interval 25, pending count: 1
[DRAM_CYCLE_ERROR] Cycle-based error applied! address=0x4c9434e18 additional_latency=2459910500 cycles
Heartbeat CPU 0 instructions: 1340000167 cycles: 17643725058 heartbeat IPC: 0.2204 cumulative IPC: 0.07595 (Simulation time: 01 hr 28 min 13 sec)
Heartbeat CPU 0 instructions: 1350000171 cycles: 17665307464 heartbeat IPC: 0.4633 cumulative IPC: 0.07642 (Simulation time: 01 hr 30 min 37 sec)
Heartbeat CPU 0 instructions: 1360000171 cycles: 17674596507 heartbeat IPC: 1.077 cumulative IPC: 0.07695 (Simulation time: 01 hr 31 min 47 sec)
Heartbeat CPU 0 instructions: 1370000175 cycles: 17689046227 heartbeat IPC: 0.6921 cumulative IPC: 0.07745 (Simulation time: 01 hr 33 min 28 sec)
Heartbeat CPU 0 instructions: 1380000177 cycles: 17699174494 heartbeat IPC: 0.9873 cumulative IPC: 0.07797 (Simulation time: 01 hr 34 min 44 sec)
Heartbeat CPU 0 instructions: 1390000181 cycles: 17707406709 heartbeat IPC: 1.215 cumulative IPC: 0.0785 (Simulation time: 01 hr 35 min 26 sec)
Heartbeat CPU 0 instructions: 1400000181 cycles: 17716907441 heartbeat IPC: 1.053 cumulative IPC: 0.07902 (Simulation time: 01 hr 36 min 22 sec)
Heartbeat CPU 0 instructions: 1410000183 cycles: 17732207739 heartbeat IPC: 0.6536 cumulative IPC: 0.07952 (Simulation time: 01 hr 37 min 42 sec)
Heartbeat CPU 0 instructions: 1420000187 cycles: 17741364213 heartbeat IPC: 1.092 cumulative IPC: 0.08004 (Simulation time: 01 hr 38 min 46 sec)
Heartbeat CPU 0 instructions: 1430000189 cycles: 17749915041 heartbeat IPC: 1.169 cumulative IPC: 0.08056 (Simulation time: 01 hr 39 min 36 sec)
Heartbeat CPU 0 instructions: 1440000192 cycles: 17777211462 heartbeat IPC: 0.3663 cumulative IPC: 0.081 (Simulation time: 01 hr 42 min 29 sec)
Heartbeat CPU 0 instructions: 1450000195 cycles: 17791199475 heartbeat IPC: 0.7149 cumulative IPC: 0.0815 (Simulation time: 01 hr 43 min 43 sec)
Heartbeat CPU 0 instructions: 1460000196 cycles: 17800821654 heartbeat IPC: 1.039 cumulative IPC: 0.08202 (Simulation time: 01 hr 44 min 52 sec)
Heartbeat CPU 0 instructions: 1470000199 cycles: 17809757301 heartbeat IPC: 1.119 cumulative IPC: 0.08254 (Simulation time: 01 hr 46 min 01 sec)
Heartbeat CPU 0 instructions: 1480000199 cycles: 17819633137 heartbeat IPC: 1.013 cumulative IPC: 0.08305 (Simulation time: 01 hr 47 min 11 sec)
Heartbeat CPU 0 instructions: 1490000202 cycles: 17846352401 heartbeat IPC: 0.3743 cumulative IPC: 0.08349 (Simulation time: 01 hr 49 min 33 sec)
Heartbeat CPU 0 instructions: 1500000203 cycles: 17854632701 heartbeat IPC: 1.208 cumulative IPC: 0.08401 (Simulation time: 01 hr 50 min 29 sec)
Heartbeat CPU 0 instructions: 1510000205 cycles: 17863623537 heartbeat IPC: 1.112 cumulative IPC: 0.08453 (Simulation time: 01 hr 51 min 23 sec)
Heartbeat CPU 0 instructions: 1520000205 cycles: 17873815212 heartbeat IPC: 0.9812 cumulative IPC: 0.08504 (Simulation time: 01 hr 52 min 30 sec)
Heartbeat CPU 0 instructions: 1530000205 cycles: 17907284500 heartbeat IPC: 0.2988 cumulative IPC: 0.08544 (Simulation time: 01 hr 55 min 19 sec)
Heartbeat CPU 0 instructions: 1540000207 cycles: 17948703047 heartbeat IPC: 0.2414 cumulative IPC: 0.0858 (Simulation time: 01 hr 58 min 26 sec)
Heartbeat CPU 0 instructions: 1550000207 cycles: 17991096503 heartbeat IPC: 0.2359 cumulative IPC: 0.08615 (Simulation time: 02 hr 01 min 42 sec)
Heartbeat CPU 0 instructions: 1560000210 cycles: 18033260957 heartbeat IPC: 0.2372 cumulative IPC: 0.08651 (Simulation time: 02 hr 04 min 34 sec)
Heartbeat CPU 0 instructions: 1570000210 cycles: 18076155981 heartbeat IPC: 0.2331 cumulative IPC: 0.08685 (Simulation time: 02 hr 08 min 10 sec)
Heartbeat CPU 0 instructions: 1580000212 cycles: 18127125014 heartbeat IPC: 0.1962 cumulative IPC: 0.08716 (Simulation time: 02 hr 12 min 59 sec)
Heartbeat CPU 0 instructions: 1590000216 cycles: 18175909745 heartbeat IPC: 0.205 cumulative IPC: 0.08748 (Simulation time: 02 hr 17 min 05 sec)
Heartbeat CPU 0 instructions: 1600000218 cycles: 18208796903 heartbeat IPC: 0.3041 cumulative IPC: 0.08787 (Simulation time: 02 hr 19 min 32 sec)
Heartbeat CPU 0 instructions: 1610000218 cycles: 18220335752 heartbeat IPC: 0.8666 cumulative IPC: 0.08836 (Simulation time: 02 hr 20 min 39 sec)
Heartbeat CPU 0 instructions: 1620000222 cycles: 18229587560 heartbeat IPC: 1.081 cumulative IPC: 0.08887 (Simulation time: 02 hr 21 min 40 sec)
Heartbeat CPU 0 instructions: 1630000223 cycles: 18246973649 heartbeat IPC: 0.5752 cumulative IPC: 0.08933 (Simulation time: 02 hr 23 min 36 sec)
Heartbeat CPU 0 instructions: 1640000224 cycles: 18256961166 heartbeat IPC: 1.001 cumulative IPC: 0.08983 (Simulation time: 02 hr 24 min 52 sec)
Heartbeat CPU 0 instructions: 1650000228 cycles: 18266814497 heartbeat IPC: 1.015 cumulative IPC: 0.09033 (Simulation time: 02 hr 26 min 06 sec)
Heartbeat CPU 0 instructions: 1660000230 cycles: 18278929254 heartbeat IPC: 0.8254 cumulative IPC: 0.09081 (Simulation time: 02 hr 27 min 33 sec)
Heartbeat CPU 0 instructions: 1670000231 cycles: 18305817375 heartbeat IPC: 0.3719 cumulative IPC: 0.09123 (Simulation time: 02 hr 30 min 24 sec)
Heartbeat CPU 0 instructions: 1680000231 cycles: 18328435281 heartbeat IPC: 0.4421 cumulative IPC: 0.09166 (Simulation time: 02 hr 32 min 55 sec)
Heartbeat CPU 0 instructions: 1690000231 cycles: 18336847577 heartbeat IPC: 1.189 cumulative IPC: 0.09216 (Simulation time: 02 hr 34 min 01 sec)
[ERROR_CYCLE] Error added at CPU cycle 18338424391, interval 26, pending count: 1
[DRAM_CYCLE_ERROR] Cycle-based error applied! address=0x4a032fea8 additional_latency=2459910500 cycles
Heartbeat CPU 0 instructions: 1700000232 cycles: 18359399888 heartbeat IPC: 0.4434 cumulative IPC: 0.0926 (Simulation time: 02 hr 36 min 31 sec)
Heartbeat CPU 0 instructions: 1710000233 cycles: 18370789890 heartbeat IPC: 0.878 cumulative IPC: 0.09308 (Simulation time: 02 hr 37 min 55 sec)
Heartbeat CPU 0 instructions: 1720000233 cycles: 18380836239 heartbeat IPC: 0.9954 cumulative IPC: 0.09358 (Simulation time: 02 hr 39 min 12 sec)
Heartbeat CPU 0 instructions: 1730000235 cycles: 18389432200 heartbeat IPC: 1.163 cumulative IPC: 0.09408 (Simulation time: 02 hr 40 min 20 sec)
Heartbeat CPU 0 instructions: 1740000235 cycles: 18408327933 heartbeat IPC: 0.5292 cumulative IPC: 0.09452 (Simulation time: 02 hr 42 min 25 sec)
Heartbeat CPU 0 instructions: 1750000236 cycles: 18416943865 heartbeat IPC: 1.161 cumulative IPC: 0.09502 (Simulation time: 02 hr 43 min 32 sec)
Heartbeat CPU 0 instructions: 1760000236 cycles: 18430125705 heartbeat IPC: 0.7586 cumulative IPC: 0.0955 (Simulation time: 02 hr 45 min 05 sec)
Heartbeat CPU 0 instructions: 1770000237 cycles: 18439943787 heartbeat IPC: 1.019 cumulative IPC: 0.09599 (Simulation time: 02 hr 45 min 58 sec)
Heartbeat CPU 0 instructions: 1780000237 cycles: 18460467593 heartbeat IPC: 0.4872 cumulative IPC: 0.09642 (Simulation time: 02 hr 47 min 45 sec)
Heartbeat CPU 0 instructions: 1790000238 cycles: 18507898125 heartbeat IPC: 0.2108 cumulative IPC: 0.09672 (Simulation time: 02 hr 51 min 42 sec)
Heartbeat CPU 0 instructions: 1800000240 cycles: 18529867494 heartbeat IPC: 0.4552 cumulative IPC: 0.09714 (Simulation time: 02 hr 53 min 54 sec)
Heartbeat CPU 0 instructions: 1810000240 cycles: 18539693404 heartbeat IPC: 1.018 cumulative IPC: 0.09763 (Simulation time: 02 hr 55 min 10 sec)
Heartbeat CPU 0 instructions: 1820000242 cycles: 18559474687 heartbeat IPC: 0.5055 cumulative IPC: 0.09806 (Simulation time: 02 hr 57 min 26 sec)
Heartbeat CPU 0 instructions: 1830000243 cycles: 18569154824 heartbeat IPC: 1.033 cumulative IPC: 0.09855 (Simulation time: 02 hr 58 min 40 sec)
Heartbeat CPU 0 instructions: 1840000243 cycles: 18576976327 heartbeat IPC: 1.279 cumulative IPC: 0.09905 (Simulation time: 02 hr 59 min 38 sec)
Heartbeat CPU 0 instructions: 1850000243 cycles: 18586843491 heartbeat IPC: 1.013 cumulative IPC: 0.09953 (Simulation time: 03 hr 00 min 38 sec)
Heartbeat CPU 0 instructions: 1860000245 cycles: 18601815564 heartbeat IPC: 0.6679 cumulative IPC: 0.09999 (Simulation time: 03 hr 01 min 57 sec)
Heartbeat CPU 0 instructions: 1870000249 cycles: 18617314977 heartbeat IPC: 0.6452 cumulative IPC: 0.1004 (Simulation time: 03 hr 03 min 31 sec)
Heartbeat CPU 0 instructions: 1880000253 cycles: 18626089192 heartbeat IPC: 1.14 cumulative IPC: 0.1009 (Simulation time: 03 hr 04 min 30 sec)
Heartbeat CPU 0 instructions: 1890000255 cycles: 18642713455 heartbeat IPC: 0.6015 cumulative IPC: 0.1014 (Simulation time: 03 hr 06 min 07 sec)
Heartbeat CPU 0 instructions: 1900000258 cycles: 18651197423 heartbeat IPC: 1.179 cumulative IPC: 0.1019 (Simulation time: 03 hr 07 min 14 sec)
Heartbeat CPU 0 instructions: 1910000258 cycles: 18662053379 heartbeat IPC: 0.9212 cumulative IPC: 0.1023 (Simulation time: 03 hr 08 min 35 sec)
Heartbeat CPU 0 instructions: 1920000259 cycles: 18671462857 heartbeat IPC: 1.063 cumulative IPC: 0.1028 (Simulation time: 03 hr 09 min 47 sec)
Heartbeat CPU 0 instructions: 1930000261 cycles: 18687241989 heartbeat IPC: 0.6337 cumulative IPC: 0.1033 (Simulation time: 03 hr 11 min 36 sec)
Heartbeat CPU 0 instructions: 1940000262 cycles: 18696026191 heartbeat IPC: 1.138 cumulative IPC: 0.1038 (Simulation time: 03 hr 12 min 34 sec)
Heartbeat CPU 0 instructions: 1950000265 cycles: 18708034686 heartbeat IPC: 0.8327 cumulative IPC: 0.1042 (Simulation time: 03 hr 14 min 02 sec)
Heartbeat CPU 0 instructions: 1960000268 cycles: 18718185290 heartbeat IPC: 0.9852 cumulative IPC: 0.1047 (Simulation time: 03 hr 15 min 14 sec)
Heartbeat CPU 0 instructions: 1970000269 cycles: 18743720941 heartbeat IPC: 0.3916 cumulative IPC: 0.1051 (Simulation time: 03 hr 17 min 23 sec)
Heartbeat CPU 0 instructions: 1980000269 cycles: 18790862463 heartbeat IPC: 0.2121 cumulative IPC: 0.1054 (Simulation time: 03 hr 21 min 20 sec)
Heartbeat CPU 0 instructions: 1990000270 cycles: 18838527313 heartbeat IPC: 0.2098 cumulative IPC: 0.1056 (Simulation time: 03 hr 25 min 35 sec)

=== ERROR PAGE STATISTICS ===
Mode: CYCLE
Error Cycle Interval: 705324015 CPU cycles
Total Error Accesses: 26
==============================
Simulation finished CPU 0 instructions: 1999999938 cycles: 18882425063 cumulative IPC: 0.1059 (Simulation time: 03 hr 29 min 31 sec)
Simulation complete CPU 0 instructions: 1999999938 cycles: 18882425063 cumulative IPC: 0.1059 (Simulation time: 03 hr 29 min 31 sec)

ChampSim completed all CPUs

=== Simulation ===
CPU 0 runs test_traces/605.mcf_s-994B.champsimtrace.xz

Region of Interest Statistics

CPU 0 cumulative IPC: 0.1059 instructions: 1999999938 cycles: 18882425063
CPU 0 Branch Prediction Accuracy: 92.62% MPKI: 18.99 Average ROB Occupancy at Mispredict: 32.67
Branch type MPKI
BRANCH_DIRECT_JUMP: 0.123
BRANCH_INDIRECT: 0
BRANCH_CONDITIONAL: 18.86
BRANCH_DIRECT_CALL: 6.5e-06
BRANCH_INDIRECT_CALL: 0.0004185
BRANCH_RETURN: 1e-05

cpu0->cpu0_STLB TOTAL        ACCESS:    6367253 HIT:    6361303 MISS:       5950 MSHR_MERGE:          0
cpu0->cpu0_STLB LOAD         ACCESS:    6367253 HIT:    6361303 MISS:       5950 MSHR_MERGE:          0
cpu0->cpu0_STLB RFO          ACCESS:          0 HIT:          0 MISS:          0 MSHR_MERGE:          0
cpu0->cpu0_STLB PREFETCH     ACCESS:          0 HIT:          0 MISS:          0 MSHR_MERGE:          0
cpu0->cpu0_STLB WRITE        ACCESS:          0 HIT:          0 MISS:          0 MSHR_MERGE:          0
cpu0->cpu0_STLB TRANSLATION  ACCESS:          0 HIT:          0 MISS:          0 MSHR_MERGE:          0
cpu0->cpu0_STLB PREFETCH REQUESTED:          0 ISSUED:          0 USEFUL:          0 USELESS:          0
cpu0->cpu0_STLB AVERAGE MISS LATENCY: 2.677e+06 cycles
cpu0->cpu0_L2C TOTAL        ACCESS:   81180874 HIT:   27540059 MISS:   53640815 MSHR_MERGE:          0
cpu0->cpu0_L2C LOAD         ACCESS:   75043348 HIT:   21466992 MISS:   53576356 MSHR_MERGE:          0
cpu0->cpu0_L2C RFO          ACCESS:     492539 HIT:     432368 MISS:      60171 MSHR_MERGE:          0
cpu0->cpu0_L2C PREFETCH     ACCESS:          0 HIT:          0 MISS:          0 MSHR_MERGE:          0
cpu0->cpu0_L2C WRITE        ACCESS:    5644987 HIT:    5640699 MISS:       4288 MSHR_MERGE:          0
cpu0->cpu0_L2C TRANSLATION  ACCESS:          0 HIT:          0 MISS:          0 MSHR_MERGE:          0
cpu0->cpu0_L2C PREFETCH REQUESTED:          0 ISSUED:          0 USEFUL:          0 USELESS:          0
cpu0->cpu0_L2C AVERAGE MISS LATENCY: 95.7 cycles
cpu0->cpu0_L1I TOTAL        ACCESS:    2879864 HIT:    2879772 MISS:         92 MSHR_MERGE:         26
cpu0->cpu0_L1I LOAD         ACCESS:    2879864 HIT:    2879772 MISS:         92 MSHR_MERGE:         26
cpu0->cpu0_L1I RFO          ACCESS:          0 HIT:          0 MISS:          0 MSHR_MERGE:          0
cpu0->cpu0_L1I PREFETCH     ACCESS:          0 HIT:          0 MISS:          0 MSHR_MERGE:          0
cpu0->cpu0_L1I WRITE        ACCESS:          0 HIT:          0 MISS:          0 MSHR_MERGE:          0
cpu0->cpu0_L1I TRANSLATION  ACCESS:          0 HIT:          0 MISS:          0 MSHR_MERGE:          0
cpu0->cpu0_L1I PREFETCH REQUESTED:          0 ISSUED:          0 USEFUL:          0 USELESS:          0
cpu0->cpu0_L1I AVERAGE MISS LATENCY: 102.8 cycles
cpu0->cpu0_L1D TOTAL        ACCESS:  810620335 HIT:  728266181 MISS:   82354154 MSHR_MERGE:    6817203
cpu0->cpu0_L1D LOAD         ACCESS:  610036681 HIT:  529059083 MISS:   80977598 MSHR_MERGE:    5934295
cpu0->cpu0_L1D RFO          ACCESS:          0 HIT:          0 MISS:          0 MSHR_MERGE:          0
cpu0->cpu0_L1D PREFETCH     ACCESS:          0 HIT:          0 MISS:          0 MSHR_MERGE:          0
cpu0->cpu0_L1D WRITE        ACCESS:  200583654 HIT:  199207098 MISS:    1376556 MSHR_MERGE:     882908
cpu0->cpu0_L1D TRANSLATION  ACCESS:          0 HIT:          0 MISS:          0 MSHR_MERGE:          0
cpu0->cpu0_L1D PREFETCH REQUESTED:          0 ISSUED:          0 USEFUL:          0 USELESS:          0
cpu0->cpu0_L1D AVERAGE MISS LATENCY: 76.8 cycles
cpu0->cpu0_ITLB TOTAL        ACCESS:    2729286 HIT:    2729285 MISS:          1 MSHR_MERGE:          0
cpu0->cpu0_ITLB LOAD         ACCESS:    2729286 HIT:    2729285 MISS:          1 MSHR_MERGE:          0
cpu0->cpu0_ITLB RFO          ACCESS:          0 HIT:          0 MISS:          0 MSHR_MERGE:          0
cpu0->cpu0_ITLB PREFETCH     ACCESS:          0 HIT:          0 MISS:          0 MSHR_MERGE:          0
cpu0->cpu0_ITLB WRITE        ACCESS:          0 HIT:          0 MISS:          0 MSHR_MERGE:          0
cpu0->cpu0_ITLB TRANSLATION  ACCESS:          0 HIT:          0 MISS:          0 MSHR_MERGE:          0
cpu0->cpu0_ITLB PREFETCH REQUESTED:          0 ISSUED:          0 USEFUL:          0 USELESS:          0
cpu0->cpu0_ITLB AVERAGE MISS LATENCY: 1.848e+07 cycles
cpu0->cpu0_DTLB TOTAL        ACCESS:  706567224 HIT:  699655236 MISS:    6911988 MSHR_MERGE:     544736
cpu0->cpu0_DTLB LOAD         ACCESS:  706567224 HIT:  699655236 MISS:    6911988 MSHR_MERGE:     544736
cpu0->cpu0_DTLB RFO          ACCESS:          0 HIT:          0 MISS:          0 MSHR_MERGE:          0
cpu0->cpu0_DTLB PREFETCH     ACCESS:          0 HIT:          0 MISS:          0 MSHR_MERGE:          0
cpu0->cpu0_DTLB WRITE        ACCESS:          0 HIT:          0 MISS:          0 MSHR_MERGE:          0
cpu0->cpu0_DTLB TRANSLATION  ACCESS:          0 HIT:          0 MISS:          0 MSHR_MERGE:          0
cpu0->cpu0_DTLB PREFETCH REQUESTED:          0 ISSUED:          0 USEFUL:          0 USELESS:          0
cpu0->cpu0_DTLB AVERAGE MISS LATENCY: 2504 cycles
cpu0->LLC TOTAL        ACCESS:   57571131 HIT:   16528588 MISS:   41042543 MSHR_MERGE:          0
cpu0->LLC LOAD         ACCESS:   53576356 HIT:   12553523 MISS:   41022833 MSHR_MERGE:          0
cpu0->LLC RFO          ACCESS:      60171 HIT:      41696 MISS:      18475 MSHR_MERGE:          0
cpu0->LLC PREFETCH     ACCESS:          0 HIT:          0 MISS:          0 MSHR_MERGE:          0
cpu0->LLC WRITE        ACCESS:    3934604 HIT:    3933369 MISS:       1235 MSHR_MERGE:          0
cpu0->LLC TRANSLATION  ACCESS:          0 HIT:          0 MISS:          0 MSHR_MERGE:          0
cpu0->LLC PREFETCH REQUESTED:          0 ISSUED:          0 USEFUL:          0 USELESS:          0
cpu0->LLC AVERAGE MISS LATENCY: 104.5 cycles

DRAM Statistics

Channel 0 RQ ROW_BUFFER_HIT:     275743
  ROW_BUFFER_MISS:   20251458
  AVG DBUS CONGESTED CYCLE: 9.318
Channel 0 WQ ROW_BUFFER_HIT:     331840
  ROW_BUFFER_MISS:    1235726
  FULL:          0
Channel 0 REFRESHES ISSUED:    1573434

Channel 1 RQ ROW_BUFFER_HIT:     275664
  ROW_BUFFER_MISS:   20250293
  AVG DBUS CONGESTED CYCLE: 9.317
Channel 1 WQ ROW_BUFFER_HIT:     331787
  ROW_BUFFER_MISS:    1236290
  FULL:          0
Channel 1 REFRESHES ISSUED:    1573434
