
*** ChampSim Multicore Out-of-Order Simulator ***
Warmup Instructions: 0
Simulation Instructions: 9223372036854775807
Number of CPUs: 1
Page size: 1048576

Off-chip DRAM Size: 32 GiB Channels: 2 Width: 32-bit Data Rate: 4807 MT/s
[ERROR_PAGE_MANAGER] Error latency: 2459910500 
[ERROR_PAGE_MANAGER] Random seed: 54321 (fixed for preload reproducibility)
[ERROR_PAGE_MANAGER] Cycle-based error modeling enabled
[ERROR_PAGE_MANAGER] Errors per interval: 1
[ERROR_PAGE_MANAGER] Error cycle interval: 7053240154 cycles

=== ERROR PAGE STATISTICS ===
Mode: CYCLE
Error Cycle Interval: 7053240154 CPU cycles
Total Error Accesses: 0
==============================
Warmup finished CPU 0 instructions: 0 cycles: 1 cumulative IPC: 0 (Simulation time: 00 hr 00 min 00 sec)
Warmup complete CPU 0 instructions: 0 cycles: 1 cumulative IPC: 0 (Simulation time: 00 hr 00 min 00 sec)
Simulation CPU 0 panic: IPC 0 < 0.01
Simulation CPU 0 panic: IPC 0 < 0.01
Simulation CPU 0 panic: IPC 0 < 0.01
Simulation CPU 0 panic: IPC 5e-07 < 0.01
Simulation CPU 0 panic: IPC 1.1e-06 < 0.01
Simulation CPU 0 panic: IPC 0 < 0.01
Simulation CPU 0 panic: IPC 8e-06 < 0.01
Simulation CPU 0 panic: IPC 4.54e-05 < 0.01
Simulation CPU 0 panic: IPC 0.0001128 < 0.01
Simulation CPU 0 panic: IPC 0.0001051 < 0.01
Simulation CPU 0 panic: IPC 0.0026152 < 0.01
Simulation CPU 0 panic: IPC 3.34e-05 < 0.01
Simulation CPU 0 panic: IPC 0.0010197 < 0.01
Simulation CPU 0 panic: IPC 7e-06 < 0.01
Simulation CPU 0 panic: IPC 6.5e-06 < 0.01
Simulation CPU 0 panic: IPC 2.05e-05 < 0.01
Simulation CPU 0 panic: IPC 1.14e-05 < 0.01
Simulation CPU 0 panic: IPC 2.72e-05 < 0.01
Simulation CPU 0 panic: IPC 0.00025 < 0.01
Simulation CPU 0 panic: IPC 0.0001349 < 0.01
Simulation CPU 0 panic: IPC 0 < 0.01
Simulation CPU 0 panic: IPC 0.0004092 < 0.01
Simulation CPU 0 panic: IPC 0.000361 < 0.01
Simulation CPU 0 panic: IPC 0.0001798 < 0.01
Simulation CPU 0 panic: IPC 0.0005803 < 0.01
Simulation CPU 0 warning: IPC 0.026295 < 0.05
Simulation CPU 0 panic: IPC 4.9e-06 < 0.01
Simulation CPU 0 panic: IPC 4.4e-06 < 0.01
Simulation CPU 0 panic: IPC 1.52e-05 < 0.01
Simulation CPU 0 panic: IPC 7.6e-06 < 0.01
Simulation CPU 0 panic: IPC 7.1e-06 < 0.01
Simulation CPU 0 panic: IPC 1.75e-05 < 0.01
Simulation CPU 0 panic: IPC 1e-05 < 0.01
Simulation CPU 0 panic: IPC 4.3e-06 < 0.01
Simulation CPU 0 panic: IPC 9.6e-06 < 0.01
Simulation CPU 0 panic: IPC 2.45e-05 < 0.01
Simulation CPU 0 panic: IPC 2.87e-05 < 0.01
Simulation CPU 0 panic: IPC 1.96e-05 < 0.01
Simulation CPU 0 panic: IPC 4.6e-06 < 0.01
Simulation CPU 0 panic: IPC 1.42e-05 < 0.01
Simulation CPU 0 panic: IPC 1.24e-05 < 0.01
Simulation CPU 0 panic: IPC 3e-05 < 0.01
Simulation CPU 0 panic: IPC 5.34e-05 < 0.01
Simulation CPU 0 panic: IPC 3.88e-05 < 0.01
Simulation CPU 0 panic: IPC 2.17e-05 < 0.01
Simulation CPU 0 panic: IPC 3.42e-05 < 0.01
Simulation CPU 0 panic: IPC 6.8e-06 < 0.01
Simulation CPU 0 panic: IPC 4.24e-05 < 0.01
Simulation CPU 0 panic: IPC 5.63e-05 < 0.01
Simulation CPU 0 panic: IPC 4.17e-05 < 0.01
Simulation CPU 0 panic: IPC 1.71e-05 < 0.01
Simulation CPU 0 panic: IPC 1.43e-05 < 0.01
Simulation CPU 0 panic: IPC 5.89e-05 < 0.01
Simulation CPU 0 panic: IPC 6.6e-06 < 0.01
Simulation CPU 0 panic: IPC 1.53e-05 < 0.01
Simulation CPU 0 panic: IPC 1.18e-05 < 0.01
Simulation CPU 0 panic: IPC 0.0001261 < 0.01
Simulation CPU 0 panic: IPC 2.42e-05 < 0.01
Simulation CPU 0 panic: IPC 0.0001872 < 0.01
Simulation CPU 0 panic: IPC 7.6e-06 < 0.01
Simulation CPU 0 panic: IPC 5.06e-05 < 0.01
Simulation CPU 0 panic: IPC 0.0001728 < 0.01
Simulation CPU 0 panic: IPC 0.0001305 < 0.01
Simulation CPU 0 panic: IPC 6.93e-05 < 0.01
Simulation CPU 0 panic: IPC 8.56e-05 < 0.01
Simulation CPU 0 panic: IPC 0 < 0.01
Simulation CPU 0 panic: IPC 0.0001422 < 0.01
Simulation CPU 0 panic: IPC 0.0002701 < 0.01
Simulation CPU 0 panic: IPC 9.4e-06 < 0.01
Simulation CPU 0 panic: IPC 4.54e-05 < 0.01
Simulation CPU 0 panic: IPC 7.23e-05 < 0.01
Simulation CPU 0 panic: IPC 2.85e-05 < 0.01
Simulation CPU 0 panic: IPC 3.84e-05 < 0.01
Simulation CPU 0 panic: IPC 1.47e-05 < 0.01
Simulation CPU 0 panic: IPC 0.0002031 < 0.01
Simulation CPU 0 panic: IPC 0.0001284 < 0.01
Simulation CPU 0 panic: IPC 0.0002105 < 0.01
Simulation CPU 0 panic: IPC 0.0007568 < 0.01
Simulation CPU 0 panic: IPC 9.6e-05 < 0.01
Simulation CPU 0 panic: IPC 0.0002754 < 0.01
Simulation CPU 0 panic: IPC 9.35e-05 < 0.01
Simulation CPU 0 panic: IPC 0.0002402 < 0.01
Simulation CPU 0 panic: IPC 7.99e-05 < 0.01
Simulation CPU 0 panic: IPC 8.3e-05 < 0.01
Simulation CPU 0 panic: IPC 0.0001353 < 0.01
Simulation CPU 0 panic: IPC 0.0005871 < 0.01
Simulation CPU 0 panic: IPC 1.46e-05 < 0.01
Simulation CPU 0 panic: IPC 0.0003208 < 0.01
Simulation CPU 0 panic: IPC 0.0003422 < 0.01
Simulation CPU 0 panic: IPC 0.0001082 < 0.01
Simulation CPU 0 panic: IPC 9.6e-06 < 0.01
Simulation CPU 0 panic: IPC 0.0001903 < 0.01
Simulation CPU 0 panic: IPC 0.0006171 < 0.01
Simulation CPU 0 panic: IPC 0.0001232 < 0.01
Simulation CPU 0 panic: IPC 0.0010295 < 0.01
Simulation CPU 0 panic: IPC 0.0008541 < 0.01
Simulation CPU 0 panic: IPC 0.0006314 < 0.01
Simulation CPU 0 panic: IPC 0.0001833 < 0.01
Simulation CPU 0 panic: IPC 0.0001434 < 0.01
Simulation CPU 0 panic: IPC 4.77e-05 < 0.01
Simulation CPU 0 panic: IPC 0.0008204 < 0.01
Simulation CPU 0 panic: IPC 1.22e-05 < 0.01
Simulation CPU 0 panic: IPC 0.0001603 < 0.01
Simulation CPU 0 panic: IPC 0.0001364 < 0.01
Simulation CPU 0 panic: IPC 0.0009266 < 0.01
Simulation CPU 0 panic: IPC 0.0004779 < 0.01
Simulation CPU 0 panic: IPC 0.0005578 < 0.01
Simulation CPU 0 panic: IPC 7.93e-05 < 0.01
Simulation CPU 0 panic: IPC 0.000243 < 0.01
Simulation CPU 0 panic: IPC 0.0002813 < 0.01
Simulation CPU 0 panic: IPC 5.3e-06 < 0.01
Simulation CPU 0 panic: IPC 0.0004785 < 0.01
Simulation CPU 0 panic: IPC 0.0005448 < 0.01
Simulation CPU 0 panic: IPC 0.0004207 < 0.01
Simulation CPU 0 panic: IPC 0.0004945 < 0.01
Simulation CPU 0 panic: IPC 0.0003328 < 0.01
Simulation CPU 0 panic: IPC 0.0009242 < 0.01
Simulation CPU 0 panic: IPC 0.0010043 < 0.01
Simulation CPU 0 panic: IPC 0.0001551 < 0.01
Simulation CPU 0 panic: IPC 0.0002527 < 0.01
Simulation CPU 0 panic: IPC 0.0006688 < 0.01
Simulation CPU 0 panic: IPC 4.36e-05 < 0.01
Simulation CPU 0 panic: IPC 0.0008939 < 0.01
Simulation CPU 0 panic: IPC 2e-07 < 0.01
Simulation CPU 0 panic: IPC 1.12e-05 < 0.01
Simulation CPU 0 panic: IPC 2.01e-05 < 0.01
Simulation CPU 0 panic: IPC 7.1e-06 < 0.01
Simulation CPU 0 panic: IPC 5.1e-06 < 0.01
Simulation CPU 0 panic: IPC 6.6e-06 < 0.01
Simulation CPU 0 panic: IPC 4.6e-06 < 0.01
Simulation CPU 0 panic: IPC 9.2e-06 < 0.01
Simulation CPU 0 panic: IPC 7.4e-06 < 0.01
Simulation CPU 0 panic: IPC 9.4e-06 < 0.01
Simulation CPU 0 panic: IPC 7.1e-06 < 0.01
Simulation CPU 0 panic: IPC 2.5e-06 < 0.01
Simulation CPU 0 panic: IPC 6.6e-06 < 0.01
Simulation CPU 0 panic: IPC 2.18e-05 < 0.01
Simulation CPU 0 panic: IPC 1.14e-05 < 0.01
Simulation CPU 0 panic: IPC 2.3e-06 < 0.01
Simulation CPU 0 panic: IPC 9.4e-06 < 0.01
Simulation CPU 0 panic: IPC 1.63e-05 < 0.01
Simulation CPU 0 panic: IPC 2.57e-05 < 0.01
Simulation CPU 0 panic: IPC 9.4e-06 < 0.01
Simulation CPU 0 panic: IPC 2.8e-06 < 0.01
Simulation CPU 0 panic: IPC 6.6e-06 < 0.01
Simulation CPU 0 panic: IPC 1.91e-05 < 0.01
Simulation CPU 0 panic: IPC 1.67e-05 < 0.01
Simulation CPU 0 panic: IPC 8.9e-06 < 0.01
Simulation CPU 0 panic: IPC 5.19e-05 < 0.01
Simulation CPU 0 panic: IPC 1.65e-05 < 0.01
Simulation CPU 0 panic: IPC 1.19e-05 < 0.01
Simulation CPU 0 panic: IPC 4.65e-05 < 0.01
Simulation CPU 0 panic: IPC 9.7e-06 < 0.01
Simulation CPU 0 panic: IPC 2.34e-05 < 0.01
Simulation CPU 0 panic: IPC 9.1e-06 < 0.01
Simulation CPU 0 panic: IPC 4.75e-05 < 0.01
Simulation CPU 0 panic: IPC 7.1e-06 < 0.01
Simulation CPU 0 panic: IPC 6.09e-05 < 0.01
Simulation CPU 0 panic: IPC 1.4e-05 < 0.01
Simulation CPU 0 panic: IPC 2.85e-05 < 0.01
Simulation CPU 0 panic: IPC 2.59e-05 < 0.01
Simulation CPU 0 panic: IPC 1.81e-05 < 0.01
Simulation CPU 0 panic: IPC 2.8e-06 < 0.01
Simulation CPU 0 panic: IPC 1.65e-05 < 0.01
Simulation CPU 0 panic: IPC 1.65e-05 < 0.01
Simulation CPU 0 panic: IPC 4.94e-05 < 0.01
Simulation CPU 0 panic: IPC 4.72e-05 < 0.01
Simulation CPU 0 panic: IPC 5.42e-05 < 0.01
Simulation CPU 0 panic: IPC 7e-05 < 0.01
Simulation CPU 0 panic: IPC 0.0001075 < 0.01
Simulation CPU 0 panic: IPC 4.66e-05 < 0.01
Simulation CPU 0 panic: IPC 1.2e-05 < 0.01
Simulation CPU 0 panic: IPC 5.32e-05 < 0.01
Simulation CPU 0 panic: IPC 5.39e-05 < 0.01
Simulation CPU 0 panic: IPC 5.83e-05 < 0.01
Simulation CPU 0 panic: IPC 7.4e-06 < 0.01
Simulation CPU 0 panic: IPC 9.64e-05 < 0.01
Simulation CPU 0 panic: IPC 3.93e-05 < 0.01
Simulation CPU 0 panic: IPC 4.01e-05 < 0.01
Simulation CPU 0 panic: IPC 5.43e-05 < 0.01
Simulation CPU 0 panic: IPC 3.28e-05 < 0.01
Simulation CPU 0 panic: IPC 8.15e-05 < 0.01
Simulation CPU 0 panic: IPC 0.0001264 < 0.01
Simulation CPU 0 panic: IPC 5.18e-05 < 0.01
Simulation CPU 0 panic: IPC 1.15e-05 < 0.01
Simulation CPU 0 panic: IPC 0.0002277 < 0.01
Simulation CPU 0 panic: IPC 0.0001174 < 0.01
Simulation CPU 0 panic: IPC 0.0001295 < 0.01
Simulation CPU 0 panic: IPC 1.22e-05 < 0.01
Simulation CPU 0 panic: IPC 0.0001157 < 0.01
Simulation CPU 0 panic: IPC 0.0001207 < 0.01
Simulation CPU 0 panic: IPC 8.65e-05 < 0.01
Simulation CPU 0 panic: IPC 0.0002114 < 0.01
Simulation CPU 0 panic: IPC 0.0002879 < 0.01
Simulation CPU 0 panic: IPC 3.03e-05 < 0.01
Simulation CPU 0 panic: IPC 7.25e-05 < 0.01
Simulation CPU 0 panic: IPC 6.12e-05 < 0.01
Simulation CPU 0 panic: IPC 6.54e-05 < 0.01
Simulation CPU 0 panic: IPC 3.01e-05 < 0.01
Simulation CPU 0 panic: IPC 8.75e-05 < 0.01
Simulation CPU 0 panic: IPC 0.0002192 < 0.01
Simulation CPU 0 panic: IPC 5.18e-05 < 0.01
Simulation CPU 0 panic: IPC 0.0001361 < 0.01
Simulation CPU 0 panic: IPC 9.2e-06 < 0.01
Simulation CPU 0 panic: IPC 3.28e-05 < 0.01
Simulation CPU 0 panic: IPC 3.54e-05 < 0.01
Simulation CPU 0 panic: IPC 0.0001211 < 0.01
Simulation CPU 0 panic: IPC 7.1e-06 < 0.01
Simulation CPU 0 panic: IPC 2.11e-05 < 0.01
Simulation CPU 0 panic: IPC 9.65e-05 < 0.01
Simulation CPU 0 panic: IPC 0.0001952 < 0.01
Simulation CPU 0 panic: IPC 5.38e-05 < 0.01
Simulation CPU 0 panic: IPC 0.0003188 < 0.01
Simulation CPU 0 panic: IPC 8.4e-05 < 0.01
Simulation CPU 0 panic: IPC 5.62e-05 < 0.01
Simulation CPU 0 panic: IPC 0.0001369 < 0.01
Simulation CPU 0 panic: IPC 1.35e-05 < 0.01
Simulation CPU 0 panic: IPC 9.4e-06 < 0.01
Simulation CPU 0 panic: IPC 3.56e-05 < 0.01
Simulation CPU 0 panic: IPC 0.0001177 < 0.01
Simulation CPU 0 panic: IPC 5.19e-05 < 0.01
Simulation CPU 0 panic: IPC 0.0001791 < 0.01
Simulation CPU 0 panic: IPC 0.0002348 < 0.01
Simulation CPU 0 panic: IPC 1.17e-05 < 0.01
Simulation CPU 0 panic: IPC 0.0001456 < 0.01
Simulation CPU 0 panic: IPC 7e-05 < 0.01
Simulation CPU 0 panic: IPC 7.07e-05 < 0.01
Simulation CPU 0 panic: IPC 0.0001799 < 0.01
Simulation CPU 0 panic: IPC 0.0002571 < 0.01
Simulation CPU 0 panic: IPC 8.01e-05 < 0.01
Simulation CPU 0 panic: IPC 2.09e-05 < 0.01
Simulation CPU 0 panic: IPC 0.0001618 < 0.01
Simulation CPU 0 panic: IPC 2.83e-05 < 0.01
Simulation CPU 0 panic: IPC 0.0003312 < 0.01
Simulation CPU 0 panic: IPC 0.0001744 < 0.01
Simulation CPU 0 panic: IPC 0.0002223 < 0.01
Simulation CPU 0 panic: IPC 5.1e-06 < 0.01
Simulation CPU 0 panic: IPC 5e-05 < 0.01
Simulation CPU 0 panic: IPC 3.24e-05 < 0.01
Simulation CPU 0 panic: IPC 7.56e-05 < 0.01
Simulation CPU 0 panic: IPC 0.0001378 < 0.01
Simulation CPU 0 panic: IPC 0.0001715 < 0.01
Simulation CPU 0 panic: IPC 4.89e-05 < 0.01
Simulation CPU 0 panic: IPC 2.37e-05 < 0.01
Simulation CPU 0 panic: IPC 4.61e-05 < 0.01
Simulation CPU 0 panic: IPC 4.7e-05 < 0.01
Simulation CPU 0 panic: IPC 0.0002478 < 0.01
Simulation CPU 0 panic: IPC 2.82e-05 < 0.01
Simulation CPU 0 panic: IPC 0.0003203 < 0.01
Simulation CPU 0 panic: IPC 0.0002769 < 0.01
Simulation CPU 0 panic: IPC 0.0005878 < 0.01
Simulation CPU 0 panic: IPC 0.0002437 < 0.01
Simulation CPU 0 panic: IPC 2.82e-05 < 0.01
Simulation CPU 0 panic: IPC 1.66e-05 < 0.01
Simulation CPU 0 panic: IPC 0.0002559 < 0.01
Simulation CPU 0 panic: IPC 0.0002372 < 0.01
Simulation CPU 0 panic: IPC 3.95e-05 < 0.01
Simulation CPU 0 panic: IPC 0.0001235 < 0.01
Simulation CPU 0 panic: IPC 0.0002071 < 0.01
Simulation CPU 0 panic: IPC 0.0002414 < 0.01
Simulation CPU 0 panic: IPC 4.16e-05 < 0.01
Simulation CPU 0 panic: IPC 3.72e-05 < 0.01
Simulation CPU 0 panic: IPC 0.0001227 < 0.01
Simulation CPU 0 panic: IPC 0.0002476 < 0.01
Simulation CPU 0 panic: IPC 0.0001958 < 0.01
Simulation CPU 0 panic: IPC 0.0003686 < 0.01
Simulation CPU 0 panic: IPC 0.0001047 < 0.01
Simulation CPU 0 panic: IPC 0.0001047 < 0.01
Simulation CPU 0 panic: IPC 7.88e-05 < 0.01
Simulation CPU 0 panic: IPC 0.000428 < 0.01
Simulation CPU 0 panic: IPC 0.0003212 < 0.01
Simulation CPU 0 panic: IPC 4.22e-05 < 0.01
Simulation CPU 0 panic: IPC 3.03e-05 < 0.01
Simulation CPU 0 panic: IPC 0.0006245 < 0.01
Simulation CPU 0 panic: IPC 3.49e-05 < 0.01
Simulation CPU 0 panic: IPC 7.48e-05 < 0.01
Simulation CPU 0 panic: IPC 0.0002813 < 0.01
Simulation CPU 0 panic: IPC 0.0002666 < 0.01
Simulation CPU 0 panic: IPC 0.0003522 < 0.01
Simulation CPU 0 panic: IPC 0.0005807 < 0.01
Simulation CPU 0 panic: IPC 0.0004421 < 0.01
Simulation CPU 0 panic: IPC 0.000318 < 0.01
Simulation CPU 0 panic: IPC 0.0001644 < 0.01
Simulation CPU 0 panic: IPC 2.53e-05 < 0.01
Simulation CPU 0 panic: IPC 0.0003332 < 0.01
Simulation CPU 0 panic: IPC 7.25e-05 < 0.01
Simulation CPU 0 panic: IPC 2.8e-06 < 0.01
Simulation CPU 0 panic: IPC 7.21e-05 < 0.01
Simulation CPU 0 panic: IPC 0.0003807 < 0.01
Simulation CPU 0 panic: IPC 0.0004946 < 0.01
Simulation CPU 0 panic: IPC 0.0003261 < 0.01
Simulation CPU 0 panic: IPC 0.0004985 < 0.01
Simulation CPU 0 panic: IPC 0.0001152 < 0.01
Simulation CPU 0 panic: IPC 0.0009513 < 0.01
Simulation CPU 0 panic: IPC 0.0009612 < 0.01
Simulation CPU 0 panic: IPC 8.32e-05 < 0.01
Simulation CPU 0 panic: IPC 0.0004864 < 0.01
Simulation CPU 0 panic: IPC 8.65e-05 < 0.01
Simulation CPU 0 panic: IPC 0.0007665 < 0.01
Simulation CPU 0 panic: IPC 0.0004636 < 0.01
Simulation CPU 0 panic: IPC 0.0003405 < 0.01
Simulation CPU 0 panic: IPC 0.0001647 < 0.01
Simulation CPU 0 panic: IPC 3.01e-05 < 0.01
Simulation CPU 0 panic: IPC 0.000104 < 0.01
Simulation CPU 0 panic: IPC 6.9e-06 < 0.01
Simulation CPU 0 panic: IPC 4.2e-05 < 0.01
Simulation CPU 0 panic: IPC 0.0002971 < 0.01
Simulation CPU 0 panic: IPC 0.0008249 < 0.01
Simulation CPU 0 panic: IPC 4.2e-05 < 0.01
Simulation CPU 0 panic: IPC 7.98e-05 < 0.01
Simulation CPU 0 panic: IPC 0.0001563 < 0.01
Simulation CPU 0 panic: IPC 0.0002212 < 0.01
Simulation CPU 0 panic: IPC 0.0002193 < 0.01
Simulation CPU 0 panic: IPC 0.0001872 < 0.01
Simulation CPU 0 panic: IPC 0.0014846 < 0.01
Simulation CPU 0 panic: IPC 0.0002043 < 0.01
Simulation CPU 0 panic: IPC 0.0003212 < 0.01
Simulation CPU 0 panic: IPC 0.0006029 < 0.01
Simulation CPU 0 panic: IPC 0.0002415 < 0.01
Simulation CPU 0 panic: IPC 0.0018835 < 0.01
Simulation CPU 0 panic: IPC 0.000788 < 0.01
Simulation CPU 0 panic: IPC 6.58e-05 < 0.01
Simulation CPU 0 panic: IPC 0.000169 < 0.01
Simulation CPU 0 panic: IPC 0.0048339 < 0.01
Simulation CPU 0 panic: IPC 0.0019413 < 0.01
Simulation CPU 0 panic: IPC 7.95e-05 < 0.01
Simulation CPU 0 panic: IPC 0.000563 < 0.01
Simulation CPU 0 panic: IPC 6.52e-05 < 0.01
Simulation CPU 0 panic: IPC 0.0007563 < 0.01
Simulation CPU 0 panic: IPC 0.0006593 < 0.01
Simulation CPU 0 panic: IPC 0.0006741 < 0.01
Simulation CPU 0 panic: IPC 0.0005227 < 0.01
Simulation CPU 0 panic: IPC 0.0034973 < 0.01
Heartbeat CPU 0 instructions: 10000001 cycles: 3353784274 heartbeat IPC: 0.002982 cumulative IPC: 0.002982 (Simulation time: 04 hr 50 min 18 sec)
Simulation CPU 0 panic: IPC 7e-06 < 0.01
Simulation CPU 0 panic: IPC 4.4e-06 < 0.01
Simulation CPU 0 panic: IPC 1.3e-05 < 0.01
Simulation CPU 0 panic: IPC 9.6e-06 < 0.01
Simulation CPU 0 panic: IPC 4.6e-06 < 0.01
Simulation CPU 0 panic: IPC 5.3e-06 < 0.01
Simulation CPU 0 panic: IPC 6.8e-06 < 0.01
Simulation CPU 0 panic: IPC 2.3e-06 < 0.01
Simulation CPU 0 panic: IPC 9.2e-06 < 0.01
Simulation CPU 0 panic: IPC 2.8e-06 < 0.01
Simulation CPU 0 panic: IPC 4.3e-06 < 0.01
Simulation CPU 0 panic: IPC 5.1e-06 < 0.01
Simulation CPU 0 panic: IPC 7.1e-06 < 0.01
Simulation CPU 0 panic: IPC 9.4e-06 < 0.01
Simulation CPU 0 panic: IPC 1.42e-05 < 0.01
Simulation CPU 0 panic: IPC 6.6e-06 < 0.01
Simulation CPU 0 panic: IPC 2.3e-06 < 0.01
Simulation CPU 0 panic: IPC 1.22e-05 < 0.01
Simulation CPU 0 panic: IPC 3.32e-05 < 0.01
Simulation CPU 0 panic: IPC 2.12e-05 < 0.01
Simulation CPU 0 panic: IPC 9.6e-06 < 0.01
Simulation CPU 0 panic: IPC 1.24e-05 < 0.01
Simulation CPU 0 panic: IPC 1.14e-05 < 0.01
Simulation CPU 0 panic: IPC 6.9e-06 < 0.01
Simulation CPU 0 panic: IPC 2.8e-06 < 0.01
Simulation CPU 0 panic: IPC 7.1e-06 < 0.01
Simulation CPU 0 panic: IPC 2.5e-06 < 0.01
Simulation CPU 0 panic: IPC 9.6e-06 < 0.01
Simulation CPU 0 panic: IPC 1.19e-05 < 0.01
Simulation CPU 0 panic: IPC 3.52e-05 < 0.01
Simulation CPU 0 panic: IPC 5.3e-06 < 0.01
Simulation CPU 0 panic: IPC 9.6e-06 < 0.01
Simulation CPU 0 panic: IPC 1.25e-05 < 0.01
Simulation CPU 0 panic: IPC 9.6e-06 < 0.01
Simulation CPU 0 panic: IPC 2.37e-05 < 0.01
Simulation CPU 0 panic: IPC 5.1e-06 < 0.01
Simulation CPU 0 panic: IPC 1.85e-05 < 0.01
Simulation CPU 0 panic: IPC 2.3e-06 < 0.01
Simulation CPU 0 panic: IPC 2.3e-06 < 0.01
Simulation CPU 0 panic: IPC 5.3e-06 < 0.01
Simulation CPU 0 panic: IPC 2.58e-05 < 0.01
Simulation CPU 0 panic: IPC 4.51e-05 < 0.01
Simulation CPU 0 panic: IPC 1.93e-05 < 0.01
Simulation CPU 0 panic: IPC 1.88e-05 < 0.01
Simulation CPU 0 panic: IPC 1.42e-05 < 0.01
Simulation CPU 0 panic: IPC 2.34e-05 < 0.01
Simulation CPU 0 panic: IPC 9.6e-06 < 0.01
Simulation CPU 0 panic: IPC 9.6e-06 < 0.01
Simulation CPU 0 panic: IPC 9.4e-06 < 0.01
Simulation CPU 0 panic: IPC 1.67e-05 < 0.01
Simulation CPU 0 panic: IPC 1.64e-05 < 0.01
Simulation CPU 0 panic: IPC 3.13e-05 < 0.01
Simulation CPU 0 panic: IPC 2.36e-05 < 0.01
Simulation CPU 0 panic: IPC 3.12e-05 < 0.01
Simulation CPU 0 panic: IPC 7.1e-06 < 0.01
Simulation CPU 0 panic: IPC 2.38e-05 < 0.01
Simulation CPU 0 panic: IPC 5.25e-05 < 0.01
Simulation CPU 0 panic: IPC 2.3e-06 < 0.01
Simulation CPU 0 panic: IPC 1.7e-05 < 0.01
Simulation CPU 0 panic: IPC 3.25e-05 < 0.01
Simulation CPU 0 panic: IPC 2.91e-05 < 0.01
Simulation CPU 0 panic: IPC 4.96e-05 < 0.01
Simulation CPU 0 panic: IPC 8.05e-05 < 0.01
Simulation CPU 0 panic: IPC 3.07e-05 < 0.01
Simulation CPU 0 panic: IPC 7.36e-05 < 0.01
Simulation CPU 0 panic: IPC 0.0002783 < 0.01
Simulation CPU 0 panic: IPC 2.43e-05 < 0.01
Simulation CPU 0 panic: IPC 3.09e-05 < 0.01
Simulation CPU 0 panic: IPC 1.92e-05 < 0.01
Simulation CPU 0 panic: IPC 3.12e-05 < 0.01
Simulation CPU 0 panic: IPC 0.0001283 < 0.01
Simulation CPU 0 panic: IPC 2.5e-06 < 0.01
Simulation CPU 0 panic: IPC 1.83e-05 < 0.01
Simulation CPU 0 panic: IPC 1.63e-05 < 0.01
Simulation CPU 0 panic: IPC 5.45e-05 < 0.01
Simulation CPU 0 panic: IPC 1.74e-05 < 0.01
Simulation CPU 0 panic: IPC 3.55e-05 < 0.01
Simulation CPU 0 panic: IPC 0.0001108 < 0.01
Simulation CPU 0 panic: IPC 3.51e-05 < 0.01
Simulation CPU 0 panic: IPC 9.4e-06 < 0.01
Simulation CPU 0 panic: IPC 4.29e-05 < 0.01
Simulation CPU 0 panic: IPC 0.0002013 < 0.01
Simulation CPU 0 panic: IPC 7.34e-05 < 0.01
Simulation CPU 0 panic: IPC 1.88e-05 < 0.01
Simulation CPU 0 panic: IPC 5.3e-06 < 0.01
Simulation CPU 0 panic: IPC 4.03e-05 < 0.01
Simulation CPU 0 panic: IPC 1.6e-05 < 0.01
Simulation CPU 0 panic: IPC 2.85e-05 < 0.01
Simulation CPU 0 panic: IPC 4.93e-05 < 0.01
Simulation CPU 0 panic: IPC 4.85e-05 < 0.01
Simulation CPU 0 panic: IPC 0.0001422 < 0.01
Simulation CPU 0 panic: IPC 5.04e-05 < 0.01
Simulation CPU 0 panic: IPC 4e-05 < 0.01
Simulation CPU 0 panic: IPC 7.85e-05 < 0.01
Simulation CPU 0 panic: IPC 3.83e-05 < 0.01
Simulation CPU 0 panic: IPC 2.5e-06 < 0.01
Simulation CPU 0 panic: IPC 0.0001909 < 0.01
Simulation CPU 0 panic: IPC 9.9e-06 < 0.01
Simulation CPU 0 panic: IPC 0.0001807 < 0.01
Simulation CPU 0 panic: IPC 0.0001314 < 0.01
Simulation CPU 0 panic: IPC 0.0001063 < 0.01
Simulation CPU 0 panic: IPC 0.0001095 < 0.01
Simulation CPU 0 panic: IPC 0.0002187 < 0.01
Simulation CPU 0 panic: IPC 0.0001561 < 0.01
Simulation CPU 0 panic: IPC 0.0001679 < 0.01
Simulation CPU 0 panic: IPC 5.89e-05 < 0.01
Simulation CPU 0 panic: IPC 0.0001449 < 0.01
Simulation CPU 0 panic: IPC 3.41e-05 < 0.01
Simulation CPU 0 panic: IPC 0.0004179 < 0.01
Simulation CPU 0 panic: IPC 0.0002767 < 0.01
Simulation CPU 0 panic: IPC 0.0002127 < 0.01
Simulation CPU 0 panic: IPC 0.0009855 < 0.01
Simulation CPU 0 panic: IPC 0.0002115 < 0.01
Simulation CPU 0 panic: IPC 5.75e-05 < 0.01
Simulation CPU 0 panic: IPC 0.0001526 < 0.01
Simulation CPU 0 panic: IPC 0.0006533 < 0.01
Simulation CPU 0 panic: IPC 0.0002484 < 0.01
Simulation CPU 0 panic: IPC 0.0001168 < 0.01
Simulation CPU 0 panic: IPC 1.62e-05 < 0.01
Simulation CPU 0 panic: IPC 2.41e-05 < 0.01
Simulation CPU 0 panic: IPC 3.78e-05 < 0.01
Simulation CPU 0 panic: IPC 5.17e-05 < 0.01
Simulation CPU 0 panic: IPC 4.95e-05 < 0.01
Simulation CPU 0 panic: IPC 0.0002053 < 0.01
Simulation CPU 0 panic: IPC 0.0003816 < 0.01
Simulation CPU 0 panic: IPC 0.0003535 < 0.01
Simulation CPU 0 panic: IPC 0.000252 < 0.01
Simulation CPU 0 panic: IPC 0.0006812 < 0.01
Simulation CPU 0 panic: IPC 3.96e-05 < 0.01
Simulation CPU 0 panic: IPC 0.0001518 < 0.01
Simulation CPU 0 panic: IPC 0.0003459 < 0.01
Simulation CPU 0 panic: IPC 1.39e-05 < 0.01
Simulation CPU 0 panic: IPC 0.0004057 < 0.01
Simulation CPU 0 panic: IPC 3.12e-05 < 0.01
Simulation CPU 0 panic: IPC 1.88e-05 < 0.01
Simulation CPU 0 panic: IPC 1.14e-05 < 0.01
Simulation CPU 0 panic: IPC 0.000274 < 0.01
Simulation CPU 0 panic: IPC 9.67e-05 < 0.01
Simulation CPU 0 panic: IPC 0.0001446 < 0.01
Simulation CPU 0 panic: IPC 0.0004042 < 0.01
Simulation CPU 0 panic: IPC 0.0008982 < 0.01
Simulation CPU 0 panic: IPC 0.0002563 < 0.01
Simulation CPU 0 panic: IPC 0.000161 < 0.01
Simulation CPU 0 panic: IPC 0.0001234 < 0.01
Simulation CPU 0 panic: IPC 0.0001119 < 0.01
Simulation CPU 0 panic: IPC 7.83e-05 < 0.01
Simulation CPU 0 panic: IPC 0.0006044 < 0.01
Simulation CPU 0 panic: IPC 1.49e-05 < 0.01
Simulation CPU 0 panic: IPC 0.0003012 < 0.01
Simulation CPU 0 panic: IPC 0.0002754 < 0.01
Simulation CPU 0 panic: IPC 5.3e-06 < 0.01
Simulation CPU 0 panic: IPC 0.0005412 < 0.01
Simulation CPU 0 panic: IPC 0.0002292 < 0.01
Simulation CPU 0 panic: IPC 0.0006179 < 0.01
Simulation CPU 0 panic: IPC 1.62e-05 < 0.01
Simulation CPU 0 panic: IPC 0.000624 < 0.01
Simulation CPU 0 panic: IPC 0.0004406 < 0.01
Simulation CPU 0 panic: IPC 0.0002682 < 0.01
Simulation CPU 0 panic: IPC 0.0004035 < 0.01
Simulation CPU 0 panic: IPC 0.0007626 < 0.01
Simulation CPU 0 panic: IPC 0.0001954 < 0.01
Simulation CPU 0 panic: IPC 4.92e-05 < 0.01
Simulation CPU 0 panic: IPC 0.0002524 < 0.01
Simulation CPU 0 panic: IPC 0.0003848 < 0.01
Simulation CPU 0 panic: IPC 0.0001417 < 0.01
Simulation CPU 0 panic: IPC 0.0002578 < 0.01
Simulation CPU 0 panic: IPC 0.0002692 < 0.01
Simulation CPU 0 panic: IPC 5.2e-05 < 0.01
Simulation CPU 0 panic: IPC 2.56e-05 < 0.01
Simulation CPU 0 panic: IPC 0.0006772 < 0.01
Simulation CPU 0 panic: IPC 6.41e-05 < 0.01
Simulation CPU 0 panic: IPC 7.36e-05 < 0.01
Simulation CPU 0 panic: IPC 0.0001944 < 0.01
Simulation CPU 0 panic: IPC 7.32e-05 < 0.01
Simulation CPU 0 panic: IPC 0.0009355 < 0.01
Simulation CPU 0 panic: IPC 0.0004862 < 0.01
Simulation CPU 0 panic: IPC 0.0016742 < 0.01
Simulation CPU 0 panic: IPC 0.0002276 < 0.01
Simulation CPU 0 panic: IPC 0.0006109 < 0.01
Simulation CPU 0 panic: IPC 0.0003269 < 0.01
Simulation CPU 0 panic: IPC 0.0001231 < 0.01
Simulation CPU 0 panic: IPC 5.91e-05 < 0.01
Simulation CPU 0 panic: IPC 0.0001871 < 0.01
Simulation CPU 0 panic: IPC 0.0003582 < 0.01
Simulation CPU 0 panic: IPC 2.36e-05 < 0.01
Simulation CPU 0 panic: IPC 0.0008499 < 0.01
Simulation CPU 0 panic: IPC 4.06e-05 < 0.01
Simulation CPU 0 panic: IPC 5.74e-05 < 0.01
Simulation CPU 0 panic: IPC 0.0007567 < 0.01
Simulation CPU 0 panic: IPC 5.69e-05 < 0.01
Simulation CPU 0 panic: IPC 9.01e-05 < 0.01
Simulation CPU 0 panic: IPC 0.0001665 < 0.01
Simulation CPU 0 panic: IPC 0.0002031 < 0.01
Simulation CPU 0 panic: IPC 0.0001226 < 0.01
Simulation CPU 0 panic: IPC 0.0004496 < 0.01
Simulation CPU 0 panic: IPC 2.38e-05 < 0.01
Simulation CPU 0 panic: IPC 0.0011129 < 0.01
Simulation CPU 0 panic: IPC 0.000271 < 0.01
Simulation CPU 0 panic: IPC 0.0003288 < 0.01
Simulation CPU 0 panic: IPC 8.96e-05 < 0.01
Simulation CPU 0 panic: IPC 0.0011216 < 0.01
Simulation CPU 0 panic: IPC 1.21e-05 < 0.01
Simulation CPU 0 panic: IPC 0.0017167 < 0.01
Simulation CPU 0 panic: IPC 0.0001702 < 0.01
Simulation CPU 0 panic: IPC 0.0010633 < 0.01
Simulation CPU 0 panic: IPC 9.7e-05 < 0.01
Simulation CPU 0 panic: IPC 0.0004995 < 0.01
Simulation CPU 0 panic: IPC 4.22e-05 < 0.01
Simulation CPU 0 panic: IPC 0.0020236 < 0.01
Simulation CPU 0 panic: IPC 0.0004137 < 0.01
Simulation CPU 0 panic: IPC 0.0002729 < 0.01
Simulation CPU 0 panic: IPC 0.0035213 < 0.01
Simulation CPU 0 panic: IPC 0.0005776 < 0.01
Simulation CPU 0 panic: IPC 0.0015934 < 0.01
Simulation CPU 0 panic: IPC 0.0002011 < 0.01
Simulation CPU 0 panic: IPC 8.12e-05 < 0.01
Simulation CPU 0 panic: IPC 0.0003724 < 0.01
Simulation CPU 0 panic: IPC 0.0004801 < 0.01
Simulation CPU 0 panic: IPC 0.0005158 < 0.01
Simulation CPU 0 panic: IPC 6.88e-05 < 0.01
Simulation CPU 0 panic: IPC 0.0004272 < 0.01
Simulation CPU 0 panic: IPC 4.98e-05 < 0.01
Simulation CPU 0 panic: IPC 0.0019386 < 0.01
Simulation CPU 0 panic: IPC 0.0006044 < 0.01
Simulation CPU 0 panic: IPC 0.0011745 < 0.01
Simulation CPU 0 panic: IPC 0.0009843 < 0.01
Simulation CPU 0 panic: IPC 0.0023565 < 0.01
Simulation CPU 0 panic: IPC 2.31e-05 < 0.01
Simulation CPU 0 panic: IPC 0.0017323 < 0.01
Simulation CPU 0 panic: IPC 0.0008731 < 0.01
Simulation CPU 0 panic: IPC 0.0003639 < 0.01
Simulation CPU 0 panic: IPC 0.0002037 < 0.01
Simulation CPU 0 panic: IPC 0.0004434 < 0.01
Simulation CPU 0 panic: IPC 0.0003872 < 0.01
Simulation CPU 0 panic: IPC 0.0010376 < 0.01
Simulation CPU 0 panic: IPC 0.0003176 < 0.01
Simulation CPU 0 panic: IPC 0.0002075 < 0.01
Simulation CPU 0 panic: IPC 0.001792 < 0.01
Simulation CPU 0 panic: IPC 0.0024222 < 0.01
Simulation CPU 0 panic: IPC 0.0010144 < 0.01
Simulation CPU 0 panic: IPC 0.0014461 < 0.01
Simulation CPU 0 panic: IPC 0.0032179 < 0.01
Simulation CPU 0 panic: IPC 0.0002517 < 0.01
Simulation CPU 0 panic: IPC 0.0011276 < 0.01
Simulation CPU 0 panic: IPC 0.0011061 < 0.01
Simulation CPU 0 panic: IPC 0.0001502 < 0.01
Simulation CPU 0 panic: IPC 0.0002236 < 0.01
Simulation CPU 0 panic: IPC 0.0005721 < 0.01
Simulation CPU 0 panic: IPC 0.0049299 < 0.01
Heartbeat CPU 0 instructions: 20000002 cycles: 5859623565 heartbeat IPC: 0.003991 cumulative IPC: 0.003413 (Simulation time: 08 hr 16 min 43 sec)
Simulation CPU 0 panic: IPC 2e-07 < 0.01
Simulation CPU 0 panic: IPC 1.3e-06 < 0.01
Simulation CPU 0 panic: IPC 4.5e-06 < 0.01
Simulation CPU 0 panic: IPC 1.2e-06 < 0.01
Simulation CPU 0 panic: IPC 2.5e-06 < 0.01
Simulation CPU 0 panic: IPC 1.2e-05 < 0.01
Simulation CPU 0 panic: IPC 1.1e-05 < 0.01
Simulation CPU 0 panic: IPC 4.6e-06 < 0.01
Simulation CPU 0 panic: IPC 5.1e-06 < 0.01
Simulation CPU 0 panic: IPC 6.8e-06 < 0.01
Simulation CPU 0 panic: IPC 8.7e-06 < 0.01
Simulation CPU 0 panic: IPC 1.12e-05 < 0.01
Simulation CPU 0 panic: IPC 1.8e-06 < 0.01
Simulation CPU 0 panic: IPC 1.66e-05 < 0.01
Simulation CPU 0 panic: IPC 8.7e-06 < 0.01
Simulation CPU 0 panic: IPC 4.3e-06 < 0.01
Simulation CPU 0 panic: IPC 1.51e-05 < 0.01
Simulation CPU 0 panic: IPC 1.39e-05 < 0.01
Simulation CPU 0 panic: IPC 8.9e-06 < 0.01
Simulation CPU 0 panic: IPC 1.04e-05 < 0.01
Simulation CPU 0 panic: IPC 2.33e-05 < 0.01
Simulation CPU 0 panic: IPC 7.1e-06 < 0.01
Simulation CPU 0 panic: IPC 3.09e-05 < 0.01
Simulation CPU 0 panic: IPC 3.95e-05 < 0.01
Simulation CPU 0 panic: IPC 1.71e-05 < 0.01
Simulation CPU 0 panic: IPC 6.8e-06 < 0.01
Simulation CPU 0 panic: IPC 3.7e-05 < 0.01
Simulation CPU 0 panic: IPC 2.14e-05 < 0.01
Simulation CPU 0 panic: IPC 4.3e-06 < 0.01
Simulation CPU 0 panic: IPC 2.76e-05 < 0.01
Simulation CPU 0 panic: IPC 7.9e-05 < 0.01
Simulation CPU 0 panic: IPC 4.05e-05 < 0.01
Simulation CPU 0 panic: IPC 7.17e-05 < 0.01
Simulation CPU 0 panic: IPC 3.55e-05 < 0.01
Simulation CPU 0 panic: IPC 5.04e-05 < 0.01
Simulation CPU 0 panic: IPC 3.5e-05 < 0.01
Simulation CPU 0 panic: IPC 1.1e-05 < 0.01
Simulation CPU 0 panic: IPC 2.94e-05 < 0.01
Simulation CPU 0 panic: IPC 3.97e-05 < 0.01
Simulation CPU 0 panic: IPC 0.000125 < 0.01
Simulation CPU 0 panic: IPC 1.17e-05 < 0.01
Simulation CPU 0 panic: IPC 3.17e-05 < 0.01
Simulation CPU 0 panic: IPC 0.0001939 < 0.01
Simulation CPU 0 panic: IPC 4.3e-06 < 0.01
Simulation CPU 0 panic: IPC 0.0001068 < 0.01
Simulation CPU 0 panic: IPC 4.11e-05 < 0.01
Simulation CPU 0 panic: IPC 0.0003488 < 0.01
Simulation CPU 0 panic: IPC 4.22e-05 < 0.01
Simulation CPU 0 panic: IPC 4.13e-05 < 0.01
Simulation CPU 0 panic: IPC 7.77e-05 < 0.01
Simulation CPU 0 panic: IPC 8.14e-05 < 0.01
Simulation CPU 0 panic: IPC 9.46e-05 < 0.01
Simulation CPU 0 panic: IPC 0.0001569 < 0.01
Simulation CPU 0 panic: IPC 1.96e-05 < 0.01
Simulation CPU 0 panic: IPC 0.0001126 < 0.01
Simulation CPU 0 panic: IPC 0.0001277 < 0.01
Simulation CPU 0 panic: IPC 8.51e-05 < 0.01
Simulation CPU 0 panic: IPC 0.0001768 < 0.01
Simulation CPU 0 panic: IPC 3.95e-05 < 0.01
Simulation CPU 0 panic: IPC 0.0001695 < 0.01
Simulation CPU 0 panic: IPC 0.0001111 < 0.01
Simulation CPU 0 panic: IPC 4.78e-05 < 0.01
Simulation CPU 0 panic: IPC 0.0001252 < 0.01
Simulation CPU 0 panic: IPC 0.0008467 < 0.01
Simulation CPU 0 panic: IPC 2.17e-05 < 0.01
Simulation CPU 0 panic: IPC 1.62e-05 < 0.01
Simulation CPU 0 panic: IPC 7.3e-05 < 0.01
Simulation CPU 0 panic: IPC 0.0002533 < 0.01
Simulation CPU 0 panic: IPC 0.0002499 < 0.01
Simulation CPU 0 panic: IPC 2.04e-05 < 0.01
Simulation CPU 0 panic: IPC 4.33e-05 < 0.01
Simulation CPU 0 panic: IPC 0.0001348 < 0.01
Simulation CPU 0 panic: IPC 7.92e-05 < 0.01
Simulation CPU 0 panic: IPC 8.1e-05 < 0.01
Simulation CPU 0 panic: IPC 2.71e-05 < 0.01
Simulation CPU 0 panic: IPC 0.0001528 < 0.01
Simulation CPU 0 panic: IPC 6.01e-05 < 0.01
Simulation CPU 0 panic: IPC 1.54e-05 < 0.01
Simulation CPU 0 panic: IPC 2.63e-05 < 0.01
Simulation CPU 0 panic: IPC 5.7e-06 < 0.01
Simulation CPU 0 panic: IPC 0.0001868 < 0.01
Simulation CPU 0 panic: IPC 2.55e-05 < 0.01
Simulation CPU 0 panic: IPC 1.31e-05 < 0.01
Simulation CPU 0 panic: IPC 0.0004005 < 0.01
Simulation CPU 0 panic: IPC 0.0001294 < 0.01
Simulation CPU 0 panic: IPC 7.55e-05 < 0.01
Simulation CPU 0 panic: IPC 0.00038 < 0.01
Simulation CPU 0 panic: IPC 5.57e-05 < 0.01
Simulation CPU 0 panic: IPC 0.0001974 < 0.01
Simulation CPU 0 panic: IPC 0.0005786 < 0.01
Simulation CPU 0 panic: IPC 9.4e-06 < 0.01
Simulation CPU 0 panic: IPC 1.19e-05 < 0.01
Simulation CPU 0 panic: IPC 0.0002427 < 0.01
Simulation CPU 0 panic: IPC 0.0002509 < 0.01
Simulation CPU 0 panic: IPC 5.56e-05 < 0.01
Simulation CPU 0 panic: IPC 0.0001706 < 0.01
Simulation CPU 0 panic: IPC 4.04e-05 < 0.01
Simulation CPU 0 panic: IPC 0.0001518 < 0.01
Simulation CPU 0 panic: IPC 0.0001326 < 0.01
Simulation CPU 0 panic: IPC 6.49e-05 < 0.01
Simulation CPU 0 panic: IPC 0.000194 < 0.01
Simulation CPU 0 panic: IPC 3.4e-05 < 0.01
Simulation CPU 0 panic: IPC 0.0005928 < 0.01
Simulation CPU 0 panic: IPC 0.0001694 < 0.01
Simulation CPU 0 panic: IPC 4.8e-05 < 0.01
Simulation CPU 0 panic: IPC 0.0001112 < 0.01
Simulation CPU 0 panic: IPC 6.21e-05 < 0.01
Simulation CPU 0 panic: IPC 0.0001095 < 0.01
Simulation CPU 0 panic: IPC 0.0001 < 0.01
Simulation CPU 0 panic: IPC 0.0001861 < 0.01
Simulation CPU 0 panic: IPC 0.0001314 < 0.01
Simulation CPU 0 panic: IPC 0.0002772 < 0.01
Simulation CPU 0 panic: IPC 0.0006487 < 0.01
Simulation CPU 0 panic: IPC 8.56e-05 < 0.01
Simulation CPU 0 panic: IPC 8.57e-05 < 0.01
Simulation CPU 0 panic: IPC 8.17e-05 < 0.01
Simulation CPU 0 panic: IPC 2.9e-05 < 0.01
Simulation CPU 0 panic: IPC 0.0001897 < 0.01
[ERROR_CYCLE] Error added at CPU cycle 7053240155, interval 1, pending count: 1
[DRAM_CYCLE_ERROR] Cycle-based error applied! address=0x60ecd4320 additional_latency=2459910500 cycles
Simulation CPU 0 panic: IPC 0 < 0.01
Simulation CPU 0 panic: IPC 2.61e-05 < 0.01
Simulation CPU 0 panic: IPC 1.86e-05 < 0.01
Simulation CPU 0 panic: IPC 3.14e-05 < 0.01
Simulation CPU 0 panic: IPC 8.29e-05 < 0.01
Simulation CPU 0 panic: IPC 0.0003039 < 0.01
Simulation CPU 0 panic: IPC 4.3e-05 < 0.01
Simulation CPU 0 panic: IPC 0.0003497 < 0.01
Simulation CPU 0 panic: IPC 0.0002626 < 0.01
Simulation CPU 0 panic: IPC 0.0002498 < 0.01
Simulation CPU 0 panic: IPC 0.000109 < 0.01
Simulation CPU 0 panic: IPC 0.0005098 < 0.01
Simulation CPU 0 panic: IPC 0.0002056 < 0.01
Simulation CPU 0 panic: IPC 9.7e-06 < 0.01
Simulation CPU 0 panic: IPC 5.89e-05 < 0.01
Simulation CPU 0 panic: IPC 0.0003568 < 0.01
Simulation CPU 0 panic: IPC 0.0001968 < 0.01
Simulation CPU 0 panic: IPC 0.0003042 < 0.01
Simulation CPU 0 panic: IPC 0.0001578 < 0.01
Simulation CPU 0 panic: IPC 0.0002683 < 0.01
Simulation CPU 0 panic: IPC 0.000135 < 0.01
Simulation CPU 0 panic: IPC 8.39e-05 < 0.01
Simulation CPU 0 panic: IPC 0.0003554 < 0.01
Simulation CPU 0 panic: IPC 0.0011507 < 0.01
Simulation CPU 0 panic: IPC 0.0003622 < 0.01
Simulation CPU 0 panic: IPC 0.0001338 < 0.01
Simulation CPU 0 panic: IPC 0.0002468 < 0.01
Simulation CPU 0 panic: IPC 0.000304 < 0.01
Simulation CPU 0 panic: IPC 1.71e-05 < 0.01
Simulation CPU 0 panic: IPC 5.51e-05 < 0.01
Simulation CPU 0 panic: IPC 2.9e-05 < 0.01
Simulation CPU 0 panic: IPC 0.0002507 < 0.01
Simulation CPU 0 panic: IPC 0.0005764 < 0.01
Simulation CPU 0 panic: IPC 1.04e-05 < 0.01
Simulation CPU 0 panic: IPC 3.87e-05 < 0.01
Simulation CPU 0 panic: IPC 0.00014 < 0.01
Simulation CPU 0 panic: IPC 4.4e-06 < 0.01
Simulation CPU 0 panic: IPC 0.0011559 < 0.01
Simulation CPU 0 panic: IPC 0.0002521 < 0.01
Simulation CPU 0 panic: IPC 0.0003425 < 0.01
Simulation CPU 0 panic: IPC 4.42e-05 < 0.01
Simulation CPU 0 panic: IPC 9.35e-05 < 0.01
Simulation CPU 0 panic: IPC 6.83e-05 < 0.01
Simulation CPU 0 panic: IPC 0.0001484 < 0.01
Simulation CPU 0 panic: IPC 0.0002789 < 0.01
Simulation CPU 0 panic: IPC 0.0001228 < 0.01
Simulation CPU 0 panic: IPC 1.46e-05 < 0.01
Simulation CPU 0 panic: IPC 0.0001518 < 0.01
Simulation CPU 0 panic: IPC 0.0001631 < 0.01
Simulation CPU 0 panic: IPC 0.0001727 < 0.01
Simulation CPU 0 panic: IPC 0.0003224 < 0.01
Simulation CPU 0 panic: IPC 9.1e-06 < 0.01
Simulation CPU 0 panic: IPC 4.28e-05 < 0.01
Simulation CPU 0 panic: IPC 0.0004744 < 0.01
Simulation CPU 0 panic: IPC 0.0006959 < 0.01
Simulation CPU 0 panic: IPC 0.0001137 < 0.01
Simulation CPU 0 panic: IPC 0.0007744 < 0.01
Simulation CPU 0 panic: IPC 1.05e-05 < 0.01
Simulation CPU 0 panic: IPC 0.0007276 < 0.01
Simulation CPU 0 panic: IPC 4.4e-06 < 0.01
Simulation CPU 0 panic: IPC 0.0005376 < 0.01
Simulation CPU 0 panic: IPC 2.88e-05 < 0.01
Simulation CPU 0 panic: IPC 0.0004702 < 0.01
Simulation CPU 0 panic: IPC 9.84e-05 < 0.01
Simulation CPU 0 panic: IPC 0.0002854 < 0.01
Simulation CPU 0 panic: IPC 0.0001352 < 0.01
Simulation CPU 0 panic: IPC 1.11e-05 < 0.01
Simulation CPU 0 panic: IPC 0.000379 < 0.01
Simulation CPU 0 panic: IPC 8.5e-06 < 0.01
Simulation CPU 0 panic: IPC 0.0003148 < 0.01
Simulation CPU 0 panic: IPC 0.0003887 < 0.01
Simulation CPU 0 panic: IPC 0.0003474 < 0.01
Simulation CPU 0 panic: IPC 4.3e-06 < 0.01
Simulation CPU 0 panic: IPC 0.000223 < 0.01
Simulation CPU 0 panic: IPC 5.58e-05 < 0.01
Simulation CPU 0 panic: IPC 0.0001658 < 0.01
Simulation CPU 0 panic: IPC 0.0001228 < 0.01
Simulation CPU 0 panic: IPC 0.0006092 < 0.01
Simulation CPU 0 panic: IPC 0.0006614 < 0.01
Simulation CPU 0 panic: IPC 5.65e-05 < 0.01
Simulation CPU 0 panic: IPC 9.89e-05 < 0.01
Simulation CPU 0 panic: IPC 0.0004831 < 0.01
Simulation CPU 0 panic: IPC 2.11e-05 < 0.01
Simulation CPU 0 panic: IPC 0.000197 < 0.01
Simulation CPU 0 panic: IPC 2.19e-05 < 0.01
Simulation CPU 0 panic: IPC 0.0008169 < 0.01
Simulation CPU 0 panic: IPC 0.0008844 < 0.01
Simulation CPU 0 panic: IPC 0.0001471 < 0.01
Simulation CPU 0 panic: IPC 8.91e-05 < 0.01
Simulation CPU 0 panic: IPC 6.78e-05 < 0.01
Simulation CPU 0 panic: IPC 0.000334 < 0.01
Simulation CPU 0 panic: IPC 0.0002733 < 0.01
Simulation CPU 0 panic: IPC 0.000229 < 0.01
Simulation CPU 0 panic: IPC 0.0001639 < 0.01
Simulation CPU 0 panic: IPC 1.53e-05 < 0.01
Simulation CPU 0 panic: IPC 3.57e-05 < 0.01
Simulation CPU 0 panic: IPC 5.28e-05 < 0.01
Simulation CPU 0 panic: IPC 0.0001181 < 0.01
Simulation CPU 0 panic: IPC 7.77e-05 < 0.01
Simulation CPU 0 panic: IPC 6.23e-05 < 0.01
Simulation CPU 0 panic: IPC 0.0004393 < 0.01
Simulation CPU 0 panic: IPC 5.1e-06 < 0.01
Simulation CPU 0 panic: IPC 8.9e-05 < 0.01
Simulation CPU 0 panic: IPC 0.0002086 < 0.01
Simulation CPU 0 panic: IPC 0.00029 < 0.01
Simulation CPU 0 panic: IPC 1.76e-05 < 0.01
Simulation CPU 0 panic: IPC 0.0003894 < 0.01
Simulation CPU 0 panic: IPC 4.15e-05 < 0.01
Simulation CPU 0 panic: IPC 8.53e-05 < 0.01
Simulation CPU 0 panic: IPC 1.94e-05 < 0.01
Simulation CPU 0 panic: IPC 7.81e-05 < 0.01
Simulation CPU 0 panic: IPC 0.0001928 < 0.01
Simulation CPU 0 panic: IPC 4.21e-05 < 0.01
Simulation CPU 0 panic: IPC 1.76e-05 < 0.01
Simulation CPU 0 panic: IPC 1.07e-05 < 0.01
Simulation CPU 0 panic: IPC 4.17e-05 < 0.01
Simulation CPU 0 panic: IPC 1.53e-05 < 0.01
Simulation CPU 0 panic: IPC 0.0003122 < 0.01
Simulation CPU 0 panic: IPC 0.000202 < 0.01
Simulation CPU 0 panic: IPC 5.1e-06 < 0.01
Simulation CPU 0 panic: IPC 6.38e-05 < 0.01
Simulation CPU 0 panic: IPC 0.0004373 < 0.01
Simulation CPU 0 panic: IPC 0.0001486 < 0.01
Simulation CPU 0 panic: IPC 0.0002091 < 0.01
Simulation CPU 0 panic: IPC 0.0001072 < 0.01
Simulation CPU 0 panic: IPC 0.0001429 < 0.01
Simulation CPU 0 panic: IPC 8.17e-05 < 0.01
Simulation CPU 0 panic: IPC 2.1e-05 < 0.01
Simulation CPU 0 panic: IPC 0.0003139 < 0.01
Simulation CPU 0 panic: IPC 0.0001264 < 0.01
Simulation CPU 0 panic: IPC 0.0006449 < 0.01
Simulation CPU 0 panic: IPC 0.0001074 < 0.01
Simulation CPU 0 panic: IPC 0.0001296 < 0.01
Simulation CPU 0 panic: IPC 6.27e-05 < 0.01
Simulation CPU 0 panic: IPC 2.46e-05 < 0.01
Simulation CPU 0 panic: IPC 0.00022 < 0.01
Simulation CPU 0 panic: IPC 0.0008485 < 0.01
Simulation CPU 0 panic: IPC 0.0002906 < 0.01
Simulation CPU 0 panic: IPC 0.0001656 < 0.01
Simulation CPU 0 panic: IPC 0.0001319 < 0.01
Simulation CPU 0 panic: IPC 0.0002867 < 0.01
Simulation CPU 0 panic: IPC 0.000108 < 0.01
Simulation CPU 0 panic: IPC 0.0003691 < 0.01
Simulation CPU 0 panic: IPC 0.0003023 < 0.01
Simulation CPU 0 panic: IPC 0.0002531 < 0.01
Simulation CPU 0 panic: IPC 9.06e-05 < 0.01
Simulation CPU 0 panic: IPC 3.13e-05 < 0.01
Simulation CPU 0 panic: IPC 0.0005034 < 0.01
Simulation CPU 0 panic: IPC 3.01e-05 < 0.01
Simulation CPU 0 panic: IPC 0.0011624 < 0.01
Simulation CPU 0 panic: IPC 0.0004178 < 0.01
Simulation CPU 0 panic: IPC 0.0004944 < 0.01
Simulation CPU 0 panic: IPC 0.0001229 < 0.01
Simulation CPU 0 panic: IPC 0.0007805 < 0.01
Simulation CPU 0 panic: IPC 9.49e-05 < 0.01
Simulation CPU 0 panic: IPC 0.0002816 < 0.01
Simulation CPU 0 panic: IPC 2.1e-06 < 0.01
Simulation CPU 0 panic: IPC 0.0002647 < 0.01
Simulation CPU 0 panic: IPC 9.12e-05 < 0.01
Simulation CPU 0 panic: IPC 0.0004271 < 0.01
Simulation CPU 0 panic: IPC 6.08e-05 < 0.01
Simulation CPU 0 panic: IPC 0.0001186 < 0.01
Simulation CPU 0 panic: IPC 0.0001622 < 0.01
Simulation CPU 0 panic: IPC 0.000209 < 0.01
Simulation CPU 0 panic: IPC 0.0001247 < 0.01
Simulation CPU 0 panic: IPC 4.03e-05 < 0.01
Simulation CPU 0 panic: IPC 2.24e-05 < 0.01
Simulation CPU 0 panic: IPC 0.000262 < 0.01
Simulation CPU 0 panic: IPC 3.53e-05 < 0.01
Simulation CPU 0 panic: IPC 0.000102 < 0.01
Simulation CPU 0 panic: IPC 0.0001811 < 0.01
Simulation CPU 0 panic: IPC 4.36e-05 < 0.01
Simulation CPU 0 panic: IPC 0.0005 < 0.01
Simulation CPU 0 panic: IPC 0.0002208 < 0.01
Simulation CPU 0 panic: IPC 0.0006199 < 0.01
Simulation CPU 0 panic: IPC 2.53e-05 < 0.01
Simulation CPU 0 panic: IPC 0.0001688 < 0.01
Simulation CPU 0 panic: IPC 0.0007948 < 0.01
Simulation CPU 0 panic: IPC 0.0002768 < 0.01
Simulation CPU 0 panic: IPC 8.6e-06 < 0.01
Simulation CPU 0 panic: IPC 0.0003499 < 0.01
Simulation CPU 0 panic: IPC 0.000323 < 0.01
Simulation CPU 0 panic: IPC 7.77e-05 < 0.01
Simulation CPU 0 panic: IPC 5.61e-05 < 0.01
Simulation CPU 0 panic: IPC 0.0002608 < 0.01
Simulation CPU 0 panic: IPC 7.46e-05 < 0.01
Simulation CPU 0 panic: IPC 0.0002379 < 0.01
Simulation CPU 0 panic: IPC 0.0001566 < 0.01
Simulation CPU 0 panic: IPC 1.14e-05 < 0.01
Simulation CPU 0 panic: IPC 0.0001794 < 0.01
Simulation CPU 0 panic: IPC 0.0003136 < 0.01
Simulation CPU 0 panic: IPC 0.0005114 < 0.01
Simulation CPU 0 panic: IPC 0.0001045 < 0.01
Simulation CPU 0 panic: IPC 0.0007922 < 0.01
Simulation CPU 0 panic: IPC 0.000485 < 0.01
Simulation CPU 0 panic: IPC 0.0002233 < 0.01
Simulation CPU 0 panic: IPC 0.0002474 < 0.01
Simulation CPU 0 panic: IPC 0.0001173 < 0.01
Simulation CPU 0 panic: IPC 1.81e-05 < 0.01
Simulation CPU 0 panic: IPC 0.0002717 < 0.01
Simulation CPU 0 panic: IPC 0.0002939 < 0.01
Simulation CPU 0 panic: IPC 4e-05 < 0.01
Simulation CPU 0 panic: IPC 6.4e-06 < 0.01
Simulation CPU 0 panic: IPC 0.0012433 < 0.01
Simulation CPU 0 panic: IPC 0.000125 < 0.01
Simulation CPU 0 panic: IPC 4.38e-05 < 0.01
Simulation CPU 0 panic: IPC 0.0006427 < 0.01
Simulation CPU 0 panic: IPC 6.99e-05 < 0.01
Simulation CPU 0 panic: IPC 0.0002371 < 0.01
Simulation CPU 0 panic: IPC 8.97e-05 < 0.01
Simulation CPU 0 panic: IPC 0.0002711 < 0.01
Simulation CPU 0 panic: IPC 0.0005678 < 0.01
Simulation CPU 0 panic: IPC 0.0002065 < 0.01
Simulation CPU 0 panic: IPC 0.0001829 < 0.01
Simulation CPU 0 panic: IPC 0.0001029 < 0.01
Simulation CPU 0 panic: IPC 3.13e-05 < 0.01
Simulation CPU 0 panic: IPC 4.35e-05 < 0.01
Simulation CPU 0 panic: IPC 0.000262 < 0.01
Simulation CPU 0 panic: IPC 0.000339 < 0.01
Simulation CPU 0 panic: IPC 0.0001928 < 0.01
Simulation CPU 0 panic: IPC 0.000647 < 0.01
Simulation CPU 0 panic: IPC 0.0003275 < 0.01
Simulation CPU 0 panic: IPC 7.3e-05 < 0.01
Simulation CPU 0 panic: IPC 0.0001096 < 0.01
Simulation CPU 0 panic: IPC 0.0002002 < 0.01
Simulation CPU 0 panic: IPC 0.0001027 < 0.01
Simulation CPU 0 panic: IPC 3.77e-05 < 0.01
Simulation CPU 0 panic: IPC 7.95e-05 < 0.01
Simulation CPU 0 panic: IPC 3.04e-05 < 0.01
Simulation CPU 0 panic: IPC 0.0003393 < 0.01
Simulation CPU 0 panic: IPC 0.0001866 < 0.01
Simulation CPU 0 panic: IPC 0.0003179 < 0.01
Simulation CPU 0 panic: IPC 0.0002887 < 0.01
Simulation CPU 0 panic: IPC 0.000205 < 0.01
Simulation CPU 0 panic: IPC 2.87e-05 < 0.01
Simulation CPU 0 panic: IPC 6.03e-05 < 0.01
Simulation CPU 0 panic: IPC 0.0002131 < 0.01
Simulation CPU 0 panic: IPC 0.0002862 < 0.01
Simulation CPU 0 panic: IPC 3.92e-05 < 0.01
Simulation CPU 0 panic: IPC 3.46e-05 < 0.01
Simulation CPU 0 panic: IPC 0.0002005 < 0.01
Simulation CPU 0 panic: IPC 0.0005747 < 0.01
Simulation CPU 0 panic: IPC 0.0001108 < 0.01
Simulation CPU 0 panic: IPC 0.0001899 < 0.01
Simulation CPU 0 panic: IPC 0.000147 < 0.01
Simulation CPU 0 panic: IPC 0.0002102 < 0.01
Simulation CPU 0 panic: IPC 0.0002241 < 0.01
Simulation CPU 0 panic: IPC 0.0004685 < 0.01
Simulation CPU 0 panic: IPC 0.0001088 < 0.01
Simulation CPU 0 panic: IPC 0.0002746 < 0.01
Simulation CPU 0 panic: IPC 5.02e-05 < 0.01
Simulation CPU 0 panic: IPC 9.95e-05 < 0.01
Simulation CPU 0 panic: IPC 4.41e-05 < 0.01
Simulation CPU 0 panic: IPC 0.0004499 < 0.01
Simulation CPU 0 panic: IPC 0.0001355 < 0.01
Simulation CPU 0 panic: IPC 0.0003783 < 0.01
Simulation CPU 0 panic: IPC 5.91e-05 < 0.01
Simulation CPU 0 panic: IPC 0.0005729 < 0.01
Simulation CPU 0 panic: IPC 5.59e-05 < 0.01
Simulation CPU 0 panic: IPC 1.87e-05 < 0.01
Simulation CPU 0 panic: IPC 0.0001355 < 0.01
Simulation CPU 0 panic: IPC 8.82e-05 < 0.01
Simulation CPU 0 panic: IPC 0.0006069 < 0.01
Simulation CPU 0 panic: IPC 2.18e-05 < 0.01
Simulation CPU 0 panic: IPC 0.0002503 < 0.01
Simulation CPU 0 panic: IPC 0.0002295 < 0.01
Simulation CPU 0 panic: IPC 0.0007559 < 0.01
Simulation CPU 0 panic: IPC 0.0004173 < 0.01
Simulation CPU 0 panic: IPC 3.09e-05 < 0.01
Simulation CPU 0 panic: IPC 0.0008507 < 0.01
Simulation CPU 0 panic: IPC 0.0001961 < 0.01
Simulation CPU 0 panic: IPC 2.97e-05 < 0.01
Simulation CPU 0 panic: IPC 0.0008716 < 0.01
Simulation CPU 0 panic: IPC 0.0004794 < 0.01
Simulation CPU 0 panic: IPC 2.82e-05 < 0.01
Simulation CPU 0 panic: IPC 0.0003551 < 0.01
Simulation CPU 0 panic: IPC 2.44e-05 < 0.01
Simulation CPU 0 panic: IPC 0.0018517 < 0.01
Simulation CPU 0 panic: IPC 0.0012597 < 0.01
Simulation CPU 0 panic: IPC 0.0004452 < 0.01
Simulation CPU 0 panic: IPC 0.0001906 < 0.01
Simulation CPU 0 panic: IPC 0.0003783 < 0.01
Simulation CPU 0 panic: IPC 0.0004302 < 0.01
Simulation CPU 0 panic: IPC 2.3e-06 < 0.01
Simulation CPU 0 panic: IPC 0.0002825 < 0.01
Simulation CPU 0 panic: IPC 7.46e-05 < 0.01
Simulation CPU 0 panic: IPC 4.15e-05 < 0.01
Simulation CPU 0 panic: IPC 6.1e-06 < 0.01
Simulation CPU 0 panic: IPC 0.0004331 < 0.01
Simulation CPU 0 panic: IPC 6.17e-05 < 0.01
Simulation CPU 0 panic: IPC 0.0001894 < 0.01
Simulation CPU 0 panic: IPC 0.0002855 < 0.01
Simulation CPU 0 panic: IPC 0.0001729 < 0.01
Simulation CPU 0 panic: IPC 0.0002951 < 0.01
Simulation CPU 0 panic: IPC 4.1e-05 < 0.01
Simulation CPU 0 panic: IPC 9.01e-05 < 0.01
Simulation CPU 0 panic: IPC 4.96e-05 < 0.01
Simulation CPU 0 panic: IPC 5.58e-05 < 0.01
Simulation CPU 0 panic: IPC 0.0003167 < 0.01
Simulation CPU 0 panic: IPC 0.0002774 < 0.01
Simulation CPU 0 panic: IPC 0.0002782 < 0.01
Simulation CPU 0 panic: IPC 3.43e-05 < 0.01
Simulation CPU 0 panic: IPC 8.24e-05 < 0.01
Simulation CPU 0 panic: IPC 0.0007259 < 0.01
Simulation CPU 0 panic: IPC 0.0003604 < 0.01
Simulation CPU 0 panic: IPC 1.56e-05 < 0.01
Simulation CPU 0 panic: IPC 0.0001762 < 0.01
Simulation CPU 0 panic: IPC 0.0002859 < 0.01
Simulation CPU 0 panic: IPC 0.0010916 < 0.01
Simulation CPU 0 panic: IPC 0.001065 < 0.01
Simulation CPU 0 panic: IPC 1.8e-06 < 0.01
Simulation CPU 0 panic: IPC 0.0011213 < 0.01
Simulation CPU 0 panic: IPC 0.0002427 < 0.01
Simulation CPU 0 panic: IPC 0.0005411 < 0.01
Simulation CPU 0 panic: IPC 0.0003029 < 0.01
Simulation CPU 0 panic: IPC 0.0001096 < 0.01
Simulation CPU 0 panic: IPC 0.0004023 < 0.01
Simulation CPU 0 panic: IPC 0.0005972 < 0.01
Simulation CPU 0 panic: IPC 8.07e-05 < 0.01
Simulation CPU 0 panic: IPC 0.0003685 < 0.01
Simulation CPU 0 panic: IPC 0.0001653 < 0.01
Simulation CPU 0 panic: IPC 0.0008265 < 0.01
Simulation CPU 0 panic: IPC 0.001385 < 0.01
Simulation CPU 0 panic: IPC 8.43e-05 < 0.01
Simulation CPU 0 panic: IPC 0.0012837 < 0.01
Simulation CPU 0 panic: IPC 0.0018117 < 0.01
Simulation CPU 0 panic: IPC 2.33e-05 < 0.01
Simulation CPU 0 panic: IPC 0.001022 < 0.01
Simulation CPU 0 panic: IPC 0.0008945 < 0.01
Simulation CPU 0 panic: IPC 9.55e-05 < 0.01
Simulation CPU 0 panic: IPC 0.0011197 < 0.01
Heartbeat CPU 0 instructions: 30000002 cycles: 10372271479 heartbeat IPC: 0.002216 cumulative IPC: 0.002892 (Simulation time: 14 hr 09 min 43 sec)
Heartbeat CPU 0 instructions: 40000005 cycles: 10382427357 heartbeat IPC: 0.9847 cumulative IPC: 0.003853 (Simulation time: 14 hr 10 min 36 sec)
Simulation CPU 0 panic: IPC 1.09e-05 < 0.01
Simulation CPU 0 panic: IPC 0.0002232 < 0.01
Simulation CPU 0 panic: IPC 0.0001449 < 0.01
Simulation CPU 0 panic: IPC 0.0005373 < 0.01
Simulation CPU 0 panic: IPC 0.000802 < 0.01
Simulation CPU 0 panic: IPC 0.0018511 < 0.01
Simulation CPU 0 panic: IPC 0.0006917 < 0.01
Simulation CPU 0 panic: IPC 0.0043945 < 0.01
Simulation CPU 0 panic: IPC 0.0001536 < 0.01
Simulation CPU 0 panic: IPC 0.0001136 < 0.01
Simulation CPU 0 panic: IPC 0.001236 < 0.01
Simulation CPU 0 panic: IPC 0.0011719 < 0.01
Simulation CPU 0 panic: IPC 0.0008616 < 0.01
Simulation CPU 0 panic: IPC 0.0004781 < 0.01
Simulation CPU 0 panic: IPC 0.0003362 < 0.01
Simulation CPU 0 panic: IPC 0.0004577 < 0.01
Simulation CPU 0 panic: IPC 0.0014182 < 0.01
Simulation CPU 0 panic: IPC 0.003327 < 0.01
Simulation CPU 0 panic: IPC 0.0042695 < 0.01
Simulation CPU 0 panic: IPC 0.0004507 < 0.01
Simulation CPU 0 panic: IPC 0.0039655 < 0.01
Simulation CPU 0 panic: IPC 0.0001885 < 0.01
Simulation CPU 0 panic: IPC 0.0010644 < 0.01
Simulation CPU 0 panic: IPC 0.0027768 < 0.01
Simulation CPU 0 panic: IPC 0.0009948 < 0.01
Simulation CPU 0 panic: IPC 0.0002379 < 0.01
Simulation CPU 0 panic: IPC 0.0038665 < 0.01
Simulation CPU 0 panic: IPC 8.26e-05 < 0.01
Simulation CPU 0 panic: IPC 0.002507 < 0.01
Simulation CPU 0 panic: IPC 0.0040519 < 0.01
Simulation CPU 0 panic: IPC 0.0036955 < 0.01
Simulation CPU 0 panic: IPC 0.0023399 < 0.01
Simulation CPU 0 panic: IPC 0.006483 < 0.01
Simulation CPU 0 panic: IPC 0.000954 < 0.01
Simulation CPU 0 panic: IPC 0.0009652 < 0.01
Simulation CPU 0 panic: IPC 0.0014659 < 0.01
Simulation CPU 0 panic: IPC 0.0016552 < 0.01
Simulation CPU 0 panic: IPC 0.0012115 < 0.01
Simulation CPU 0 panic: IPC 0.0019959 < 0.01
Simulation CPU 0 panic: IPC 0.0013098 < 0.01
Simulation CPU 0 panic: IPC 0.0041551 < 0.01
Simulation CPU 0 panic: IPC 0.0025454 < 0.01
Simulation CPU 0 panic: IPC 0.0017551 < 0.01
Simulation CPU 0 panic: IPC 0.0009659 < 0.01
Simulation CPU 0 critical: IPC 0.011097 < 0.02
Simulation CPU 0 panic: IPC 0.001022 < 0.01
Simulation CPU 0 panic: IPC 0.0005779 < 0.01
Simulation CPU 0 panic: IPC 0.0023576 < 0.01
Simulation CPU 0 panic: IPC 0.0058939 < 0.01
Simulation CPU 0 panic: IPC 0.0009893 < 0.01
Simulation CPU 0 panic: IPC 0.0005063 < 0.01
Simulation CPU 0 panic: IPC 0.005345 < 0.01
Simulation CPU 0 panic: IPC 0.0016333 < 0.01
Simulation CPU 0 panic: IPC 0.0038256 < 0.01
Simulation CPU 0 panic: IPC 0.0008069 < 0.01
Simulation CPU 0 panic: IPC 0.0005036 < 0.01
Simulation CPU 0 panic: IPC 0.000706 < 0.01
Simulation CPU 0 panic: IPC 0.002116 < 0.01
Simulation CPU 0 panic: IPC 0.0039969 < 0.01
Simulation CPU 0 panic: IPC 0.0004757 < 0.01
Simulation CPU 0 panic: IPC 0.004217 < 0.01
Simulation CPU 0 panic: IPC 0.0035931 < 0.01
Simulation CPU 0 panic: IPC 0.0014995 < 0.01
Simulation CPU 0 panic: IPC 0.0018213 < 0.01
Simulation CPU 0 panic: IPC 0.0002664 < 0.01
Simulation CPU 0 panic: IPC 0.0019407 < 0.01
Simulation CPU 0 panic: IPC 0.0026608 < 0.01
Simulation CPU 0 panic: IPC 0.0018177 < 0.01
Simulation CPU 0 panic: IPC 0.0039653 < 0.01
Simulation CPU 0 panic: IPC 0.0035213 < 0.01
Simulation CPU 0 panic: IPC 0.0009275 < 0.01
Simulation CPU 0 panic: IPC 0.0025717 < 0.01
Simulation CPU 0 panic: IPC 0.0001925 < 0.01
Simulation CPU 0 panic: IPC 0.004238 < 0.01
Simulation CPU 0 panic: IPC 0.0004441 < 0.01
Simulation CPU 0 panic: IPC 0.0049101 < 0.01
Simulation CPU 0 panic: IPC 0.0033325 < 0.01
Simulation CPU 0 panic: IPC 0.0013515 < 0.01
Simulation CPU 0 panic: IPC 0.0043376 < 0.01
Simulation CPU 0 panic: IPC 0.0024248 < 0.01
Simulation CPU 0 panic: IPC 0.0055995 < 0.01
Simulation CPU 0 panic: IPC 0.0002012 < 0.01
Simulation CPU 0 panic: IPC 0.0060398 < 0.01
Simulation CPU 0 panic: IPC 0.0002445 < 0.01
Simulation CPU 0 panic: IPC 0.0001638 < 0.01
Simulation CPU 0 panic: IPC 0.0013849 < 0.01
Simulation CPU 0 panic: IPC 0.0006916 < 0.01
Simulation CPU 0 panic: IPC 0.0008969 < 0.01
Simulation CPU 0 panic: IPC 0.0058898 < 0.01
Simulation CPU 0 panic: IPC 0.003198 < 0.01
Simulation CPU 0 panic: IPC 0.0032643 < 0.01
Simulation CPU 0 panic: IPC 0.0010527 < 0.01
Simulation CPU 0 panic: IPC 0.0037237 < 0.01
Simulation CPU 0 panic: IPC 0.0018712 < 0.01
Simulation CPU 0 panic: IPC 0.0001619 < 0.01
Simulation CPU 0 panic: IPC 0.0002635 < 0.01
Simulation CPU 0 panic: IPC 0.0027166 < 0.01
Simulation CPU 0 panic: IPC 0.0001772 < 0.01
Simulation CPU 0 panic: IPC 0.0011788 < 0.01
Simulation CPU 0 panic: IPC 0.0005091 < 0.01
Simulation CPU 0 panic: IPC 7.05e-05 < 0.01
Simulation CPU 0 panic: IPC 0.0001396 < 0.01
Simulation CPU 0 panic: IPC 0.0016226 < 0.01
Simulation CPU 0 panic: IPC 0.0023876 < 0.01
Simulation CPU 0 panic: IPC 9.71e-05 < 0.01
Simulation CPU 0 panic: IPC 0.0049168 < 0.01
Simulation CPU 0 critical: IPC 0.011131 < 0.02
Simulation CPU 0 panic: IPC 0.0021724 < 0.01
Simulation CPU 0 panic: IPC 0.0020781 < 0.01
Simulation CPU 0 panic: IPC 0.0003764 < 0.01
Simulation CPU 0 panic: IPC 0.0047292 < 0.01
Simulation CPU 0 panic: IPC 0.000702 < 0.01
Simulation CPU 0 panic: IPC 0.0047868 < 0.01
Simulation CPU 0 panic: IPC 0.0002701 < 0.01
Simulation CPU 0 panic: IPC 0.0024955 < 0.01
Simulation CPU 0 panic: IPC 0.0006319 < 0.01
Simulation CPU 0 panic: IPC 0.0038167 < 0.01
Simulation CPU 0 panic: IPC 0.0027538 < 0.01
Simulation CPU 0 panic: IPC 0.0061571 < 0.01
Simulation CPU 0 panic: IPC 0.0030732 < 0.01
Simulation CPU 0 panic: IPC 0.0003776 < 0.01
Simulation CPU 0 panic: IPC 0.0033511 < 0.01
Simulation CPU 0 panic: IPC 0.0086842 < 0.01
Simulation CPU 0 panic: IPC 0.0008329 < 0.01
Simulation CPU 0 panic: IPC 0.0063675 < 0.01
Simulation CPU 0 panic: IPC 0.0010047 < 0.01
Simulation CPU 0 panic: IPC 0.0008566 < 0.01
Simulation CPU 0 panic: IPC 0.0005742 < 0.01
Simulation CPU 0 panic: IPC 0.00121 < 0.01
Simulation CPU 0 panic: IPC 0.001071 < 0.01
Simulation CPU 0 panic: IPC 0.0028446 < 0.01
Simulation CPU 0 panic: IPC 0.0017474 < 0.01
Simulation CPU 0 panic: IPC 0.0079496 < 0.01
Simulation CPU 0 panic: IPC 0.0019742 < 0.01
Simulation CPU 0 panic: IPC 0.0017838 < 0.01
Simulation CPU 0 panic: IPC 0.0018997 < 0.01
Simulation CPU 0 panic: IPC 0.0017735 < 0.01
Simulation CPU 0 panic: IPC 0.001565 < 0.01
Simulation CPU 0 panic: IPC 0.002997 < 0.01
Simulation CPU 0 panic: IPC 0.0002374 < 0.01
Simulation CPU 0 panic: IPC 0.0023981 < 0.01
Simulation CPU 0 panic: IPC 0.0010499 < 0.01
Simulation CPU 0 panic: IPC 0.0026072 < 0.01
Simulation CPU 0 panic: IPC 0.0010872 < 0.01
Simulation CPU 0 panic: IPC 0.0018779 < 0.01
Simulation CPU 0 panic: IPC 0.0005511 < 0.01
Simulation CPU 0 panic: IPC 0.0070207 < 0.01
Simulation CPU 0 panic: IPC 0.0021942 < 0.01
Simulation CPU 0 panic: IPC 1.18e-05 < 0.01
Simulation CPU 0 panic: IPC 0.0005595 < 0.01
Simulation CPU 0 panic: IPC 0.0007938 < 0.01
Simulation CPU 0 panic: IPC 0.0009042 < 0.01
Simulation CPU 0 panic: IPC 0.0005772 < 0.01
Simulation CPU 0 panic: IPC 0.0006617 < 0.01
Simulation CPU 0 panic: IPC 0.0056233 < 0.01
Simulation CPU 0 panic: IPC 0.0024556 < 0.01
Simulation CPU 0 panic: IPC 0.0009825 < 0.01
Simulation CPU 0 panic: IPC 0.0013106 < 0.01
Simulation CPU 0 panic: IPC 0.0001617 < 0.01
Simulation CPU 0 panic: IPC 0.0016575 < 0.01
Simulation CPU 0 panic: IPC 0.004623 < 0.01
Simulation CPU 0 panic: IPC 0.0012968 < 0.01
Simulation CPU 0 panic: IPC 0.0006322 < 0.01
Simulation CPU 0 panic: IPC 0.0006884 < 0.01
Simulation CPU 0 panic: IPC 0.001009 < 0.01
Simulation CPU 0 panic: IPC 0.0038769 < 0.01
Simulation CPU 0 panic: IPC 0.0007594 < 0.01
Simulation CPU 0 panic: IPC 0.0019421 < 0.01
Simulation CPU 0 panic: IPC 0.0006368 < 0.01
Simulation CPU 0 panic: IPC 0.0012415 < 0.01
Simulation CPU 0 panic: IPC 0.0062068 < 0.01
Simulation CPU 0 panic: IPC 0.0053697 < 0.01
Simulation CPU 0 panic: IPC 2.92e-05 < 0.01
Simulation CPU 0 panic: IPC 0.00192 < 0.01
Simulation CPU 0 panic: IPC 0.001401 < 0.01
Simulation CPU 0 panic: IPC 0.0014887 < 0.01
Simulation CPU 0 panic: IPC 0.0036257 < 0.01
Simulation CPU 0 panic: IPC 0.0005362 < 0.01
Simulation CPU 0 panic: IPC 0.0007185 < 0.01
Simulation CPU 0 panic: IPC 0.0031278 < 0.01
Simulation CPU 0 panic: IPC 0.0001112 < 0.01
Simulation CPU 0 panic: IPC 0.0063878 < 0.01
Simulation CPU 0 panic: IPC 0.0020873 < 0.01
Simulation CPU 0 panic: IPC 0.0009473 < 0.01
Simulation CPU 0 panic: IPC 0.0027472 < 0.01
Simulation CPU 0 panic: IPC 0.0023522 < 0.01
Simulation CPU 0 panic: IPC 0.0009493 < 0.01
Simulation CPU 0 panic: IPC 0.001148 < 0.01
Simulation CPU 0 panic: IPC 0.0028933 < 0.01
Simulation CPU 0 panic: IPC 0.0055791 < 0.01
Simulation CPU 0 warning: IPC 0.046213 < 0.05
Heartbeat CPU 0 instructions: 50000005 cycles: 12310872212 heartbeat IPC: 0.005186 cumulative IPC: 0.004061 (Simulation time: 16 hr 50 min 12 sec)
Heartbeat CPU 0 instructions: 60000005 cycles: 12325870458 heartbeat IPC: 0.6667 cumulative IPC: 0.004868 (Simulation time: 16 hr 51 min 31 sec)
Heartbeat CPU 0 instructions: 70000005 cycles: 12341510674 heartbeat IPC: 0.6394 cumulative IPC: 0.005672 (Simulation time: 16 hr 53 min 01 sec)
Heartbeat CPU 0 instructions: 80000007 cycles: 12351295648 heartbeat IPC: 1.022 cumulative IPC: 0.006477 (Simulation time: 16 hr 53 min 57 sec)
Heartbeat CPU 0 instructions: 90000007 cycles: 12361656414 heartbeat IPC: 0.9652 cumulative IPC: 0.007281 (Simulation time: 16 hr 54 min 55 sec)
Heartbeat CPU 0 instructions: 100000007 cycles: 12370920539 heartbeat IPC: 1.079 cumulative IPC: 0.008083 (Simulation time: 16 hr 55 min 41 sec)
Heartbeat CPU 0 instructions: 110000007 cycles: 12390524849 heartbeat IPC: 0.5101 cumulative IPC: 0.008878 (Simulation time: 16 hr 57 min 04 sec)
Heartbeat CPU 0 instructions: 120000009 cycles: 12403926505 heartbeat IPC: 0.7462 cumulative IPC: 0.009674 (Simulation time: 16 hr 58 min 06 sec)
Heartbeat CPU 0 instructions: 130000011 cycles: 12414501821 heartbeat IPC: 0.9456 cumulative IPC: 0.01047 (Simulation time: 16 hr 58 min 58 sec)
Simulation CPU 0 critical: IPC 0.017236 < 0.02
Simulation CPU 0 panic: IPC 0.0020877 < 0.01
Simulation CPU 0 panic: IPC 0.0002275 < 0.01
Simulation CPU 0 warning: IPC 0.03943 < 0.05
Simulation CPU 0 panic: IPC 0.0035797 < 0.01
Simulation CPU 0 panic: IPC 0.000357 < 0.01
Simulation CPU 0 panic: IPC 0.0001088 < 0.01
Simulation CPU 0 critical: IPC 0.016886 < 0.02
Simulation CPU 0 panic: IPC 0.0035105 < 0.01
Simulation CPU 0 panic: IPC 0.0028688 < 0.01
Simulation CPU 0 panic: IPC 0.0045273 < 0.01
Simulation CPU 0 panic: IPC 0.0014785 < 0.01
Simulation CPU 0 panic: IPC 0.0093019 < 0.01
Simulation CPU 0 critical: IPC 0.012603 < 0.02
Simulation CPU 0 panic: IPC 0.0019676 < 0.01
Simulation CPU 0 panic: IPC 0.0079056 < 0.01
Simulation CPU 0 panic: IPC 6.29e-05 < 0.01
Simulation CPU 0 panic: IPC 0.0045969 < 0.01
Simulation CPU 0 panic: IPC 0.0067695 < 0.01
Simulation CPU 0 panic: IPC 0.0034548 < 0.01
Simulation CPU 0 panic: IPC 0.0087781 < 0.01
Simulation CPU 0 critical: IPC 0.014632 < 0.02
Simulation CPU 0 panic: IPC 0.0015381 < 0.01
Simulation CPU 0 critical: IPC 0.014618 < 0.02
Simulation CPU 0 panic: IPC 0.0068659 < 0.01
Simulation CPU 0 critical: IPC 0.016832 < 0.02
Simulation CPU 0 panic: IPC 0.0064024 < 0.01
Heartbeat CPU 0 instructions: 140000012 cycles: 12708664087 heartbeat IPC: 0.03399 cumulative IPC: 0.01102 (Simulation time: 17 hr 24 min 55 sec)
Simulation CPU 0 warning: IPC 0.028589 < 0.05
Simulation CPU 0 panic: IPC 0.0034242 < 0.01
Simulation CPU 0 panic: IPC 0.0091198 < 0.01
Simulation CPU 0 panic: IPC 0.0042005 < 0.01
Simulation CPU 0 panic: IPC 0.0039546 < 0.01
Simulation CPU 0 panic: IPC 0.0082611 < 0.01
Simulation CPU 0 panic: IPC 0.0066303 < 0.01
Simulation CPU 0 panic: IPC 0.0023496 < 0.01
Simulation CPU 0 panic: IPC 0.0063523 < 0.01
Simulation CPU 0 panic: IPC 0.0023258 < 0.01
Simulation CPU 0 panic: IPC 0.0068166 < 0.01
Simulation CPU 0 warning: IPC 0.02462 < 0.05
Simulation CPU 0 critical: IPC 0.017064 < 0.02
Simulation CPU 0 panic: IPC 0.0071573 < 0.01
Simulation CPU 0 warning: IPC 0.038399 < 0.05
Simulation CPU 0 panic: IPC 0.0009689 < 0.01
Simulation CPU 0 panic: IPC 0.0029348 < 0.01
Simulation CPU 0 critical: IPC 0.01162 < 0.02
Simulation CPU 0 critical: IPC 0.011349 < 0.02
Simulation CPU 0 panic: IPC 0.0039513 < 0.01
Simulation CPU 0 panic: IPC 0.009105 < 0.01
Simulation CPU 0 panic: IPC 0.0089175 < 0.01
Simulation CPU 0 panic: IPC 0.0090605 < 0.01
Simulation CPU 0 critical: IPC 0.013525 < 0.02
Simulation CPU 0 panic: IPC 0.0036368 < 0.01
Simulation CPU 0 critical: IPC 0.014236 < 0.02
Simulation CPU 0 panic: IPC 0.0028467 < 0.01
Simulation CPU 0 critical: IPC 0.013253 < 0.02
Heartbeat CPU 0 instructions: 150000014 cycles: 12992898363 heartbeat IPC: 0.03518 cumulative IPC: 0.01154 (Simulation time: 17 hr 48 min 38 sec)
Heartbeat CPU 0 instructions: 160000017 cycles: 13003840016 heartbeat IPC: 0.9139 cumulative IPC: 0.0123 (Simulation time: 17 hr 50 min 00 sec)
Heartbeat CPU 0 instructions: 170000020 cycles: 13011898758 heartbeat IPC: 1.241 cumulative IPC: 0.01306 (Simulation time: 17 hr 51 min 00 sec)
Heartbeat CPU 0 instructions: 180000022 cycles: 13040572519 heartbeat IPC: 0.3488 cumulative IPC: 0.0138 (Simulation time: 17 hr 53 min 42 sec)
Heartbeat CPU 0 instructions: 190000022 cycles: 13049046139 heartbeat IPC: 1.18 cumulative IPC: 0.01456 (Simulation time: 17 hr 54 min 40 sec)
Heartbeat CPU 0 instructions: 200000022 cycles: 13060264727 heartbeat IPC: 0.8914 cumulative IPC: 0.01531 (Simulation time: 17 hr 55 min 37 sec)
Heartbeat CPU 0 instructions: 210000023 cycles: 13076715545 heartbeat IPC: 0.6079 cumulative IPC: 0.01606 (Simulation time: 17 hr 57 min 03 sec)
Heartbeat CPU 0 instructions: 220000024 cycles: 13098539576 heartbeat IPC: 0.4582 cumulative IPC: 0.0168 (Simulation time: 17 hr 58 min 39 sec)
Heartbeat CPU 0 instructions: 230000024 cycles: 13108950865 heartbeat IPC: 0.9605 cumulative IPC: 0.01755 (Simulation time: 17 hr 59 min 37 sec)
Heartbeat CPU 0 instructions: 240000028 cycles: 13120477917 heartbeat IPC: 0.8675 cumulative IPC: 0.01829 (Simulation time: 18 hr 00 min 42 sec)
Heartbeat CPU 0 instructions: 250000028 cycles: 13129045887 heartbeat IPC: 1.167 cumulative IPC: 0.01904 (Simulation time: 18 hr 01 min 33 sec)
Simulation CPU 0 panic: IPC 5.3e-06 < 0.01
Simulation CPU 0 panic: IPC 1.2e-06 < 0.01
Simulation CPU 0 warning: IPC 0.036579 < 0.05
Simulation CPU 0 warning: IPC 0.02489 < 0.05
Simulation CPU 0 warning: IPC 0.034375 < 0.05
Simulation CPU 0 warning: IPC 0.022789 < 0.05
Simulation CPU 0 critical: IPC 0.019893 < 0.02
Simulation CPU 0 warning: IPC 0.025095 < 0.05
Simulation CPU 0 critical: IPC 0.018934 < 0.02
Heartbeat CPU 0 instructions: 260000028 cycles: 13297769510 heartbeat IPC: 0.05927 cumulative IPC: 0.01955 (Simulation time: 18 hr 12 min 26 sec)
Simulation CPU 0 warning: IPC 0.036351 < 0.05
Simulation CPU 0 critical: IPC 0.018904 < 0.02
Simulation CPU 0 critical: IPC 0.01494 < 0.02
Simulation CPU 0 critical: IPC 0.018059 < 0.02
Simulation CPU 0 warning: IPC 0.049502 < 0.05
Heartbeat CPU 0 instructions: 270000028 cycles: 13411480235 heartbeat IPC: 0.08794 cumulative IPC: 0.02013 (Simulation time: 18 hr 20 min 29 sec)
Heartbeat CPU 0 instructions: 280000028 cycles: 13428351053 heartbeat IPC: 0.5927 cumulative IPC: 0.02085 (Simulation time: 18 hr 22 min 24 sec)
Heartbeat CPU 0 instructions: 290000029 cycles: 13445114407 heartbeat IPC: 0.5965 cumulative IPC: 0.02157 (Simulation time: 18 hr 24 min 15 sec)
Heartbeat CPU 0 instructions: 300000029 cycles: 13463182256 heartbeat IPC: 0.5535 cumulative IPC: 0.02228 (Simulation time: 18 hr 26 min 10 sec)
Heartbeat CPU 0 instructions: 310000030 cycles: 13473929264 heartbeat IPC: 0.9305 cumulative IPC: 0.02301 (Simulation time: 18 hr 27 min 28 sec)
Heartbeat CPU 0 instructions: 320000030 cycles: 13484570048 heartbeat IPC: 0.9398 cumulative IPC: 0.02373 (Simulation time: 18 hr 28 min 35 sec)
Heartbeat CPU 0 instructions: 330000032 cycles: 13507227640 heartbeat IPC: 0.4414 cumulative IPC: 0.02443 (Simulation time: 18 hr 30 min 25 sec)
Heartbeat CPU 0 instructions: 340000032 cycles: 13517878179 heartbeat IPC: 0.9389 cumulative IPC: 0.02515 (Simulation time: 18 hr 31 min 23 sec)
Heartbeat CPU 0 instructions: 350000032 cycles: 13525978824 heartbeat IPC: 1.234 cumulative IPC: 0.02588 (Simulation time: 18 hr 32 min 09 sec)
Heartbeat CPU 0 instructions: 360000032 cycles: 13546385982 heartbeat IPC: 0.49 cumulative IPC: 0.02658 (Simulation time: 18 hr 34 min 22 sec)
Heartbeat CPU 0 instructions: 370000034 cycles: 13558665075 heartbeat IPC: 0.8144 cumulative IPC: 0.02729 (Simulation time: 18 hr 35 min 43 sec)
Heartbeat CPU 0 instructions: 380000034 cycles: 13568024515 heartbeat IPC: 1.068 cumulative IPC: 0.02801 (Simulation time: 18 hr 36 min 31 sec)
Heartbeat CPU 0 instructions: 390000034 cycles: 13592612352 heartbeat IPC: 0.4067 cumulative IPC: 0.02869 (Simulation time: 18 hr 38 min 56 sec)
Heartbeat CPU 0 instructions: 400000034 cycles: 13616574985 heartbeat IPC: 0.4173 cumulative IPC: 0.02938 (Simulation time: 18 hr 41 min 32 sec)
Heartbeat CPU 0 instructions: 410000034 cycles: 13627076609 heartbeat IPC: 0.9522 cumulative IPC: 0.03009 (Simulation time: 18 hr 42 min 45 sec)
Heartbeat CPU 0 instructions: 420000035 cycles: 13635936671 heartbeat IPC: 1.129 cumulative IPC: 0.0308 (Simulation time: 18 hr 43 min 51 sec)
Heartbeat CPU 0 instructions: 430000038 cycles: 13649406490 heartbeat IPC: 0.7424 cumulative IPC: 0.0315 (Simulation time: 18 hr 44 min 52 sec)
Heartbeat CPU 0 instructions: 440000041 cycles: 13681078040 heartbeat IPC: 0.3157 cumulative IPC: 0.03216 (Simulation time: 18 hr 47 min 14 sec)
Heartbeat CPU 0 instructions: 450000044 cycles: 13689510346 heartbeat IPC: 1.186 cumulative IPC: 0.03287 (Simulation time: 18 hr 48 min 21 sec)
Heartbeat CPU 0 instructions: 460000044 cycles: 13702872171 heartbeat IPC: 0.7484 cumulative IPC: 0.03357 (Simulation time: 18 hr 49 min 56 sec)
Heartbeat CPU 0 instructions: 470000044 cycles: 13711714376 heartbeat IPC: 1.131 cumulative IPC: 0.03428 (Simulation time: 18 hr 51 min 06 sec)
Heartbeat CPU 0 instructions: 480000045 cycles: 13721532554 heartbeat IPC: 1.019 cumulative IPC: 0.03498 (Simulation time: 18 hr 52 min 16 sec)
Heartbeat CPU 0 instructions: 490000046 cycles: 13746704005 heartbeat IPC: 0.3973 cumulative IPC: 0.03564 (Simulation time: 18 hr 54 min 55 sec)
Heartbeat CPU 0 instructions: 500000046 cycles: 13756705438 heartbeat IPC: 0.9999 cumulative IPC: 0.03635 (Simulation time: 18 hr 56 min 11 sec)
Heartbeat CPU 0 instructions: 510000047 cycles: 13767920724 heartbeat IPC: 0.8916 cumulative IPC: 0.03704 (Simulation time: 18 hr 57 min 34 sec)
Heartbeat CPU 0 instructions: 520000048 cycles: 13776467040 heartbeat IPC: 1.17 cumulative IPC: 0.03775 (Simulation time: 18 hr 58 min 41 sec)
Heartbeat CPU 0 instructions: 530000052 cycles: 13786699565 heartbeat IPC: 0.9773 cumulative IPC: 0.03844 (Simulation time: 18 hr 59 min 57 sec)
Simulation CPU 0 panic: IPC 1.3e-06 < 0.01
Simulation CPU 0 panic: IPC 3.8e-06 < 0.01
Simulation CPU 0 panic: IPC 1.3e-06 < 0.01
Simulation CPU 0 panic: IPC 4.1e-06 < 0.01
Simulation CPU 0 panic: IPC 1.2e-06 < 0.01
Simulation CPU 0 warning: IPC 0.034925 < 0.05
Simulation CPU 0 critical: IPC 0.016405 < 0.02
Simulation CPU 0 critical: IPC 0.019206 < 0.02
Simulation CPU 0 panic: IPC 0.0092165 < 0.01
Simulation CPU 0 critical: IPC 0.014784 < 0.02
Simulation CPU 0 warning: IPC 0.032167 < 0.05
Simulation CPU 0 critical: IPC 0.018467 < 0.02
Simulation CPU 0 warning: IPC 0.026331 < 0.05
Simulation CPU 0 panic: IPC 0.0068826 < 0.01
Simulation CPU 0 warning: IPC 0.047257 < 0.05
Simulation CPU 0 panic: IPC 5.81e-05 < 0.01
Simulation CPU 0 warning: IPC 0.027268 < 0.05
Simulation CPU 0 critical: IPC 0.010337 < 0.02
Simulation CPU 0 warning: IPC 0.040249 < 0.05
Simulation CPU 0 critical: IPC 0.014793 < 0.02
Simulation CPU 0 critical: IPC 0.011298 < 0.02
Simulation CPU 0 warning: IPC 0.035708 < 0.05
Simulation CPU 0 critical: IPC 0.013475 < 0.02
Heartbeat CPU 0 instructions: 540000053 cycles: 14067783435 heartbeat IPC: 0.03558 cumulative IPC: 0.03839 (Simulation time: 19 hr 23 min 18 sec)
Simulation CPU 0 warning: IPC 0.034467 < 0.05
Simulation CPU 0 panic: IPC 0.0069732 < 0.01
Simulation CPU 0 warning: IPC 0.021373 < 0.05
Simulation CPU 0 warning: IPC 0.047834 < 0.05
[ERROR_CYCLE] Error added at CPU cycle 14106480309, interval 2, pending count: 1
[DRAM_CYCLE_ERROR] Cycle-based error applied! address=0x4fdac9ef8 additional_latency=2459910500 cycles
Simulation CPU 0 panic: IPC 0 < 0.01
Simulation CPU 0 warning: IPC 0.03127 < 0.05
Simulation CPU 0 warning: IPC 0.048049 < 0.05
Simulation CPU 0 critical: IPC 0.010094 < 0.02
Simulation CPU 0 panic: IPC 0.0038699 < 0.01
Simulation CPU 0 panic: IPC 0.003213 < 0.01
Simulation CPU 0 critical: IPC 0.014776 < 0.02
Simulation CPU 0 warning: IPC 0.042481 < 0.05
Simulation CPU 0 warning: IPC 0.024948 < 0.05
Simulation CPU 0 warning: IPC 0.044979 < 0.05
Simulation CPU 0 panic: IPC 0.0093349 < 0.01
Simulation CPU 0 warning: IPC 0.020209 < 0.05
Simulation CPU 0 warning: IPC 0.030843 < 0.05
Simulation CPU 0 warning: IPC 0.026509 < 0.05
Simulation CPU 0 panic: IPC 0.0010005 < 0.01
Simulation CPU 0 warning: IPC 0.044695 < 0.05
Simulation CPU 0 panic: IPC 0.0002928 < 0.01
Simulation CPU 0 critical: IPC 0.019849 < 0.02
Simulation CPU 0 warning: IPC 0.04462 < 0.05
Simulation CPU 0 critical: IPC 0.010106 < 0.02
Simulation CPU 0 warning: IPC 0.048194 < 0.05
Simulation CPU 0 warning: IPC 0.020161 < 0.05
Simulation CPU 0 critical: IPC 0.018078 < 0.02
Simulation CPU 0 critical: IPC 0.018059 < 0.02
Heartbeat CPU 0 instructions: 550000054 cycles: 14392778795 heartbeat IPC: 0.03077 cumulative IPC: 0.03821 (Simulation time: 19 hr 50 min 53 sec)
Simulation CPU 0 warning: IPC 0.032255 < 0.05
Simulation CPU 0 panic: IPC 0.0031207 < 0.01
Simulation CPU 0 panic: IPC 0.0091262 < 0.01
Simulation CPU 0 warning: IPC 0.040667 < 0.05
Simulation CPU 0 warning: IPC 0.028302 < 0.05
Simulation CPU 0 critical: IPC 0.012512 < 0.02
Simulation CPU 0 warning: IPC 0.025607 < 0.05
Simulation CPU 0 critical: IPC 0.016827 < 0.02
Simulation CPU 0 warning: IPC 0.035148 < 0.05
Simulation CPU 0 critical: IPC 0.018185 < 0.02
Simulation CPU 0 warning: IPC 0.023208 < 0.05
Simulation CPU 0 warning: IPC 0.031082 < 0.05
Simulation CPU 0 critical: IPC 0.014411 < 0.02
Simulation CPU 0 warning: IPC 0.021798 < 0.05
Simulation CPU 0 critical: IPC 0.010878 < 0.02
Simulation CPU 0 warning: IPC 0.024586 < 0.05
Simulation CPU 0 critical: IPC 0.017296 < 0.02
Simulation CPU 0 warning: IPC 0.026737 < 0.05
Simulation CPU 0 critical: IPC 0.019242 < 0.02
Simulation CPU 0 critical: IPC 0.016679 < 0.02
Simulation CPU 0 warning: IPC 0.03192 < 0.05
Simulation CPU 0 panic: IPC 0.0036094 < 0.01
Simulation CPU 0 warning: IPC 0.0328 < 0.05
Simulation CPU 0 warning: IPC 0.027284 < 0.05
Heartbeat CPU 0 instructions: 560000054 cycles: 14703303681 heartbeat IPC: 0.0322 cumulative IPC: 0.03809 (Simulation time: 20 hr 18 min 01 sec)
Simulation CPU 0 warning: IPC 0.033308 < 0.05
Simulation CPU 0 warning: IPC 0.025707 < 0.05
Simulation CPU 0 critical: IPC 0.015364 < 0.02
Simulation CPU 0 warning: IPC 0.036629 < 0.05
Simulation CPU 0 critical: IPC 0.011111 < 0.02
Simulation CPU 0 warning: IPC 0.036228 < 0.05
Simulation CPU 0 critical: IPC 0.018575 < 0.02
Simulation CPU 0 warning: IPC 0.035095 < 0.05
Simulation CPU 0 panic: IPC 0.0002298 < 0.01
Simulation CPU 0 warning: IPC 0.046685 < 0.05
Simulation CPU 0 critical: IPC 0.010524 < 0.02
Simulation CPU 0 panic: IPC 0.0078878 < 0.01
Simulation CPU 0 warning: IPC 0.026456 < 0.05
Simulation CPU 0 critical: IPC 0.018831 < 0.02
Simulation CPU 0 warning: IPC 0.033282 < 0.05
Simulation CPU 0 warning: IPC 0.030388 < 0.05
Simulation CPU 0 critical: IPC 0.018478 < 0.02
Simulation CPU 0 warning: IPC 0.025989 < 0.05
Simulation CPU 0 panic: IPC 0.0023976 < 0.01
Simulation CPU 0 warning: IPC 0.03435 < 0.05
Simulation CPU 0 warning: IPC 0.033582 < 0.05
Heartbeat CPU 0 instructions: 570000057 cycles: 14977566333 heartbeat IPC: 0.03646 cumulative IPC: 0.03806 (Simulation time: 20 hr 41 min 35 sec)
Simulation CPU 0 warning: IPC 0.027009 < 0.05
Simulation CPU 0 warning: IPC 0.020248 < 0.05
Simulation CPU 0 warning: IPC 0.046819 < 0.05
Simulation CPU 0 panic: IPC 0.0071088 < 0.01
Simulation CPU 0 panic: IPC 0.0062214 < 0.01
Simulation CPU 0 warning: IPC 0.030995 < 0.05
Simulation CPU 0 critical: IPC 0.01748 < 0.02
Simulation CPU 0 critical: IPC 0.018102 < 0.02
Simulation CPU 0 warning: IPC 0.044109 < 0.05
Simulation CPU 0 warning: IPC 0.044658 < 0.05
Simulation CPU 0 warning: IPC 0.026488 < 0.05
Simulation CPU 0 critical: IPC 0.016579 < 0.02
Simulation CPU 0 critical: IPC 0.018125 < 0.02
Simulation CPU 0 critical: IPC 0.018697 < 0.02
Simulation CPU 0 warning: IPC 0.032509 < 0.05
Simulation CPU 0 critical: IPC 0.012886 < 0.02
Simulation CPU 0 warning: IPC 0.020668 < 0.05
Simulation CPU 0 warning: IPC 0.041631 < 0.05
Heartbeat CPU 0 instructions: 580000060 cycles: 15223296343 heartbeat IPC: 0.0407 cumulative IPC: 0.0381 (Simulation time: 21 hr 04 min 38 sec)
Simulation CPU 0 warning: IPC 0.029352 < 0.05
Simulation CPU 0 critical: IPC 0.015188 < 0.02
Simulation CPU 0 critical: IPC 0.016003 < 0.02
Simulation CPU 0 warning: IPC 0.041837 < 0.05
Simulation CPU 0 critical: IPC 0.01024 < 0.02
Simulation CPU 0 warning: IPC 0.026817 < 0.05
Simulation CPU 0 warning: IPC 0.031346 < 0.05
Simulation CPU 0 critical: IPC 0.016981 < 0.02
Simulation CPU 0 critical: IPC 0.011358 < 0.02
Simulation CPU 0 critical: IPC 0.017973 < 0.02
Simulation CPU 0 critical: IPC 0.016929 < 0.02
Simulation CPU 0 warning: IPC 0.029282 < 0.05
Simulation CPU 0 panic: IPC 0.002456 < 0.01
Simulation CPU 0 warning: IPC 0.029386 < 0.05
Simulation CPU 0 critical: IPC 0.013559 < 0.02
Simulation CPU 0 warning: IPC 0.035856 < 0.05
Simulation CPU 0 warning: IPC 0.022687 < 0.05
Simulation CPU 0 panic: IPC 0.007594 < 0.01
Heartbeat CPU 0 instructions: 590000060 cycles: 15488166770 heartbeat IPC: 0.03775 cumulative IPC: 0.03809 (Simulation time: 21 hr 28 min 57 sec)
Simulation CPU 0 panic: IPC 0.0041199 < 0.01
Simulation CPU 0 warning: IPC 0.027465 < 0.05
Simulation CPU 0 warning: IPC 0.04616 < 0.05
Simulation CPU 0 warning: IPC 0.024143 < 0.05
Simulation CPU 0 warning: IPC 0.029731 < 0.05
Simulation CPU 0 critical: IPC 0.017811 < 0.02
Simulation CPU 0 warning: IPC 0.033411 < 0.05
Simulation CPU 0 panic: IPC 0.0012692 < 0.01
Simulation CPU 0 warning: IPC 0.041674 < 0.05
Simulation CPU 0 panic: IPC 0.0068431 < 0.01
Simulation CPU 0 warning: IPC 0.048138 < 0.05
Simulation CPU 0 critical: IPC 0.019231 < 0.02
Simulation CPU 0 warning: IPC 0.032533 < 0.05
Simulation CPU 0 warning: IPC 0.029572 < 0.05
Simulation CPU 0 warning: IPC 0.039243 < 0.05
Simulation CPU 0 critical: IPC 0.010804 < 0.02
Simulation CPU 0 panic: IPC 3.64e-05 < 0.01
Simulation CPU 0 critical: IPC 0.011096 < 0.02
Simulation CPU 0 warning: IPC 0.047398 < 0.05
Simulation CPU 0 warning: IPC 0.048365 < 0.05
Simulation CPU 0 warning: IPC 0.020717 < 0.05
Heartbeat CPU 0 instructions: 600000064 cycles: 15761577420 heartbeat IPC: 0.03658 cumulative IPC: 0.03807 (Simulation time: 21 hr 54 min 10 sec)
Simulation CPU 0 warning: IPC 0.031075 < 0.05
Simulation CPU 0 critical: IPC 0.015344 < 0.02
Simulation CPU 0 panic: IPC 0.0054729 < 0.01
Simulation CPU 0 critical: IPC 0.017458 < 0.02
Simulation CPU 0 panic: IPC 0.0069889 < 0.01
Simulation CPU 0 warning: IPC 0.04136 < 0.05
Simulation CPU 0 critical: IPC 0.011574 < 0.02
Simulation CPU 0 warning: IPC 0.023846 < 0.05
Simulation CPU 0 critical: IPC 0.016907 < 0.02
Simulation CPU 0 critical: IPC 0.014379 < 0.02
Simulation CPU 0 panic: IPC 0.0013234 < 0.01
Simulation CPU 0 warning: IPC 0.044046 < 0.05
Simulation CPU 0 critical: IPC 0.012736 < 0.02
Simulation CPU 0 critical: IPC 0.019396 < 0.02
Simulation CPU 0 warning: IPC 0.026946 < 0.05
Simulation CPU 0 panic: IPC 0.0096241 < 0.01
Simulation CPU 0 critical: IPC 0.018863 < 0.02
Simulation CPU 0 warning: IPC 0.046593 < 0.05
Simulation CPU 0 panic: IPC 0.0017862 < 0.01
Heartbeat CPU 0 instructions: 610000065 cycles: 16044465054 heartbeat IPC: 0.03535 cumulative IPC: 0.03802 (Simulation time: 22 hr 18 min 23 sec)
Simulation CPU 0 warning: IPC 0.037617 < 0.05
Simulation CPU 0 warning: IPC 0.022312 < 0.05
Simulation CPU 0 critical: IPC 0.018305 < 0.02
Heartbeat CPU 0 instructions: 620000068 cycles: 16120588322 heartbeat IPC: 0.1314 cumulative IPC: 0.03846 (Simulation time: 22 hr 25 min 08 sec)
Heartbeat CPU 0 instructions: 630000069 cycles: 16159236918 heartbeat IPC: 0.2587 cumulative IPC: 0.03899 (Simulation time: 22 hr 28 min 57 sec)
Heartbeat CPU 0 instructions: 640000070 cycles: 16196253400 heartbeat IPC: 0.2701 cumulative IPC: 0.03952 (Simulation time: 22 hr 32 min 40 sec)
Heartbeat CPU 0 instructions: 650000070 cycles: 16238658606 heartbeat IPC: 0.2358 cumulative IPC: 0.04003 (Simulation time: 22 hr 36 min 46 sec)
Heartbeat CPU 0 instructions: 660000074 cycles: 16284924928 heartbeat IPC: 0.2161 cumulative IPC: 0.04053 (Simulation time: 22 hr 40 min 37 sec)
Heartbeat CPU 0 instructions: 670000075 cycles: 16331871960 heartbeat IPC: 0.213 cumulative IPC: 0.04102 (Simulation time: 22 hr 44 min 23 sec)
Heartbeat CPU 0 instructions: 680000077 cycles: 16377576706 heartbeat IPC: 0.2188 cumulative IPC: 0.04152 (Simulation time: 22 hr 48 min 35 sec)
Heartbeat CPU 0 instructions: 690000077 cycles: 16409674231 heartbeat IPC: 0.3116 cumulative IPC: 0.04205 (Simulation time: 22 hr 51 min 41 sec)
Heartbeat CPU 0 instructions: 700000079 cycles: 16424761198 heartbeat IPC: 0.6628 cumulative IPC: 0.04262 (Simulation time: 22 hr 53 min 18 sec)
Heartbeat CPU 0 instructions: 710000082 cycles: 16433989910 heartbeat IPC: 1.084 cumulative IPC: 0.0432 (Simulation time: 22 hr 54 min 30 sec)
Heartbeat CPU 0 instructions: 720000084 cycles: 16446832019 heartbeat IPC: 0.7787 cumulative IPC: 0.04378 (Simulation time: 22 hr 55 min 46 sec)
Heartbeat CPU 0 instructions: 730000085 cycles: 16458237079 heartbeat IPC: 0.8768 cumulative IPC: 0.04435 (Simulation time: 22 hr 57 min 06 sec)
Heartbeat CPU 0 instructions: 740000087 cycles: 16466654063 heartbeat IPC: 1.188 cumulative IPC: 0.04494 (Simulation time: 22 hr 58 min 12 sec)
Heartbeat CPU 0 instructions: 750000088 cycles: 16482108611 heartbeat IPC: 0.6471 cumulative IPC: 0.0455 (Simulation time: 22 hr 59 min 38 sec)
Heartbeat CPU 0 instructions: 760000089 cycles: 16490531369 heartbeat IPC: 1.187 cumulative IPC: 0.04609 (Simulation time: 23 hr 00 min 24 sec)
Heartbeat CPU 0 instructions: 770000091 cycles: 16499984150 heartbeat IPC: 1.058 cumulative IPC: 0.04667 (Simulation time: 23 hr 01 min 24 sec)
Heartbeat CPU 0 instructions: 780000093 cycles: 16513171127 heartbeat IPC: 0.7583 cumulative IPC: 0.04724 (Simulation time: 23 hr 02 min 38 sec)
Heartbeat CPU 0 instructions: 790000093 cycles: 16525854112 heartbeat IPC: 0.7885 cumulative IPC: 0.0478 (Simulation time: 23 hr 04 min 06 sec)
Heartbeat CPU 0 instructions: 800000093 cycles: 16552132987 heartbeat IPC: 0.3805 cumulative IPC: 0.04833 (Simulation time: 23 hr 06 min 37 sec)
Heartbeat CPU 0 instructions: 810000094 cycles: 16572169565 heartbeat IPC: 0.4991 cumulative IPC: 0.04888 (Simulation time: 23 hr 08 min 09 sec)
Heartbeat CPU 0 instructions: 820000094 cycles: 16586481510 heartbeat IPC: 0.6987 cumulative IPC: 0.04944 (Simulation time: 23 hr 09 min 15 sec)
Heartbeat CPU 0 instructions: 830000094 cycles: 16597095026 heartbeat IPC: 0.9422 cumulative IPC: 0.05001 (Simulation time: 23 hr 10 min 31 sec)
Heartbeat CPU 0 instructions: 840000096 cycles: 16621650859 heartbeat IPC: 0.4072 cumulative IPC: 0.05054 (Simulation time: 23 hr 12 min 47 sec)
Heartbeat CPU 0 instructions: 850000097 cycles: 16641208028 heartbeat IPC: 0.5113 cumulative IPC: 0.05108 (Simulation time: 23 hr 14 min 40 sec)
Heartbeat CPU 0 instructions: 860000100 cycles: 16652253866 heartbeat IPC: 0.9053 cumulative IPC: 0.05164 (Simulation time: 23 hr 16 min 00 sec)
Heartbeat CPU 0 instructions: 870000103 cycles: 16660321361 heartbeat IPC: 1.24 cumulative IPC: 0.05222 (Simulation time: 23 hr 16 min 57 sec)
Heartbeat CPU 0 instructions: 880000103 cycles: 16673666235 heartbeat IPC: 0.7494 cumulative IPC: 0.05278 (Simulation time: 23 hr 18 min 09 sec)
Heartbeat CPU 0 instructions: 890000103 cycles: 16683850598 heartbeat IPC: 0.9819 cumulative IPC: 0.05335 (Simulation time: 23 hr 18 min 59 sec)
Heartbeat CPU 0 instructions: 900000107 cycles: 16702293445 heartbeat IPC: 0.5422 cumulative IPC: 0.05388 (Simulation time: 23 hr 20 min 32 sec)
Heartbeat CPU 0 instructions: 910000107 cycles: 16711243657 heartbeat IPC: 1.117 cumulative IPC: 0.05445 (Simulation time: 23 hr 21 min 25 sec)
Heartbeat CPU 0 instructions: 920000108 cycles: 16723518204 heartbeat IPC: 0.8147 cumulative IPC: 0.05501 (Simulation time: 23 hr 22 min 48 sec)
[...]
Heartbeat CPU 0 instructions: 1090000131 cycles: 17056196219 heartbeat IPC: 0.2905 cumulative IPC: 0.06391 (Simulation time: 23 hr 55 min 10 sec)
Heartbeat CPU 0 instructions: 1100000134 cycles: 17071118256 heartbeat IPC: 0.6701 cumulative IPC: 0.06444 (Simulation time: 23 hr 56 min 52 sec)
Heartbeat CPU 0 instructions: 1110000135 cycles: 17081647993 heartbeat IPC: 0.9497 cumulative IPC: 0.06498 (Simulation time: 23 hr 58 min 09 sec)
Heartbeat CPU 0 instructions: 1120000135 cycles: 17091082340 heartbeat IPC: 1.06 cumulative IPC: 0.06553 (Simulation time: 23 hr 59 min 19 sec)
Heartbeat CPU 0 instructions: 1130000136 cycles: 17099272937 heartbeat IPC: 1.221 cumulative IPC: 0.06608 (Simulation time: 00 hr 00 min 23 sec)
Heartbeat CPU 0 instructions: 1140000137 cycles: 17122540608 heartbeat IPC: 0.4298 cumulative IPC: 0.06658 (Simulation time: 00 hr 02 min 46 sec)
Heartbeat CPU 0 instructions: 1150000137 cycles: 17132775481 heartbeat IPC: 0.9771 cumulative IPC: 0.06712 (Simulation time: 00 hr 04 min 00 sec)
Heartbeat CPU 0 instructions: 1160000139 cycles: 17149287614 heartbeat IPC: 0.6056 cumulative IPC: 0.06764 (Simulation time: 00 hr 05 min 50 sec)
Heartbeat CPU 0 instructions: 1170000141 cycles: 17157732992 heartbeat IPC: 1.184 cumulative IPC: 0.06819 (Simulation time: 00 hr 06 min 54 sec)
Heartbeat CPU 0 instructions: 1180000142 cycles: 17167477143 heartbeat IPC: 1.026 cumulative IPC: 0.06873 (Simulation time: 00 hr 08 min 07 sec)
Heartbeat CPU 0 instructions: 1190000146 cycles: 17196434029 heartbeat IPC: 0.3453 cumulative IPC: 0.0692 (Simulation time: 00 hr 11 min 06 sec)
Heartbeat CPU 0 instructions: 1200000147 cycles: 17206117442 heartbeat IPC: 1.033 cumulative IPC: 0.06974 (Simulation time: 00 hr 12 min 17 sec)
Heartbeat CPU 0 instructions: 1210000151 cycles: 17221116912 heartbeat IPC: 0.6667 cumulative IPC: 0.07026 (Simulation time: 00 hr 14 min 00 sec)
Heartbeat CPU 0 instructions: 1220000151 cycles: 17234980450 heartbeat IPC: 0.7213 cumulative IPC: 0.07079 (Simulation time: 00 hr 15 min 19 sec)
Heartbeat CPU 0 instructions: 1230000154 cycles: 17242928118 heartbeat IPC: 1.258 cumulative IPC: 0.07133 (Simulation time: 00 hr 16 min 01 sec)
Heartbeat CPU 0 instructions: 1240000154 cycles: 17252594201 heartbeat IPC: 1.035 cumulative IPC: 0.07187 (Simulation time: 00 hr 16 min 50 sec)
Heartbeat CPU 0 instructions: 1250000157 cycles: 17273321692 heartbeat IPC: 0.4825 cumulative IPC: 0.07237 (Simulation time: 00 hr 19 min 04 sec)
Heartbeat CPU 0 instructions: 1260000157 cycles: 17282432854 heartbeat IPC: 1.098 cumulative IPC: 0.07291 (Simulation time: 00 hr 20 min 14 sec)
Heartbeat CPU 0 instructions: 1270000157 cycles: 17294524404 heartbeat IPC: 0.827 cumulative IPC: 0.07343 (Simulation time: 00 hr 21 min 43 sec)
Heartbeat CPU 0 instructions: 1280000159 cycles: 17312985248 heartbeat IPC: 0.5417 cumulative IPC: 0.07393 (Simulation time: 00 hr 23 min 27 sec)
Heartbeat CPU 0 instructions: 1290000163 cycles: 17344345097 heartbeat IPC: 0.3189 cumulative IPC: 0.07438 (Simulation time: 00 hr 26 min 40 sec)
Heartbeat CPU 0 instructions: 1300000165 cycles: 17353431263 heartbeat IPC: 1.101 cumulative IPC: 0.07491 (Simulation time: 00 hr 27 min 52 sec)
Heartbeat CPU 0 instructions: 1310000166 cycles: 17362996935 heartbeat IPC: 1.045 cumulative IPC: 0.07545 (Simulation time: 00 hr 28 min 53 sec)
Heartbeat CPU 0 instructions: 1320000166 cycles: 17371211627 heartbeat IPC: 1.217 cumulative IPC: 0.07599 (Simulation time: 00 hr 29 min 50 sec)
Heartbeat CPU 0 instructions: 1330000167 cycles: 17391679845 heartbeat IPC: 0.4886 cumulative IPC: 0.07647 (Simulation time: 00 hr 31 min 57 sec)
Heartbeat CPU 0 instructions: 1340000168 cycles: 17427214591 heartbeat IPC: 0.2814 cumulative IPC: 0.07689 (Simulation time: 00 hr 35 min 38 sec)
Heartbeat CPU 0 instructions: 1350000171 cycles: 17448796164 heartbeat IPC: 0.4634 cumulative IPC: 0.07737 (Simulation time: 00 hr 38 min 01 sec)
Heartbeat CPU 0 instructions: 1360000171 cycles: 17458083820 heartbeat IPC: 1.077 cumulative IPC: 0.0779 (Simulation time: 00 hr 39 min 12 sec)
Heartbeat CPU 0 instructions: 1370000175 cycles: 17472536917 heartbeat IPC: 0.6919 cumulative IPC: 0.07841 (Simulation time: 00 hr 40 min 48 sec)
Heartbeat CPU 0 instructions: 1380000177 cycles: 17482663041 heartbeat IPC: 0.9875 cumulative IPC: 0.07894 (Simulation time: 00 hr 41 min 52 sec)
Heartbeat CPU 0 instructions: 1390000181 cycles: 17490893720 heartbeat IPC: 1.215 cumulative IPC: 0.07947 (Simulation time: 00 hr 42 min 42 sec)
Heartbeat CPU 0 instructions: 1400000183 cycles: 17500393759 heartbeat IPC: 1.053 cumulative IPC: 0.08 (Simulation time: 00 hr 43 min 45 sec)
Heartbeat CPU 0 instructions: 1410000183 cycles: 17515690841 heartbeat IPC: 0.6537 cumulative IPC: 0.0805 (Simulation time: 00 hr 45 min 35 sec)
Heartbeat CPU 0 instructions: 1420000187 cycles: 17524850159 heartbeat IPC: 1.092 cumulative IPC: 0.08103 (Simulation time: 00 hr 46 min 46 sec)
Heartbeat CPU 0 instructions: 1430000189 cycles: 17533402394 heartbeat IPC: 1.169 cumulative IPC: 0.08156 (Simulation time: 00 hr 47 min 54 sec)
Heartbeat CPU 0 instructions: 1440000192 cycles: 17560694892 heartbeat IPC: 0.3664 cumulative IPC: 0.082 (Simulation time: 00 hr 50 min 44 sec)
Heartbeat CPU 0 instructions: 1450000195 cycles: 17574681614 heartbeat IPC: 0.715 cumulative IPC: 0.08251 (Simulation time: 00 hr 52 min 23 sec)
Heartbeat CPU 0 instructions: 1460000196 cycles: 17584303949 heartbeat IPC: 1.039 cumulative IPC: 0.08303 (Simulation time: 00 hr 53 min 37 sec)
Heartbeat CPU 0 instructions: 1470000199 cycles: 17593238121 heartbeat IPC: 1.119 cumulative IPC: 0.08355 (Simulation time: 00 hr 54 min 47 sec)
Heartbeat CPU 0 instructions: 1480000199 cycles: 17603116597 heartbeat IPC: 1.012 cumulative IPC: 0.08408 (Simulation time: 00 hr 55 min 43 sec)
Heartbeat CPU 0 instructions: 1490000202 cycles: 17629841169 heartbeat IPC: 0.3742 cumulative IPC: 0.08452 (Simulation time: 00 hr 57 min 49 sec)
Heartbeat CPU 0 instructions: 1500000203 cycles: 17638120320 heartbeat IPC: 1.208 cumulative IPC: 0.08504 (Simulation time: 00 hr 58 min 45 sec)
Heartbeat CPU 0 instructions: 1510000205 cycles: 17647111432 heartbeat IPC: 1.112 cumulative IPC: 0.08557 (Simulation time: 00 hr 59 min 40 sec)
Heartbeat CPU 0 instructions: 1520000205 cycles: 17657305988 heartbeat IPC: 0.9809 cumulative IPC: 0.08608 (Simulation time: 01 hr 00 min 38 sec)
Heartbeat CPU 0 instructions: 1530000205 cycles: 17690779100 heartbeat IPC: 0.2987 cumulative IPC: 0.08649 (Simulation time: 01 hr 03 min 59 sec)
Heartbeat CPU 0 instructions: 1540000207 cycles: 17732210553 heartbeat IPC: 0.2414 cumulative IPC: 0.08685 (Simulation time: 01 hr 07 min 18 sec)
Heartbeat CPU 0 instructions: 1550000207 cycles: 17774599422 heartbeat IPC: 0.2359 cumulative IPC: 0.0872 (Simulation time: 01 hr 11 min 21 sec)
Heartbeat CPU 0 instructions: 1560000210 cycles: 17816763549 heartbeat IPC: 0.2372 cumulative IPC: 0.08756 (Simulation time: 01 hr 15 min 28 sec)
Heartbeat CPU 0 instructions: 1570000210 cycles: 17859651939 heartbeat IPC: 0.2332 cumulative IPC: 0.08791 (Simulation time: 01 hr 19 min 43 sec)
Heartbeat CPU 0 instructions: 1580000212 cycles: 17910609236 heartbeat IPC: 0.1962 cumulative IPC: 0.08822 (Simulation time: 01 hr 24 min 37 sec)
Heartbeat CPU 0 instructions: 1590000216 cycles: 17959390552 heartbeat IPC: 0.205 cumulative IPC: 0.08853 (Simulation time: 01 hr 29 min 22 sec)
Heartbeat CPU 0 instructions: 1600000218 cycles: 17992274133 heartbeat IPC: 0.3041 cumulative IPC: 0.08893 (Simulation time: 01 hr 31 min 41 sec)
Heartbeat CPU 0 instructions: 1610000218 cycles: 18003815143 heartbeat IPC: 0.8665 cumulative IPC: 0.08943 (Simulation time: 01 hr 33 min 07 sec)
Heartbeat CPU 0 instructions: 1620000222 cycles: 18013069675 heartbeat IPC: 1.081 cumulative IPC: 0.08993 (Simulation time: 01 hr 34 min 19 sec)
Heartbeat CPU 0 instructions: 1630000223 cycles: 18030453292 heartbeat IPC: 0.5753 cumulative IPC: 0.0904 (Simulation time: 01 hr 36 min 16 sec)
Heartbeat CPU 0 instructions: 1640000224 cycles: 18040440078 heartbeat IPC: 1.001 cumulative IPC: 0.09091 (Simulation time: 01 hr 37 min 28 sec)
Heartbeat CPU 0 instructions: 1650000228 cycles: 18050291138 heartbeat IPC: 1.015 cumulative IPC: 0.09141 (Simulation time: 01 hr 38 min 40 sec)
Heartbeat CPU 0 instructions: 1660000230 cycles: 18062401925 heartbeat IPC: 0.8257 cumulative IPC: 0.0919 (Simulation time: 01 hr 40 min 04 sec)
Heartbeat CPU 0 instructions: 1670000231 cycles: 18089296439 heartbeat IPC: 0.3718 cumulative IPC: 0.09232 (Simulation time: 01 hr 42 min 41 sec)
Heartbeat CPU 0 instructions: 1680000231 cycles: 18111910416 heartbeat IPC: 0.4422 cumulative IPC: 0.09276 (Simulation time: 01 hr 45 min 13 sec)
Heartbeat CPU 0 instructions: 1690000231 cycles: 18120323840 heartbeat IPC: 1.189 cumulative IPC: 0.09327 (Simulation time: 01 hr 46 min 20 sec)
Heartbeat CPU 0 instructions: 1700000232 cycles: 18133032448 heartbeat IPC: 0.7869 cumulative IPC: 0.09375 (Simulation time: 01 hr 47 min 52 sec)
Heartbeat CPU 0 instructions: 1710000233 cycles: 18144421359 heartbeat IPC: 0.878 cumulative IPC: 0.09424 (Simulation time: 01 hr 49 min 17 sec)
Heartbeat CPU 0 instructions: 1720000233 cycles: 18154466511 heartbeat IPC: 0.9955 cumulative IPC: 0.09474 (Simulation time: 01 hr 50 min 16 sec)
Heartbeat CPU 0 instructions: 1730000235 cycles: 18163063239 heartbeat IPC: 1.163 cumulative IPC: 0.09525 (Simulation time: 01 hr 51 min 02 sec)
Heartbeat CPU 0 instructions: 1740000235 cycles: 18181957452 heartbeat IPC: 0.5293 cumulative IPC: 0.0957 (Simulation time: 01 hr 52 min 46 sec)
Heartbeat CPU 0 instructions: 1750000236 cycles: 18190573999 heartbeat IPC: 1.161 cumulative IPC: 0.0962 (Simulation time: 01 hr 53 min 34 sec)
Heartbeat CPU 0 instructions: 1760000236 cycles: 18203756581 heartbeat IPC: 0.7586 cumulative IPC: 0.09668 (Simulation time: 01 hr 54 min 44 sec)
Heartbeat CPU 0 instructions: 1770000237 cycles: 18213578122 heartbeat IPC: 1.018 cumulative IPC: 0.09718 (Simulation time: 01 hr 55 min 47 sec)
Heartbeat CPU 0 instructions: 1780000237 cycles: 18234097758 heartbeat IPC: 0.4873 cumulative IPC: 0.09762 (Simulation time: 01 hr 57 min 29 sec)
Heartbeat CPU 0 instructions: 1790000238 cycles: 18281527478 heartbeat IPC: 0.2108 cumulative IPC: 0.09791 (Simulation time: 02 hr 00 min 42 sec)
Heartbeat CPU 0 instructions: 1800000240 cycles: 18303498999 heartbeat IPC: 0.4551 cumulative IPC: 0.09834 (Simulation time: 02 hr 03 min 07 sec)
Heartbeat CPU 0 instructions: 1810000240 cycles: 18313324480 heartbeat IPC: 1.018 cumulative IPC: 0.09884 (Simulation time: 02 hr 04 min 23 sec)
Heartbeat CPU 0 instructions: 1820000242 cycles: 18333104776 heartbeat IPC: 0.5056 cumulative IPC: 0.09927 (Simulation time: 02 hr 06 min 29 sec)
Heartbeat CPU 0 instructions: 1830000243 cycles: 18342786888 heartbeat IPC: 1.033 cumulative IPC: 0.09977 (Simulation time: 02 hr 07 min 25 sec)
Heartbeat CPU 0 instructions: 1840000243 cycles: 18350609439 heartbeat IPC: 1.278 cumulative IPC: 0.1003 (Simulation time: 02 hr 08 min 16 sec)
Heartbeat CPU 0 instructions: 1850000243 cycles: 18360479406 heartbeat IPC: 1.013 cumulative IPC: 0.1008 (Simulation time: 02 hr 09 min 17 sec)
Heartbeat CPU 0 instructions: 1860000245 cycles: 18375450229 heartbeat IPC: 0.668 cumulative IPC: 0.1012 (Simulation time: 02 hr 11 min 03 sec)
Heartbeat CPU 0 instructions: 1870000249 cycles: 18390952211 heartbeat IPC: 0.6451 cumulative IPC: 0.1017 (Simulation time: 02 hr 12 min 52 sec)
Heartbeat CPU 0 instructions: 1880000253 cycles: 18399725649 heartbeat IPC: 1.14 cumulative IPC: 0.1022 (Simulation time: 02 hr 14 min 01 sec)
Heartbeat CPU 0 instructions: 1890000255 cycles: 18416349963 heartbeat IPC: 0.6015 cumulative IPC: 0.1026 (Simulation time: 02 hr 15 min 58 sec)
Heartbeat CPU 0 instructions: 1900000258 cycles: 18424834271 heartbeat IPC: 1.179 cumulative IPC: 0.1031 (Simulation time: 02 hr 17 min 00 sec)
Heartbeat CPU 0 instructions: 1910000258 cycles: 18435691861 heartbeat IPC: 0.921 cumulative IPC: 0.1036 (Simulation time: 02 hr 18 min 20 sec)
Heartbeat CPU 0 instructions: 1920000259 cycles: 18445099790 heartbeat IPC: 1.063 cumulative IPC: 0.1041 (Simulation time: 02 hr 19 min 32 sec)
Heartbeat CPU 0 instructions: 1930000261 cycles: 18460876521 heartbeat IPC: 0.6338 cumulative IPC: 0.1045 (Simulation time: 02 hr 21 min 18 sec)
Heartbeat CPU 0 instructions: 1940000262 cycles: 18469658835 heartbeat IPC: 1.139 cumulative IPC: 0.105 (Simulation time: 02 hr 22 min 29 sec)
Heartbeat CPU 0 instructions: 1950000265 cycles: 18481667325 heartbeat IPC: 0.8327 cumulative IPC: 0.1055 (Simulation time: 02 hr 23 min 29 sec)
Heartbeat CPU 0 instructions: 1960000268 cycles: 18491817110 heartbeat IPC: 0.9852 cumulative IPC: 0.106 (Simulation time: 02 hr 24 min 35 sec)
Heartbeat CPU 0 instructions: 1970000269 cycles: 18517349458 heartbeat IPC: 0.3917 cumulative IPC: 0.1064 (Simulation time: 02 hr 26 min 35 sec)
Heartbeat CPU 0 instructions: 1980000269 cycles: 18564498905 heartbeat IPC: 0.2121 cumulative IPC: 0.1067 (Simulation time: 02 hr 31 min 01 sec)
Heartbeat CPU 0 instructions: 1990000270 cycles: 18612156678 heartbeat IPC: 0.2098 cumulative IPC: 0.1069 (Simulation time: 02 hr 35 min 21 sec)

=== ERROR PAGE STATISTICS ===
Mode: CYCLE
Error Cycle Interval: 7053240154 CPU cycles
Total Error Accesses: 2
==============================
Simulation finished CPU 0 instructions: 1999999938 cycles: 18656062018 cumulative IPC: 0.1072 (Simulation time: 02 hr 39 min 12 sec)
Simulation complete CPU 0 instructions: 1999999938 cycles: 18656062018 cumulative IPC: 0.1072 (Simulation time: 02 hr 39 min 12 sec)

ChampSim completed all CPUs

=== Simulation ===
CPU 0 runs test_traces/605.mcf_s-994B.champsimtrace.xz

Region of Interest Statistics

CPU 0 cumulative IPC: 0.1072 instructions: 1999999938 cycles: 18656062018
CPU 0 Branch Prediction Accuracy: 92.62% MPKI: 18.99 Average ROB Occupancy at Mispredict: 32.67
Branch type MPKI
BRANCH_DIRECT_JUMP: 0.123
BRANCH_INDIRECT: 0
BRANCH_CONDITIONAL: 18.86
BRANCH_DIRECT_CALL: 6.5e-06
BRANCH_INDIRECT_CALL: 0.0004185
BRANCH_RETURN: 1e-05

cpu0->cpu0_STLB TOTAL        ACCESS:    6367243 HIT:    6361294 MISS:       5949 MSHR_MERGE:          0
cpu0->cpu0_STLB LOAD         ACCESS:    6367243 HIT:    6361294 MISS:       5949 MSHR_MERGE:          0
cpu0->cpu0_STLB RFO          ACCESS:          0 HIT:          0 MISS:          0 MSHR_MERGE:          0
cpu0->cpu0_STLB PREFETCH     ACCESS:          0 HIT:          0 MISS:          0 MSHR_MERGE:          0
cpu0->cpu0_STLB WRITE        ACCESS:          0 HIT:          0 MISS:          0 MSHR_MERGE:          0
cpu0->cpu0_STLB TRANSLATION  ACCESS:          0 HIT:          0 MISS:          0 MSHR_MERGE:          0
cpu0->cpu0_STLB PREFETCH REQUESTED:          0 ISSUED:          0 USEFUL:          0 USELESS:          0
cpu0->cpu0_STLB AVERAGE MISS LATENCY: 2.663e+06 cycles
cpu0->cpu0_L2C TOTAL        ACCESS:   81180895 HIT:   27540082 MISS:   53640813 MSHR_MERGE:          0
cpu0->cpu0_L2C LOAD         ACCESS:   75043342 HIT:   21466988 MISS:   53576354 MSHR_MERGE:          0
cpu0->cpu0_L2C RFO          ACCESS:     492565 HIT:     432392 MISS:      60173 MSHR_MERGE:          0
cpu0->cpu0_L2C PREFETCH     ACCESS:          0 HIT:          0 MISS:          0 MSHR_MERGE:          0
cpu0->cpu0_L2C WRITE        ACCESS:    5644988 HIT:    5640702 MISS:       4286 MSHR_MERGE:          0
cpu0->cpu0_L2C TRANSLATION  ACCESS:          0 HIT:          0 MISS:          0 MSHR_MERGE:          0
cpu0->cpu0_L2C PREFETCH REQUESTED:          0 ISSUED:          0 USEFUL:          0 USELESS:          0
cpu0->cpu0_L2C AVERAGE MISS LATENCY: 93.13 cycles
cpu0->cpu0_L1I TOTAL        ACCESS:    2879438 HIT:    2879346 MISS:         92 MSHR_MERGE:         26
cpu0->cpu0_L1I LOAD         ACCESS:    2879438 HIT:    2879346 MISS:         92 MSHR_MERGE:         26
cpu0->cpu0_L1I RFO          ACCESS:          0 HIT:          0 MISS:          0 MSHR_MERGE:          0
cpu0->cpu0_L1I PREFETCH     ACCESS:          0 HIT:          0 MISS:          0 MSHR_MERGE:          0
cpu0->cpu0_L1I WRITE        ACCESS:          0 HIT:          0 MISS:          0 MSHR_MERGE:          0
cpu0->cpu0_L1I TRANSLATION  ACCESS:          0 HIT:          0 MISS:          0 MSHR_MERGE:          0
cpu0->cpu0_L1I PREFETCH REQUESTED:          0 ISSUED:          0 USEFUL:          0 USELESS:          0
cpu0->cpu0_L1I AVERAGE MISS LATENCY: 102.8 cycles
cpu0->cpu0_L1D TOTAL        ACCESS:  810617637 HIT:  728263249 MISS:   82354388 MSHR_MERGE:    6817440
cpu0->cpu0_L1D LOAD         ACCESS:  610033977 HIT:  529056196 MISS:   80977781 MSHR_MERGE:    5934484
cpu0->cpu0_L1D RFO          ACCESS:          0 HIT:          0 MISS:          0 MSHR_MERGE:          0
cpu0->cpu0_L1D PREFETCH     ACCESS:          0 HIT:          0 MISS:          0 MSHR_MERGE:          0
cpu0->cpu0_L1D WRITE        ACCESS:  200583660 HIT:  199207053 MISS:    1376607 MSHR_MERGE:     882956
cpu0->cpu0_L1D TRANSLATION  ACCESS:          0 HIT:          0 MISS:          0 MSHR_MERGE:          0
cpu0->cpu0_L1D PREFETCH REQUESTED:          0 ISSUED:          0 USEFUL:          0 USELESS:          0
cpu0->cpu0_L1D AVERAGE MISS LATENCY: 74.97 cycles
cpu0->cpu0_ITLB TOTAL        ACCESS:    2728860 HIT:    2728859 MISS:          1 MSHR_MERGE:          0
cpu0->cpu0_ITLB LOAD         ACCESS:    2728860 HIT:    2728859 MISS:          1 MSHR_MERGE:          0
cpu0->cpu0_ITLB RFO          ACCESS:          0 HIT:          0 MISS:          0 MSHR_MERGE:          0
cpu0->cpu0_ITLB PREFETCH     ACCESS:          0 HIT:          0 MISS:          0 MSHR_MERGE:          0
cpu0->cpu0_ITLB WRITE        ACCESS:          0 HIT:          0 MISS:          0 MSHR_MERGE:          0
cpu0->cpu0_ITLB TRANSLATION  ACCESS:          0 HIT:          0 MISS:          0 MSHR_MERGE:          0
cpu0->cpu0_ITLB PREFETCH REQUESTED:          0 ISSUED:          0 USEFUL:          0 USELESS:          0
cpu0->cpu0_ITLB AVERAGE MISS LATENCY: 1.848e+07 cycles
cpu0->cpu0_DTLB TOTAL        ACCESS:  706563151 HIT:  699651230 MISS:    6911921 MSHR_MERGE:     544679
cpu0->cpu0_DTLB LOAD         ACCESS:  706563151 HIT:  699651230 MISS:    6911921 MSHR_MERGE:     544679
cpu0->cpu0_DTLB RFO          ACCESS:          0 HIT:          0 MISS:          0 MSHR_MERGE:          0
cpu0->cpu0_DTLB PREFETCH     ACCESS:          0 HIT:          0 MISS:          0 MSHR_MERGE:          0
cpu0->cpu0_DTLB WRITE        ACCESS:          0 HIT:          0 MISS:          0 MSHR_MERGE:          0
cpu0->cpu0_DTLB TRANSLATION  ACCESS:          0 HIT:          0 MISS:          0 MSHR_MERGE:          0
cpu0->cpu0_DTLB PREFETCH REQUESTED:          0 ISSUED:          0 USEFUL:          0 USELESS:          0
cpu0->cpu0_DTLB AVERAGE MISS LATENCY: 2490 cycles
cpu0->LLC TOTAL        ACCESS:   57571128 HIT:   16528576 MISS:   41042552 MSHR_MERGE:          0
cpu0->LLC LOAD         ACCESS:   53576354 HIT:   12553513 MISS:   41022841 MSHR_MERGE:          0
cpu0->LLC RFO          ACCESS:      60173 HIT:      41697 MISS:      18476 MSHR_MERGE:          0
cpu0->LLC PREFETCH     ACCESS:          0 HIT:          0 MISS:          0 MSHR_MERGE:          0
cpu0->LLC WRITE        ACCESS:    3934601 HIT:    3933366 MISS:       1235 MSHR_MERGE:          0
cpu0->LLC TRANSLATION  ACCESS:          0 HIT:          0 MISS:          0 MSHR_MERGE:          0
cpu0->LLC PREFETCH REQUESTED:          0 ISSUED:          0 USEFUL:          0 USELESS:          0
cpu0->LLC AVERAGE MISS LATENCY: 101.1 cycles

DRAM Statistics

Channel 0 RQ ROW_BUFFER_HIT:     275825
  ROW_BUFFER_MISS:   20252548
  AVG DBUS CONGESTED CYCLE: 9.316
Channel 0 WQ ROW_BUFFER_HIT:     331729
  ROW_BUFFER_MISS:    1235838
  FULL:          0
Channel 0 REFRESHES ISSUED:    1554572

Channel 1 RQ ROW_BUFFER_HIT:     275547
  ROW_BUFFER_MISS:   20249243
  AVG DBUS CONGESTED CYCLE: 9.318
Channel 1 WQ ROW_BUFFER_HIT:     331822
  ROW_BUFFER_MISS:    1236255
  FULL:          0
Channel 1 REFRESHES ISSUED:    1554572
