
*** ChampSim Multicore Out-of-Order Simulator ***
Warmup Instructions: 0
Simulation Instructions: 9223372036854775807
Number of CPUs: 1
Page size: 2097152

Off-chip DRAM Size: 64 GiB Channels: 2 Width: 32-bit Data Rate: 4807 MT/s
[ERROR_PAGE_MANAGER] Error latency: 1990500 
[ERROR_PAGE_MANAGER] Random seed: 54321 (fixed for preload reproducibility)
[ERROR_PAGE_MANAGER] Cycle-based error modeling enabled
[ERROR_PAGE_MANAGER] Errors per interval: 1
[ERROR_PAGE_MANAGER] Error cycle interval: 46484161 cycles

=== ERROR PAGE STATISTICS ===
Mode: CYCLE
Error Cycle Interval: 46484161 CPU cycles
Total Error Accesses: 0
==============================
Warmup finished CPU 0 instructions: 0 cycles: 1 cumulative IPC: 0 (Simulation time: 00 hr 00 min 00 sec)
Warmup complete CPU 0 instructions: 0 cycles: 1 cumulative IPC: 0 (Simulation time: 00 hr 00 min 00 sec)
Heartbeat CPU 0 instructions: 10000003 cycles: 8703863 heartbeat IPC: 1.149 cumulative IPC: 1.149 (Simulation time: 00 hr 01 min 23 sec)
Heartbeat CPU 0 instructions: 20000006 cycles: 18922752 heartbeat IPC: 0.9786 cumulative IPC: 1.057 (Simulation time: 00 hr 02 min 54 sec)
Heartbeat CPU 0 instructions: 30000006 cycles: 30623615 heartbeat IPC: 0.8546 cumulative IPC: 0.9796 (Simulation time: 00 hr 04 min 13 sec)
Heartbeat CPU 0 instructions: 40000008 cycles: 46229583 heartbeat IPC: 0.6408 cumulative IPC: 0.8652 (Simulation time: 00 hr 06 min 25 sec)
[ERROR_CYCLE] Error added at CPU cycle 46484161, interval 1, pending count: 1
[DRAM_CYCLE_ERROR] Cycle-based error applied! address=0x8d6322e80 additional_latency=1990500 cycles
Heartbeat CPU 0 instructions: 50000009 cycles: 57209867 heartbeat IPC: 0.9107 cumulative IPC: 0.874 (Simulation time: 00 hr 07 min 59 sec)
Heartbeat CPU 0 instructions: 60000012 cycles: 68553480 heartbeat IPC: 0.8816 cumulative IPC: 0.8752 (Simulation time: 00 hr 09 min 37 sec)
Heartbeat CPU 0 instructions: 70000016 cycles: 82528625 heartbeat IPC: 0.7156 cumulative IPC: 0.8482 (Simulation time: 00 hr 11 min 26 sec)
[ERROR_CYCLE] Error added at CPU cycle 92968322, interval 2, pending count: 1
[DRAM_CYCLE_ERROR] Cycle-based error applied! address=0x910051dc8 additional_latency=1990500 cycles
Heartbeat CPU 0 instructions: 80000019 cycles: 94281651 heartbeat IPC: 0.8508 cumulative IPC: 0.8485 (Simulation time: 00 hr 12 min 33 sec)
Heartbeat CPU 0 instructions: 90000020 cycles: 106146580 heartbeat IPC: 0.8428 cumulative IPC: 0.8479 (Simulation time: 00 hr 14 min 01 sec)
Heartbeat CPU 0 instructions: 100000021 cycles: 122728863 heartbeat IPC: 0.6031 cumulative IPC: 0.8148 (Simulation time: 00 hr 15 min 51 sec)
Heartbeat CPU 0 instructions: 110000024 cycles: 128532841 heartbeat IPC: 1.723 cumulative IPC: 0.8558 (Simulation time: 00 hr 16 min 31 sec)
Heartbeat CPU 0 instructions: 120000026 cycles: 135610774 heartbeat IPC: 1.413 cumulative IPC: 0.8849 (Simulation time: 00 hr 17 min 26 sec)
[ERROR_CYCLE] Error added at CPU cycle 139452483, interval 3, pending count: 1
[DRAM_CYCLE_ERROR] Cycle-based error applied! address=0x3a3f71a40 additional_latency=1990500 cycles
Heartbeat CPU 0 instructions: 130000026 cycles: 141178995 heartbeat IPC: 1.796 cumulative IPC: 0.9208 (Simulation time: 00 hr 18 min 11 sec)
Heartbeat CPU 0 instructions: 140000028 cycles: 148588361 heartbeat IPC: 1.35 cumulative IPC: 0.9422 (Simulation time: 00 hr 19 min 02 sec)
Heartbeat CPU 0 instructions: 150000029 cycles: 154224764 heartbeat IPC: 1.774 cumulative IPC: 0.9726 (Simulation time: 00 hr 19 min 38 sec)
Heartbeat CPU 0 instructions: 160000032 cycles: 161080870 heartbeat IPC: 1.459 cumulative IPC: 0.9933 (Simulation time: 00 hr 20 min 30 sec)
Heartbeat CPU 0 instructions: 170000035 cycles: 168052940 heartbeat IPC: 1.434 cumulative IPC: 1.012 (Simulation time: 00 hr 21 min 24 sec)
Heartbeat CPU 0 instructions: 180000037 cycles: 173649664 heartbeat IPC: 1.787 cumulative IPC: 1.037 (Simulation time: 00 hr 22 min 07 sec)
Heartbeat CPU 0 instructions: 190000038 cycles: 181644621 heartbeat IPC: 1.251 cumulative IPC: 1.046 (Simulation time: 00 hr 23 min 23 sec)
[ERROR_CYCLE] Error added at CPU cycle 185936644, interval 4, pending count: 1
[DRAM_CYCLE_ERROR] Cycle-based error applied! address=0x40c34b240 additional_latency=1990500 cycles
Heartbeat CPU 0 instructions: 200000039 cycles: 187984917 heartbeat IPC: 1.577 cumulative IPC: 1.064 (Simulation time: 00 hr 24 min 20 sec)
Heartbeat CPU 0 instructions: 210000039 cycles: 194335947 heartbeat IPC: 1.575 cumulative IPC: 1.081 (Simulation time: 00 hr 25 min 13 sec)
Heartbeat CPU 0 instructions: 220000040 cycles: 200754629 heartbeat IPC: 1.558 cumulative IPC: 1.096 (Simulation time: 00 hr 26 min 06 sec)
Heartbeat CPU 0 instructions: 230000041 cycles: 212818341 heartbeat IPC: 0.8289 cumulative IPC: 1.081 (Simulation time: 00 hr 27 min 20 sec)
Heartbeat CPU 0 instructions: 240000042 cycles: 224988406 heartbeat IPC: 0.8217 cumulative IPC: 1.067 (Simulation time: 00 hr 29 min 09 sec)
Heartbeat CPU 0 instructions: 250000042 cycles: 230645989 heartbeat IPC: 1.768 cumulative IPC: 1.084 (Simulation time: 00 hr 30 min 09 sec)
[ERROR_CYCLE] Error added at CPU cycle 232420805, interval 5, pending count: 1
[DRAM_CYCLE_ERROR] Cycle-based error applied! address=0x1db9c57c0 additional_latency=1990500 cycles
Heartbeat CPU 0 instructions: 260000045 cycles: 236940366 heartbeat IPC: 1.589 cumulative IPC: 1.097 (Simulation time: 00 hr 31 min 13 sec)
Heartbeat CPU 0 instructions: 270000045 cycles: 242868644 heartbeat IPC: 1.687 cumulative IPC: 1.112 (Simulation time: 00 hr 32 min 16 sec)
Heartbeat CPU 0 instructions: 280000049 cycles: 248340306 heartbeat IPC: 1.828 cumulative IPC: 1.127 (Simulation time: 00 hr 33 min 13 sec)
Heartbeat CPU 0 instructions: 290000052 cycles: 254493182 heartbeat IPC: 1.625 cumulative IPC: 1.14 (Simulation time: 00 hr 34 min 17 sec)
Heartbeat CPU 0 instructions: 300000056 cycles: 261961241 heartbeat IPC: 1.339 cumulative IPC: 1.145 (Simulation time: 00 hr 35 min 27 sec)
Heartbeat CPU 0 instructions: 310000059 cycles: 273527244 heartbeat IPC: 0.8646 cumulative IPC: 1.133 (Simulation time: 00 hr 37 min 10 sec)
[ERROR_CYCLE] Error added at CPU cycle 278904966, interval 6, pending count: 1
[DRAM_CYCLE_ERROR] Cycle-based error applied! address=0x91008f900 additional_latency=1990500 cycles
Heartbeat CPU 0 instructions: 320000061 cycles: 282109907 heartbeat IPC: 1.165 cumulative IPC: 1.134 (Simulation time: 00 hr 38 min 28 sec)
Heartbeat CPU 0 instructions: 330000065 cycles: 292595811 heartbeat IPC: 0.9537 cumulative IPC: 1.128 (Simulation time: 00 hr 39 min 52 sec)
Heartbeat CPU 0 instructions: 340000069 cycles: 304431869 heartbeat IPC: 0.8449 cumulative IPC: 1.117 (Simulation time: 00 hr 41 min 06 sec)
Heartbeat CPU 0 instructions: 350000073 cycles: 320246646 heartbeat IPC: 0.6323 cumulative IPC: 1.093 (Simulation time: 00 hr 42 min 51 sec)
[ERROR_CYCLE] Error added at CPU cycle 325389128, interval 7, pending count: 1
[DRAM_CYCLE_ERROR] Cycle-based error applied! address=0xdafd48588 additional_latency=1990500 cycles
Heartbeat CPU 0 instructions: 360000074 cycles: 331609592 heartbeat IPC: 0.8801 cumulative IPC: 1.086 (Simulation time: 00 hr 44 min 22 sec)
Heartbeat CPU 0 instructions: 370000074 cycles: 343149988 heartbeat IPC: 0.8665 cumulative IPC: 1.078 (Simulation time: 00 hr 46 min 00 sec)
Heartbeat CPU 0 instructions: 380000075 cycles: 357361706 heartbeat IPC: 0.7036 cumulative IPC: 1.063 (Simulation time: 00 hr 47 min 33 sec)
Heartbeat CPU 0 instructions: 390000075 cycles: 369328002 heartbeat IPC: 0.8357 cumulative IPC: 1.056 (Simulation time: 00 hr 48 min 51 sec)
[ERROR_CYCLE] Error added at CPU cycle 371873289, interval 8, pending count: 1
[DRAM_CYCLE_ERROR] Cycle-based error applied! address=0xad0b1d298 additional_latency=1990500 cycles
Heartbeat CPU 0 instructions: 400000077 cycles: 381509196 heartbeat IPC: 0.8209 cumulative IPC: 1.048 (Simulation time: 00 hr 50 min 18 sec)
Heartbeat CPU 0 instructions: 410000081 cycles: 395537019 heartbeat IPC: 0.7129 cumulative IPC: 1.037 (Simulation time: 00 hr 52 min 15 sec)
Heartbeat CPU 0 instructions: 420000081 cycles: 407256410 heartbeat IPC: 0.8533 cumulative IPC: 1.031 (Simulation time: 00 hr 53 min 49 sec)
[ERROR_CYCLE] Error added at CPU cycle 418357450, interval 9, pending count: 1
[DRAM_CYCLE_ERROR] Cycle-based error applied! address=0xdafd5f8c8 additional_latency=1990500 cycles
Heartbeat CPU 0 instructions: 430000081 cycles: 421007416 heartbeat IPC: 0.7272 cumulative IPC: 1.021 (Simulation time: 00 hr 55 min 39 sec)
Heartbeat CPU 0 instructions: 440000082 cycles: 434392457 heartbeat IPC: 0.7471 cumulative IPC: 1.013 (Simulation time: 00 hr 57 min 29 sec)
Heartbeat CPU 0 instructions: 450000084 cycles: 445872831 heartbeat IPC: 0.8711 cumulative IPC: 1.009 (Simulation time: 00 hr 59 min 03 sec)
Heartbeat CPU 0 instructions: 460000086 cycles: 460839600 heartbeat IPC: 0.6681 cumulative IPC: 0.9982 (Simulation time: 01 hr 01 min 07 sec)
[ERROR_CYCLE] Error added at CPU cycle 464841611, interval 10, pending count: 1
[DRAM_CYCLE_ERROR] Cycle-based error applied! address=0x613e94a84 additional_latency=1990500 cycles
Heartbeat CPU 0 instructions: 470000088 cycles: 477444280 heartbeat IPC: 0.6022 cumulative IPC: 0.9844 (Simulation time: 01 hr 03 min 05 sec)
Heartbeat CPU 0 instructions: 480000092 cycles: 483376240 heartbeat IPC: 1.686 cumulative IPC: 0.993 (Simulation time: 01 hr 04 min 02 sec)
Heartbeat CPU 0 instructions: 490000093 cycles: 490449383 heartbeat IPC: 1.414 cumulative IPC: 0.9991 (Simulation time: 01 hr 05 min 02 sec)
Heartbeat CPU 0 instructions: 500000095 cycles: 499210881 heartbeat IPC: 1.141 cumulative IPC: 1.002 (Simulation time: 01 hr 06 min 11 sec)
Heartbeat CPU 0 instructions: 510000095 cycles: 510063618 heartbeat IPC: 0.9214 cumulative IPC: 0.9999 (Simulation time: 01 hr 07 min 45 sec)
[ERROR_CYCLE] Error added at CPU cycle 511325771, interval 11, pending count: 1
[DRAM_CYCLE_ERROR] Cycle-based error applied! address=0xc4545c840 additional_latency=1990500 cycles
Heartbeat CPU 0 instructions: 520000098 cycles: 516086713 heartbeat IPC: 1.66 cumulative IPC: 1.008 (Simulation time: 01 hr 08 min 51 sec)
Heartbeat CPU 0 instructions: 530000101 cycles: 523254409 heartbeat IPC: 1.395 cumulative IPC: 1.013 (Simulation time: 01 hr 10 min 05 sec)
Heartbeat CPU 0 instructions: 540000102 cycles: 532777338 heartbeat IPC: 1.05 cumulative IPC: 1.014 (Simulation time: 01 hr 11 min 31 sec)
Heartbeat CPU 0 instructions: 550000103 cycles: 543942696 heartbeat IPC: 0.8956 cumulative IPC: 1.011 (Simulation time: 01 hr 13 min 04 sec)
Heartbeat CPU 0 instructions: 560000103 cycles: 550046136 heartbeat IPC: 1.638 cumulative IPC: 1.018 (Simulation time: 01 hr 13 min 54 sec)
Heartbeat CPU 0 instructions: 570000103 cycles: 557285336 heartbeat IPC: 1.381 cumulative IPC: 1.023 (Simulation time: 01 hr 15 min 00 sec)
[ERROR_CYCLE] Error added at CPU cycle 557809932, interval 12, pending count: 1
[DRAM_CYCLE_ERROR] Cycle-based error applied! address=0xc455eaf40 additional_latency=1990500 cycles
Heartbeat CPU 0 instructions: 580000103 cycles: 566849696 heartbeat IPC: 1.046 cumulative IPC: 1.023 (Simulation time: 01 hr 16 min 26 sec)
Heartbeat CPU 0 instructions: 590000103 cycles: 577745904 heartbeat IPC: 0.9178 cumulative IPC: 1.021 (Simulation time: 01 hr 17 min 44 sec)
Heartbeat CPU 0 instructions: 600000105 cycles: 583878030 heartbeat IPC: 1.631 cumulative IPC: 1.028 (Simulation time: 01 hr 18 min 51 sec)
Heartbeat CPU 0 instructions: 610000108 cycles: 591138952 heartbeat IPC: 1.377 cumulative IPC: 1.032 (Simulation time: 01 hr 20 min 06 sec)
Heartbeat CPU 0 instructions: 620000112 cycles: 601033592 heartbeat IPC: 1.011 cumulative IPC: 1.032 (Simulation time: 01 hr 21 min 33 sec)
[ERROR_CYCLE] Error added at CPU cycle 604294093, interval 13, pending count: 1
[DRAM_CYCLE_ERROR] Cycle-based error applied! address=0xc4555f2c8 additional_latency=1990500 cycles
Heartbeat CPU 0 instructions: 630000114 cycles: 612030644 heartbeat IPC: 0.9093 cumulative IPC: 1.029 (Simulation time: 01 hr 22 min 49 sec)
Heartbeat CPU 0 instructions: 640000115 cycles: 618167572 heartbeat IPC: 1.629 cumulative IPC: 1.035 (Simulation time: 01 hr 23 min 53 sec)
Heartbeat CPU 0 instructions: 650000116 cycles: 625423211 heartbeat IPC: 1.378 cumulative IPC: 1.039 (Simulation time: 01 hr 25 min 06 sec)
Heartbeat CPU 0 instructions: 660000117 cycles: 635346379 heartbeat IPC: 1.008 cumulative IPC: 1.039 (Simulation time: 01 hr 26 min 08 sec)
Heartbeat CPU 0 instructions: 670000118 cycles: 646966453 heartbeat IPC: 0.8606 cumulative IPC: 1.036 (Simulation time: 01 hr 27 min 22 sec)
[ERROR_CYCLE] Error added at CPU cycle 650778254, interval 14, pending count: 1
[DRAM_CYCLE_ERROR] Cycle-based error applied! address=0x40c341f00 additional_latency=1990500 cycles
Heartbeat CPU 0 instructions: 680000120 cycles: 653305639 heartbeat IPC: 1.577 cumulative IPC: 1.041 (Simulation time: 01 hr 28 min 26 sec)
Heartbeat CPU 0 instructions: 690000121 cycles: 659662509 heartbeat IPC: 1.573 cumulative IPC: 1.046 (Simulation time: 01 hr 29 min 31 sec)
Heartbeat CPU 0 instructions: 700000122 cycles: 666012785 heartbeat IPC: 1.575 cumulative IPC: 1.051 (Simulation time: 01 hr 30 min 30 sec)
Heartbeat CPU 0 instructions: 710000122 cycles: 673184963 heartbeat IPC: 1.394 cumulative IPC: 1.055 (Simulation time: 01 hr 31 min 41 sec)
Heartbeat CPU 0 instructions: 720000123 cycles: 680000678 heartbeat IPC: 1.467 cumulative IPC: 1.059 (Simulation time: 01 hr 32 min 52 sec)
Heartbeat CPU 0 instructions: 730000123 cycles: 686956061 heartbeat IPC: 1.438 cumulative IPC: 1.063 (Simulation time: 01 hr 34 min 04 sec)
Heartbeat CPU 0 instructions: 740000127 cycles: 694802904 heartbeat IPC: 1.274 cumulative IPC: 1.065 (Simulation time: 01 hr 35 min 19 sec)
[ERROR_CYCLE] Error added at CPU cycle 697262415, interval 15, pending count: 1
[DRAM_CYCLE_ERROR] Cycle-based error applied! address=0x3db51680 additional_latency=1990500 cycles
Heartbeat CPU 0 instructions: 750000127 cycles: 702489583 heartbeat IPC: 1.301 cumulative IPC: 1.068 (Simulation time: 01 hr 36 min 19 sec)
Heartbeat CPU 0 instructions: 760000130 cycles: 710275443 heartbeat IPC: 1.284 cumulative IPC: 1.07 (Simulation time: 01 hr 37 min 20 sec)
Heartbeat CPU 0 instructions: 770000130 cycles: 718037685 heartbeat IPC: 1.288 cumulative IPC: 1.072 (Simulation time: 01 hr 38 min 16 sec)
Heartbeat CPU 0 instructions: 780000130 cycles: 725809343 heartbeat IPC: 1.287 cumulative IPC: 1.075 (Simulation time: 01 hr 39 min 16 sec)
Heartbeat CPU 0 instructions: 790000130 cycles: 733680026 heartbeat IPC: 1.271 cumulative IPC: 1.077 (Simulation time: 01 hr 40 min 16 sec)
Heartbeat CPU 0 instructions: 800000131 cycles: 741424044 heartbeat IPC: 1.291 cumulative IPC: 1.079 (Simulation time: 01 hr 41 min 16 sec)
[ERROR_CYCLE] Error added at CPU cycle 743746576, interval 16, pending count: 1
[DRAM_CYCLE_ERROR] Cycle-based error applied! address=0x7d76bff28 additional_latency=1990500 cycles
Heartbeat CPU 0 instructions: 810000131 cycles: 749252432 heartbeat IPC: 1.277 cumulative IPC: 1.081 (Simulation time: 01 hr 42 min 17 sec)
Heartbeat CPU 0 instructions: 820000135 cycles: 757171087 heartbeat IPC: 1.263 cumulative IPC: 1.083 (Simulation time: 01 hr 43 min 18 sec)
Heartbeat CPU 0 instructions: 830000138 cycles: 764822878 heartbeat IPC: 1.307 cumulative IPC: 1.085 (Simulation time: 01 hr 44 min 17 sec)
Heartbeat CPU 0 instructions: 840000139 cycles: 772877336 heartbeat IPC: 1.242 cumulative IPC: 1.087 (Simulation time: 01 hr 45 min 00 sec)
Heartbeat CPU 0 instructions: 850000141 cycles: 780599499 heartbeat IPC: 1.295 cumulative IPC: 1.089 (Simulation time: 01 hr 46 min 01 sec)
Heartbeat CPU 0 instructions: 860000141 cycles: 788664156 heartbeat IPC: 1.24 cumulative IPC: 1.09 (Simulation time: 01 hr 46 min 45 sec)
[ERROR_CYCLE] Error added at CPU cycle 790230737, interval 17, pending count: 1
[DRAM_CYCLE_ERROR] Cycle-based error applied! address=0xc39f7a5bc additional_latency=1990500 cycles
Heartbeat CPU 0 instructions: 870000142 cycles: 796439890 heartbeat IPC: 1.286 cumulative IPC: 1.092 (Simulation time: 01 hr 47 min 28 sec)
Heartbeat CPU 0 instructions: 880000145 cycles: 804415081 heartbeat IPC: 1.254 cumulative IPC: 1.094 (Simulation time: 01 hr 48 min 20 sec)
Heartbeat CPU 0 instructions: 890000145 cycles: 812456414 heartbeat IPC: 1.244 cumulative IPC: 1.095 (Simulation time: 01 hr 49 min 15 sec)
Heartbeat CPU 0 instructions: 900000145 cycles: 820186993 heartbeat IPC: 1.294 cumulative IPC: 1.097 (Simulation time: 01 hr 50 min 01 sec)
Heartbeat CPU 0 instructions: 910000145 cycles: 828515689 heartbeat IPC: 1.201 cumulative IPC: 1.098 (Simulation time: 01 hr 50 min 53 sec)
Heartbeat CPU 0 instructions: 920000148 cycles: 836421718 heartbeat IPC: 1.265 cumulative IPC: 1.1 (Simulation time: 01 hr 51 min 45 sec)
[ERROR_CYCLE] Error added at CPU cycle 836714899, interval 18, pending count: 1
[DRAM_CYCLE_ERROR] Cycle-based error applied! address=0xc39f7b03c additional_latency=1990500 cycles
Heartbeat CPU 0 instructions: 930000152 cycles: 844407391 heartbeat IPC: 1.252 cumulative IPC: 1.101 (Simulation time: 01 hr 52 min 27 sec)
Heartbeat CPU 0 instructions: 940000153 cycles: 852475441 heartbeat IPC: 1.239 cumulative IPC: 1.103 (Simulation time: 01 hr 53 min 19 sec)
Heartbeat CPU 0 instructions: 950000153 cycles: 860313696 heartbeat IPC: 1.276 cumulative IPC: 1.104 (Simulation time: 01 hr 53 min 59 sec)
Heartbeat CPU 0 instructions: 960000154 cycles: 868463430 heartbeat IPC: 1.227 cumulative IPC: 1.105 (Simulation time: 01 hr 54 min 57 sec)
Heartbeat CPU 0 instructions: 970000155 cycles: 876264842 heartbeat IPC: 1.282 cumulative IPC: 1.107 (Simulation time: 01 hr 55 min 56 sec)
[ERROR_CYCLE] Error added at CPU cycle 883199060, interval 19, pending count: 1
Heartbeat CPU 0 instructions: 980000156 cycles: 884507329 heartbeat IPC: 1.213 cumulative IPC: 1.108 (Simulation time: 01 hr 56 min 48 sec)
[DRAM_CYCLE_ERROR] Cycle-based error applied! address=0x7d76f95e8 additional_latency=1990500 cycles
Heartbeat CPU 0 instructions: 990000156 cycles: 892248396 heartbeat IPC: 1.292 cumulative IPC: 1.11 (Simulation time: 01 hr 57 min 35 sec)
Heartbeat CPU 0 instructions: 1000000156 cycles: 900481679 heartbeat IPC: 1.215 cumulative IPC: 1.111 (Simulation time: 01 hr 58 min 21 sec)
Heartbeat CPU 0 instructions: 1010000159 cycles: 908168784 heartbeat IPC: 1.301 cumulative IPC: 1.112 (Simulation time: 01 hr 59 min 06 sec)
Heartbeat CPU 0 instructions: 1020000162 cycles: 916303549 heartbeat IPC: 1.229 cumulative IPC: 1.113 (Simulation time: 01 hr 59 min 58 sec)
Heartbeat CPU 0 instructions: 1030000163 cycles: 924182538 heartbeat IPC: 1.269 cumulative IPC: 1.114 (Simulation time: 02 hr 00 min 44 sec)
[ERROR_CYCLE] Error added at CPU cycle 929683221, interval 20, pending count: 1
[DRAM_CYCLE_ERROR] Cycle-based error applied! address=0x47e3a5028 additional_latency=1990500 cycles
Heartbeat CPU 0 instructions: 1040000163 cycles: 932380198 heartbeat IPC: 1.22 cumulative IPC: 1.115 (Simulation time: 02 hr 01 min 35 sec)
Heartbeat CPU 0 instructions: 1050000164 cycles: 940364849 heartbeat IPC: 1.252 cumulative IPC: 1.117 (Simulation time: 02 hr 02 min 36 sec)
Heartbeat CPU 0 instructions: 1060000168 cycles: 948104414 heartbeat IPC: 1.292 cumulative IPC: 1.118 (Simulation time: 02 hr 03 min 33 sec)
Heartbeat CPU 0 instructions: 1070000171 cycles: 956241762 heartbeat IPC: 1.229 cumulative IPC: 1.119 (Simulation time: 02 hr 04 min 35 sec)
Heartbeat CPU 0 instructions: 1080000171 cycles: 964165153 heartbeat IPC: 1.262 cumulative IPC: 1.12 (Simulation time: 02 hr 05 min 36 sec)
Heartbeat CPU 0 instructions: 1090000171 cycles: 972121223 heartbeat IPC: 1.257 cumulative IPC: 1.121 (Simulation time: 02 hr 06 min 38 sec)
[ERROR_CYCLE] Error added at CPU cycle 976167382, interval 21, pending count: 1
[DRAM_CYCLE_ERROR] Cycle-based error applied! address=0x47e3b9ae8 additional_latency=1990500 cycles
Heartbeat CPU 0 instructions: 1100000172 cycles: 979930105 heartbeat IPC: 1.281 cumulative IPC: 1.123 (Simulation time: 02 hr 07 min 38 sec)
Heartbeat CPU 0 instructions: 1110000172 cycles: 987880860 heartbeat IPC: 1.258 cumulative IPC: 1.124 (Simulation time: 02 hr 08 min 39 sec)
Heartbeat CPU 0 instructions: 1120000175 cycles: 995524491 heartbeat IPC: 1.308 cumulative IPC: 1.125 (Simulation time: 02 hr 09 min 38 sec)
Heartbeat CPU 0 instructions: 1130000177 cycles: 1003944538 heartbeat IPC: 1.188 cumulative IPC: 1.126 (Simulation time: 02 hr 10 min 28 sec)
Heartbeat CPU 0 instructions: 1140000177 cycles: 1011768815 heartbeat IPC: 1.278 cumulative IPC: 1.127 (Simulation time: 02 hr 11 min 27 sec)
Heartbeat CPU 0 instructions: 1150000177 cycles: 1018135345 heartbeat IPC: 1.571 cumulative IPC: 1.13 (Simulation time: 02 hr 12 min 09 sec)
[ERROR_CYCLE] Error added at CPU cycle 1022651542, interval 22, pending count: 1
[DRAM_CYCLE_ERROR] Cycle-based error applied! address=0xbdf441158 additional_latency=1990500 cycles
Heartbeat CPU 0 instructions: 1160000177 cycles: 1024519908 heartbeat IPC: 1.566 cumulative IPC: 1.132 (Simulation time: 02 hr 12 min 55 sec)
Heartbeat CPU 0 instructions: 1170000178 cycles: 1034294052 heartbeat IPC: 1.023 cumulative IPC: 1.131 (Simulation time: 02 hr 14 min 05 sec)
Heartbeat CPU 0 instructions: 1180000178 cycles: 1049897821 heartbeat IPC: 0.6409 cumulative IPC: 1.124 (Simulation time: 02 hr 15 min 54 sec)
Heartbeat CPU 0 instructions: 1190000178 cycles: 1059136586 heartbeat IPC: 1.082 cumulative IPC: 1.124 (Simulation time: 02 hr 17 min 15 sec)
Heartbeat CPU 0 instructions: 1200000178 cycles: 1066266469 heartbeat IPC: 1.403 cumulative IPC: 1.125 (Simulation time: 02 hr 18 min 03 sec)
[ERROR_CYCLE] Error added at CPU cycle 1069135703, interval 23, pending count: 1
[DRAM_CYCLE_ERROR] Cycle-based error applied! address=0xbdf427f80 additional_latency=1990500 cycles
Heartbeat CPU 0 instructions: 1210000178 cycles: 1073409084 heartbeat IPC: 1.4 cumulative IPC: 1.127 (Simulation time: 02 hr 18 min 55 sec)
Heartbeat CPU 0 instructions: 1220000179 cycles: 1080527646 heartbeat IPC: 1.405 cumulative IPC: 1.129 (Simulation time: 02 hr 19 min 51 sec)
Heartbeat CPU 0 instructions: 1230000179 cycles: 1096041640 heartbeat IPC: 0.6446 cumulative IPC: 1.122 (Simulation time: 02 hr 21 min 28 sec)
Heartbeat CPU 0 instructions: 1240000181 cycles: 1106977505 heartbeat IPC: 0.9144 cumulative IPC: 1.12 (Simulation time: 02 hr 22 min 57 sec)
Heartbeat CPU 0 instructions: 1250000185 cycles: 1114768583 heartbeat IPC: 1.284 cumulative IPC: 1.121 (Simulation time: 02 hr 23 min 57 sec)
[ERROR_CYCLE] Error added at CPU cycle 1115619864, interval 24, pending count: 1
[DRAM_CYCLE_ERROR] Cycle-based error applied! address=0xc4553abc0 additional_latency=1990500 cycles
Heartbeat CPU 0 instructions: 1260000185 cycles: 1122524431 heartbeat IPC: 1.289 cumulative IPC: 1.122 (Simulation time: 02 hr 24 min 57 sec)
Heartbeat CPU 0 instructions: 1270000185 cycles: 1130275095 heartbeat IPC: 1.29 cumulative IPC: 1.124 (Simulation time: 02 hr 25 min 56 sec)
Heartbeat CPU 0 instructions: 1280000185 cycles: 1138023146 heartbeat IPC: 1.291 cumulative IPC: 1.125 (Simulation time: 02 hr 26 min 54 sec)
Heartbeat CPU 0 instructions: 1290000185 cycles: 1145767033 heartbeat IPC: 1.291 cumulative IPC: 1.126 (Simulation time: 02 hr 27 min 35 sec)
Heartbeat CPU 0 instructions: 1300000186 cycles: 1153512674 heartbeat IPC: 1.291 cumulative IPC: 1.127 (Simulation time: 02 hr 28 min 21 sec)
Heartbeat CPU 0 instructions: 1310000188 cycles: 1161242666 heartbeat IPC: 1.294 cumulative IPC: 1.128 (Simulation time: 02 hr 29 min 01 sec)
[ERROR_CYCLE] Error added at CPU cycle 1162104025, interval 25, pending count: 1
[DRAM_CYCLE_ERROR] Cycle-based error applied! address=0xc4553b3c0 additional_latency=1990500 cycles
Heartbeat CPU 0 instructions: 1320000191 cycles: 1168962236 heartbeat IPC: 1.295 cumulative IPC: 1.129 (Simulation time: 02 hr 29 min 49 sec)
Heartbeat CPU 0 instructions: 1330000194 cycles: 1176664865 heartbeat IPC: 1.298 cumulative IPC: 1.13 (Simulation time: 02 hr 30 min 35 sec)
Heartbeat CPU 0 instructions: 1340000195 cycles: 1184355319 heartbeat IPC: 1.3 cumulative IPC: 1.131 (Simulation time: 02 hr 31 min 25 sec)
Heartbeat CPU 0 instructions: 1350000198 cycles: 1192029444 heartbeat IPC: 1.303 cumulative IPC: 1.133 (Simulation time: 02 hr 32 min 12 sec)
Heartbeat CPU 0 instructions: 1360000198 cycles: 1199688621 heartbeat IPC: 1.306 cumulative IPC: 1.134 (Simulation time: 02 hr 33 min 01 sec)
Heartbeat CPU 0 instructions: 1370000200 cycles: 1207359835 heartbeat IPC: 1.304 cumulative IPC: 1.135 (Simulation time: 02 hr 33 min 49 sec)
[ERROR_CYCLE] Error added at CPU cycle 1208588186, interval 26, pending count: 1
[DRAM_CYCLE_ERROR] Cycle-based error applied! address=0xc4553bc00 additional_latency=1990500 cycles
Heartbeat CPU 0 instructions: 1380000201 cycles: 1215027466 heartbeat IPC: 1.304 cumulative IPC: 1.136 (Simulation time: 02 hr 34 min 38 sec)
Heartbeat CPU 0 instructions: 1390000201 cycles: 1222694678 heartbeat IPC: 1.304 cumulative IPC: 1.137 (Simulation time: 02 hr 35 min 21 sec)
Heartbeat CPU 0 instructions: 1400000205 cycles: 1230364609 heartbeat IPC: 1.304 cumulative IPC: 1.138 (Simulation time: 02 hr 36 min 02 sec)
Heartbeat CPU 0 instructions: 1410000206 cycles: 1238035938 heartbeat IPC: 1.304 cumulative IPC: 1.139 (Simulation time: 02 hr 36 min 50 sec)
Heartbeat CPU 0 instructions: 1420000206 cycles: 1245719000 heartbeat IPC: 1.302 cumulative IPC: 1.14 (Simulation time: 02 hr 37 min 33 sec)
Heartbeat CPU 0 instructions: 1430000210 cycles: 1253404174 heartbeat IPC: 1.301 cumulative IPC: 1.141 (Simulation time: 02 hr 38 min 16 sec)
[ERROR_CYCLE] Error added at CPU cycle 1255072347, interval 27, pending count: 1
[DRAM_CYCLE_ERROR] Cycle-based error applied! address=0xc4553c440 additional_latency=1990500 cycles
Heartbeat CPU 0 instructions: 1440000213 cycles: 1261097416 heartbeat IPC: 1.3 cumulative IPC: 1.142 (Simulation time: 02 hr 39 min 15 sec)
Heartbeat CPU 0 instructions: 1450000214 cycles: 1268773658 heartbeat IPC: 1.303 cumulative IPC: 1.143 (Simulation time: 02 hr 40 min 14 sec)
Heartbeat CPU 0 instructions: 1460000214 cycles: 1276451415 heartbeat IPC: 1.302 cumulative IPC: 1.144 (Simulation time: 02 hr 41 min 14 sec)
Heartbeat CPU 0 instructions: 1470000214 cycles: 1284131439 heartbeat IPC: 1.302 cumulative IPC: 1.145 (Simulation time: 02 hr 42 min 13 sec)
Heartbeat CPU 0 instructions: 1480000214 cycles: 1291814144 heartbeat IPC: 1.302 cumulative IPC: 1.146 (Simulation time: 02 hr 43 min 13 sec)
Heartbeat CPU 0 instructions: 1490000216 cycles: 1299500361 heartbeat IPC: 1.301 cumulative IPC: 1.147 (Simulation time: 02 hr 44 min 13 sec)
[ERROR_CYCLE] Error added at CPU cycle 1301556508, interval 28, pending count: 1
[DRAM_CYCLE_ERROR] Cycle-based error applied! address=0xc4553cc80 additional_latency=1990500 cycles
Heartbeat CPU 0 instructions: 1500000217 cycles: 1307189767 heartbeat IPC: 1.3 cumulative IPC: 1.147 (Simulation time: 02 hr 45 min 12 sec)
Heartbeat CPU 0 instructions: 1510000220 cycles: 1314875424 heartbeat IPC: 1.301 cumulative IPC: 1.148 (Simulation time: 02 hr 46 min 12 sec)
Heartbeat CPU 0 instructions: 1520000220 cycles: 1322551532 heartbeat IPC: 1.303 cumulative IPC: 1.149 (Simulation time: 02 hr 47 min 11 sec)
Heartbeat CPU 0 instructions: 1530000221 cycles: 1330233835 heartbeat IPC: 1.302 cumulative IPC: 1.15 (Simulation time: 02 hr 48 min 10 sec)
Heartbeat CPU 0 instructions: 1540000221 cycles: 1337908190 heartbeat IPC: 1.303 cumulative IPC: 1.151 (Simulation time: 02 hr 49 min 10 sec)
Heartbeat CPU 0 instructions: 1550000222 cycles: 1345575563 heartbeat IPC: 1.304 cumulative IPC: 1.152 (Simulation time: 02 hr 50 min 09 sec)
[ERROR_CYCLE] Error added at CPU cycle 1348040670, interval 29, pending count: 1
[DRAM_CYCLE_ERROR] Cycle-based error applied! address=0x3e844c540 additional_latency=1990500 cycles
Heartbeat CPU 0 instructions: 1560000222 cycles: 1353208432 heartbeat IPC: 1.31 cumulative IPC: 1.153 (Simulation time: 02 hr 51 min 08 sec)
Heartbeat CPU 0 instructions: 1570000222 cycles: 1360843082 heartbeat IPC: 1.31 cumulative IPC: 1.154 (Simulation time: 02 hr 52 min 08 sec)
Heartbeat CPU 0 instructions: 1580000222 cycles: 1368491341 heartbeat IPC: 1.307 cumulative IPC: 1.155 (Simulation time: 02 hr 53 min 00 sec)
Heartbeat CPU 0 instructions: 1590000225 cycles: 1376140805 heartbeat IPC: 1.307 cumulative IPC: 1.155 (Simulation time: 02 hr 53 min 44 sec)
Heartbeat CPU 0 instructions: 1600000229 cycles: 1383780982 heartbeat IPC: 1.309 cumulative IPC: 1.156 (Simulation time: 02 hr 54 min 32 sec)
Heartbeat CPU 0 instructions: 1610000233 cycles: 1391425983 heartbeat IPC: 1.308 cumulative IPC: 1.157 (Simulation time: 02 hr 55 min 21 sec)
[ERROR_CYCLE] Error added at CPU cycle 1394524831, interval 30, pending count: 1
[DRAM_CYCLE_ERROR] Cycle-based error applied! address=0x3e844cd80 additional_latency=1990500 cycles
Heartbeat CPU 0 instructions: 1620000233 cycles: 1399062402 heartbeat IPC: 1.31 cumulative IPC: 1.158 (Simulation time: 02 hr 56 min 04 sec)
Heartbeat CPU 0 instructions: 1630000235 cycles: 1406708136 heartbeat IPC: 1.308 cumulative IPC: 1.159 (Simulation time: 02 hr 57 min 01 sec)
Heartbeat CPU 0 instructions: 1640000237 cycles: 1414354606 heartbeat IPC: 1.308 cumulative IPC: 1.16 (Simulation time: 02 hr 58 min 01 sec)
Heartbeat CPU 0 instructions: 1650000238 cycles: 1422005529 heartbeat IPC: 1.307 cumulative IPC: 1.16 (Simulation time: 02 hr 58 min 47 sec)
Heartbeat CPU 0 instructions: 1660000238 cycles: 1429665620 heartbeat IPC: 1.305 cumulative IPC: 1.161 (Simulation time: 02 hr 59 min 29 sec)
Heartbeat CPU 0 instructions: 1670000242 cycles: 1437331498 heartbeat IPC: 1.304 cumulative IPC: 1.162 (Simulation time: 03 hr 00 min 14 sec)
[ERROR_CYCLE] Error added at CPU cycle 1441008992, interval 31, pending count: 1
[DRAM_CYCLE_ERROR] Cycle-based error applied! address=0xfddcc400 additional_latency=1990500 cycles
Heartbeat CPU 0 instructions: 1680000242 cycles: 1445014502 heartbeat IPC: 1.302 cumulative IPC: 1.163 (Simulation time: 03 hr 01 min 05 sec)
Heartbeat CPU 0 instructions: 1690000242 cycles: 1452695890 heartbeat IPC: 1.302 cumulative IPC: 1.163 (Simulation time: 03 hr 01 min 55 sec)
Heartbeat CPU 0 instructions: 1700000242 cycles: 1460369551 heartbeat IPC: 1.303 cumulative IPC: 1.164 (Simulation time: 03 hr 02 min 40 sec)
Heartbeat CPU 0 instructions: 1710000242 cycles: 1468044663 heartbeat IPC: 1.303 cumulative IPC: 1.165 (Simulation time: 03 hr 03 min 34 sec)
Heartbeat CPU 0 instructions: 1720000243 cycles: 1475720431 heartbeat IPC: 1.303 cumulative IPC: 1.166 (Simulation time: 03 hr 04 min 29 sec)
Heartbeat CPU 0 instructions: 1730000244 cycles: 1483395451 heartbeat IPC: 1.303 cumulative IPC: 1.166 (Simulation time: 03 hr 05 min 28 sec)
[ERROR_CYCLE] Error added at CPU cycle 1487493153, interval 32, pending count: 1
[DRAM_CYCLE_ERROR] Cycle-based error applied! address=0xfddccc00 additional_latency=1990500 cycles
Heartbeat CPU 0 instructions: 1740000244 cycles: 1491078155 heartbeat IPC: 1.302 cumulative IPC: 1.167 (Simulation time: 03 hr 06 min 28 sec)
Heartbeat CPU 0 instructions: 1750000247 cycles: 1498751385 heartbeat IPC: 1.303 cumulative IPC: 1.168 (Simulation time: 03 hr 07 min 27 sec)
Heartbeat CPU 0 instructions: 1760000248 cycles: 1506426466 heartbeat IPC: 1.303 cumulative IPC: 1.168 (Simulation time: 03 hr 08 min 27 sec)
Heartbeat CPU 0 instructions: 1770000248 cycles: 1514106639 heartbeat IPC: 1.302 cumulative IPC: 1.169 (Simulation time: 03 hr 09 min 27 sec)
Heartbeat CPU 0 instructions: 1780000248 cycles: 1521781491 heartbeat IPC: 1.303 cumulative IPC: 1.17 (Simulation time: 03 hr 10 min 26 sec)
Heartbeat CPU 0 instructions: 1790000249 cycles: 1529466694 heartbeat IPC: 1.301 cumulative IPC: 1.17 (Simulation time: 03 hr 11 min 26 sec)
[ERROR_CYCLE] Error added at CPU cycle 1533977313, interval 33, pending count: 1
[DRAM_CYCLE_ERROR] Cycle-based error applied! address=0x3e844e5c0 additional_latency=1990500 cycles
Heartbeat CPU 0 instructions: 1800000251 cycles: 1537139591 heartbeat IPC: 1.303 cumulative IPC: 1.171 (Simulation time: 03 hr 12 min 25 sec)
Heartbeat CPU 0 instructions: 1810000252 cycles: 1544813686 heartbeat IPC: 1.303 cumulative IPC: 1.172 (Simulation time: 03 hr 13 min 24 sec)
Heartbeat CPU 0 instructions: 1820000253 cycles: 1552489854 heartbeat IPC: 1.303 cumulative IPC: 1.172 (Simulation time: 03 hr 14 min 24 sec)
Heartbeat CPU 0 instructions: 1830000253 cycles: 1559581821 heartbeat IPC: 1.41 cumulative IPC: 1.173 (Simulation time: 03 hr 15 min 22 sec)
Heartbeat CPU 0 instructions: 1840000256 cycles: 1565701602 heartbeat IPC: 1.634 cumulative IPC: 1.175 (Simulation time: 03 hr 16 min 04 sec)
Heartbeat CPU 0 instructions: 1850000259 cycles: 1571983206 heartbeat IPC: 1.592 cumulative IPC: 1.177 (Simulation time: 03 hr 16 min 49 sec)
Heartbeat CPU 0 instructions: 1860000260 cycles: 1578351577 heartbeat IPC: 1.57 cumulative IPC: 1.178 (Simulation time: 03 hr 17 min 41 sec)
[ERROR_CYCLE] Error added at CPU cycle 1580461474, interval 34, pending count: 1
[DRAM_CYCLE_ERROR] Cycle-based error applied! address=0x1e6d7aec0 additional_latency=1990500 cycles
Heartbeat CPU 0 instructions: 1870000261 cycles: 1584755908 heartbeat IPC: 1.561 cumulative IPC: 1.18 (Simulation time: 03 hr 18 min 37 sec)
Heartbeat CPU 0 instructions: 1880000262 cycles: 1591272704 heartbeat IPC: 1.534 cumulative IPC: 1.181 (Simulation time: 03 hr 19 min 35 sec)
Heartbeat CPU 0 instructions: 1890000262 cycles: 1597771003 heartbeat IPC: 1.539 cumulative IPC: 1.183 (Simulation time: 03 hr 20 min 35 sec)
Heartbeat CPU 0 instructions: 1900000263 cycles: 1603076404 heartbeat IPC: 1.885 cumulative IPC: 1.185 (Simulation time: 03 hr 21 min 25 sec)
Heartbeat CPU 0 instructions: 1910000263 cycles: 1608323743 heartbeat IPC: 1.906 cumulative IPC: 1.188 (Simulation time: 03 hr 22 min 16 sec)
Heartbeat CPU 0 instructions: 1920000264 cycles: 1613719832 heartbeat IPC: 1.853 cumulative IPC: 1.19 (Simulation time: 03 hr 23 min 08 sec)
Heartbeat CPU 0 instructions: 1930000266 cycles: 1619020964 heartbeat IPC: 1.886 cumulative IPC: 1.192 (Simulation time: 03 hr 24 min 00 sec)
Heartbeat CPU 0 instructions: 1940000269 cycles: 1624279077 heartbeat IPC: 1.902 cumulative IPC: 1.194 (Simulation time: 03 hr 24 min 52 sec)
[ERROR_CYCLE] Error added at CPU cycle 1626945635, interval 35, pending count: 1
[DRAM_CYCLE_ERROR] Cycle-based error applied! address=0x9928fbbc0 additional_latency=1990500 cycles
Heartbeat CPU 0 instructions: 1950000269 cycles: 1629638111 heartbeat IPC: 1.866 cumulative IPC: 1.197 (Simulation time: 03 hr 25 min 43 sec)
Heartbeat CPU 0 instructions: 1960000270 cycles: 1634950885 heartbeat IPC: 1.882 cumulative IPC: 1.199 (Simulation time: 03 hr 26 min 35 sec)
Heartbeat CPU 0 instructions: 1970000274 cycles: 1640250081 heartbeat IPC: 1.887 cumulative IPC: 1.201 (Simulation time: 03 hr 27 min 27 sec)
Heartbeat CPU 0 instructions: 1980000277 cycles: 1645503297 heartbeat IPC: 1.904 cumulative IPC: 1.203 (Simulation time: 03 hr 28 min 20 sec)
Heartbeat CPU 0 instructions: 1990000280 cycles: 1650737427 heartbeat IPC: 1.911 cumulative IPC: 1.206 (Simulation time: 03 hr 29 min 12 sec)

=== ERROR PAGE STATISTICS ===
Mode: CYCLE
Error Cycle Interval: 46484161 CPU cycles
Total Error Accesses: 35
==============================
Simulation finished CPU 0 instructions: 1999999880 cycles: 1659075551 cumulative IPC: 1.205 (Simulation time: 03 hr 30 min 26 sec)
Simulation complete CPU 0 instructions: 1999999880 cycles: 1659075551 cumulative IPC: 1.205 (Simulation time: 03 hr 30 min 26 sec)

ChampSim completed all CPUs

=== Simulation ===
CPU 0 runs test_traces/621.wrf_s-6673B.champsimtrace.xz

Region of Interest Statistics

CPU 0 cumulative IPC: 1.205 instructions: 1999999880 cycles: 1659075551
CPU 0 Branch Prediction Accuracy: 93.25% MPKI: 6.743 Average ROB Occupancy at Mispredict: 67.09
Branch type MPKI
BRANCH_DIRECT_JUMP: 0.00112
BRANCH_INDIRECT: 6.95e-05
BRANCH_CONDITIONAL: 5.98
BRANCH_DIRECT_CALL: 0.002089
BRANCH_INDIRECT_CALL: 2e-06
BRANCH_RETURN: 0.7595

cpu0->cpu0_STLB TOTAL        ACCESS:        124 HIT:         45 MISS:         79 MSHR_MERGE:          0
cpu0->cpu0_STLB LOAD         ACCESS:        124 HIT:         45 MISS:         79 MSHR_MERGE:          0
cpu0->cpu0_STLB RFO          ACCESS:          0 HIT:          0 MISS:          0 MSHR_MERGE:          0
cpu0->cpu0_STLB PREFETCH     ACCESS:          0 HIT:          0 MISS:          0 MSHR_MERGE:          0
cpu0->cpu0_STLB WRITE        ACCESS:          0 HIT:          0 MISS:          0 MSHR_MERGE:          0
cpu0->cpu0_STLB TRANSLATION  ACCESS:          0 HIT:          0 MISS:          0 MSHR_MERGE:          0
cpu0->cpu0_STLB PREFETCH REQUESTED:          0 ISSUED:          0 USEFUL:          0 USELESS:          0
cpu0->cpu0_STLB AVERAGE MISS LATENCY: 9392 cycles
cpu0->cpu0_L2C TOTAL        ACCESS:   24599332 HIT:   13032896 MISS:   11566436 MSHR_MERGE:          0
cpu0->cpu0_L2C LOAD         ACCESS:   13805933 HIT:    4693354 MISS:    9112579 MSHR_MERGE:          0
cpu0->cpu0_L2C RFO          ACCESS:    3870394 HIT:    1420538 MISS:    2449856 MSHR_MERGE:          0
cpu0->cpu0_L2C PREFETCH     ACCESS:          0 HIT:          0 MISS:          0 MSHR_MERGE:          0
cpu0->cpu0_L2C WRITE        ACCESS:    6923005 HIT:    6919004 MISS:       4001 MSHR_MERGE:          0
cpu0->cpu0_L2C TRANSLATION  ACCESS:          0 HIT:          0 MISS:          0 MSHR_MERGE:          0
cpu0->cpu0_L2C PREFETCH REQUESTED:          0 ISSUED:          0 USEFUL:          0 USELESS:          0
cpu0->cpu0_L2C AVERAGE MISS LATENCY: 112 cycles
cpu0->cpu0_L1I TOTAL        ACCESS:  172488172 HIT:  171361804 MISS:    1126368 MSHR_MERGE:     424071
cpu0->cpu0_L1I LOAD         ACCESS:  172488172 HIT:  171361804 MISS:    1126368 MSHR_MERGE:     424071
cpu0->cpu0_L1I RFO          ACCESS:          0 HIT:          0 MISS:          0 MSHR_MERGE:          0
cpu0->cpu0_L1I PREFETCH     ACCESS:          0 HIT:          0 MISS:          0 MSHR_MERGE:          0
cpu0->cpu0_L1I WRITE        ACCESS:          0 HIT:          0 MISS:          0 MSHR_MERGE:          0
cpu0->cpu0_L1I TRANSLATION  ACCESS:          0 HIT:          0 MISS:          0 MSHR_MERGE:          0
cpu0->cpu0_L1I PREFETCH REQUESTED:          0 ISSUED:          0 USEFUL:          0 USELESS:          0
cpu0->cpu0_L1I AVERAGE MISS LATENCY: 13.73 cycles
cpu0->cpu0_L1D TOTAL        ACCESS:  525693655 HIT:  487956155 MISS:   37737500 MSHR_MERGE:   20763270
cpu0->cpu0_L1D LOAD         ACCESS:  412526374 HIT:  388562169 MISS:   23964205 MSHR_MERGE:   10860490
cpu0->cpu0_L1D RFO          ACCESS:          0 HIT:          0 MISS:          0 MSHR_MERGE:          0
cpu0->cpu0_L1D PREFETCH     ACCESS:          0 HIT:          0 MISS:          0 MSHR_MERGE:          0
cpu0->cpu0_L1D WRITE        ACCESS:  113167281 HIT:   99393986 MISS:   13773295 MSHR_MERGE:    9902780
cpu0->cpu0_L1D TRANSLATION  ACCESS:          0 HIT:          0 MISS:          0 MSHR_MERGE:          0
cpu0->cpu0_L1D PREFETCH REQUESTED:          0 ISSUED:          0 USEFUL:          0 USELESS:          0
cpu0->cpu0_L1D AVERAGE MISS LATENCY: 84.91 cycles
cpu0->cpu0_ITLB TOTAL        ACCESS:  147582515 HIT:  147582486 MISS:         29 MSHR_MERGE:         20
cpu0->cpu0_ITLB LOAD         ACCESS:  147582515 HIT:  147582486 MISS:         29 MSHR_MERGE:         20
cpu0->cpu0_ITLB RFO          ACCESS:          0 HIT:          0 MISS:          0 MSHR_MERGE:          0
cpu0->cpu0_ITLB PREFETCH     ACCESS:          0 HIT:          0 MISS:          0 MSHR_MERGE:          0
cpu0->cpu0_ITLB WRITE        ACCESS:          0 HIT:          0 MISS:          0 MSHR_MERGE:          0
cpu0->cpu0_ITLB TRANSLATION  ACCESS:          0 HIT:          0 MISS:          0 MSHR_MERGE:          0
cpu0->cpu0_ITLB PREFETCH REQUESTED:          0 ISSUED:          0 USEFUL:          0 USELESS:          0
cpu0->cpu0_ITLB AVERAGE MISS LATENCY: 8705 cycles
cpu0->cpu0_DTLB TOTAL        ACCESS:  450950012 HIT:  450949651 MISS:        361 MSHR_MERGE:        246
cpu0->cpu0_DTLB LOAD         ACCESS:  450950012 HIT:  450949651 MISS:        361 MSHR_MERGE:        246
cpu0->cpu0_DTLB RFO          ACCESS:          0 HIT:          0 MISS:          0 MSHR_MERGE:          0
cpu0->cpu0_DTLB PREFETCH     ACCESS:          0 HIT:          0 MISS:          0 MSHR_MERGE:          0
cpu0->cpu0_DTLB WRITE        ACCESS:          0 HIT:          0 MISS:          0 MSHR_MERGE:          0
cpu0->cpu0_DTLB TRANSLATION  ACCESS:          0 HIT:          0 MISS:          0 MSHR_MERGE:          0
cpu0->cpu0_DTLB PREFETCH REQUESTED:          0 ISSUED:          0 USEFUL:          0 USELESS:          0
cpu0->cpu0_DTLB AVERAGE MISS LATENCY: 5777 cycles
cpu0->LLC TOTAL        ACCESS:   16402692 HIT:    6357219 MISS:   10045473 MSHR_MERGE:          0
cpu0->LLC LOAD         ACCESS:    9112579 HIT:    1198503 MISS:    7914076 MSHR_MERGE:          0
cpu0->LLC RFO          ACCESS:    2449856 HIT:     330213 MISS:    2119643 MSHR_MERGE:          0
cpu0->LLC PREFETCH     ACCESS:          0 HIT:          0 MISS:          0 MSHR_MERGE:          0
cpu0->LLC WRITE        ACCESS:    4840257 HIT:    4828503 MISS:      11754 MSHR_MERGE:          0
cpu0->LLC TRANSLATION  ACCESS:          0 HIT:          0 MISS:          0 MSHR_MERGE:          0
cpu0->LLC PREFETCH REQUESTED:          0 ISSUED:          0 USEFUL:          0 USELESS:          0
cpu0->LLC AVERAGE MISS LATENCY: 110.7 cycles

DRAM Statistics

Channel 0 RQ ROW_BUFFER_HIT:     274139
  ROW_BUFFER_MISS:    4742603
  AVG DBUS CONGESTED CYCLE: 10.72
Channel 0 WQ ROW_BUFFER_HIT:     577115
  ROW_BUFFER_MISS:    1430205
  FULL:        482
Channel 0 REFRESHES ISSUED:     138247

Channel 1 RQ ROW_BUFFER_HIT:     273612
  ROW_BUFFER_MISS:    4743298
  AVG DBUS CONGESTED CYCLE: 10.73
Channel 1 WQ ROW_BUFFER_HIT:     579925
  ROW_BUFFER_MISS:    1427025
  FULL:        250
Channel 1 REFRESHES ISSUED:     138247
