[VMEM] WARNING: physical memory size is smaller than virtual memory size.

*** ChampSim Multicore Out-of-Order Simulator ***
Warmup Instructions: 0
Simulation Instructions: 9223372036854775807
Number of CPUs: 1
Page size: 4096

Off-chip DRAM Size: 64 GiB Channels: 2 Width: 32-bit Data Rate: 4807 MT/s
[ERROR_PAGE_MANAGER] Error latency: 0 
[ERROR_PAGE_MANAGER] Random seed: 54321 (fixed for preload reproducibility)
[ERROR_PAGE_MANAGER] Error pages off

=== ERROR PAGE STATISTICS ===
Mode: OFF
Total Error Accesses: 0
==============================
Warmup finished CPU 0 instructions: 0 cycles: 1 cumulative IPC: 0 (Simulation time: 00 hr 00 min 03 sec)
Warmup complete CPU 0 instructions: 0 cycles: 1 cumulative IPC: 0 (Simulation time: 00 hr 00 min 03 sec)
Heartbeat CPU 0 instructions: 10000003 cycles: 31208733 heartbeat IPC: 0.3204 cumulative IPC: 0.3204 (Simulation time: 00 hr 03 min 05 sec)
Heartbeat CPU 0 instructions: 20000007 cycles: 59069235 heartbeat IPC: 0.3589 cumulative IPC: 0.3386 (Simulation time: 00 hr 05 min 45 sec)
Heartbeat CPU 0 instructions: 30000008 cycles: 84986977 heartbeat IPC: 0.3858 cumulative IPC: 0.353 (Simulation time: 00 hr 08 min 27 sec)
Heartbeat CPU 0 instructions: 40000008 cycles: 111133227 heartbeat IPC: 0.3825 cumulative IPC: 0.3599 (Simulation time: 00 hr 11 min 12 sec)
Heartbeat CPU 0 instructions: 50000008 cycles: 136748347 heartbeat IPC: 0.3904 cumulative IPC: 0.3656 (Simulation time: 00 hr 13 min 53 sec)
Heartbeat CPU 0 instructions: 60000011 cycles: 161110136 heartbeat IPC: 0.4105 cumulative IPC: 0.3724 (Simulation time: 00 hr 16 min 29 sec)
Heartbeat CPU 0 instructions: 70000011 cycles: 185730087 heartbeat IPC: 0.4062 cumulative IPC: 0.3769 (Simulation time: 00 hr 18 min 57 sec)
Heartbeat CPU 0 instructions: 80000012 cycles: 210048497 heartbeat IPC: 0.4112 cumulative IPC: 0.3809 (Simulation time: 00 hr 20 min 59 sec)
Heartbeat CPU 0 instructions: 90000013 cycles: 234057943 heartbeat IPC: 0.4165 cumulative IPC: 0.3845 (Simulation time: 00 hr 23 min 17 sec)
Heartbeat CPU 0 instructions: 100000013 cycles: 257837793 heartbeat IPC: 0.4205 cumulative IPC: 0.3878 (Simulation time: 00 hr 25 min 43 sec)
Heartbeat CPU 0 instructions: 110000014 cycles: 281576781 heartbeat IPC: 0.4212 cumulative IPC: 0.3907 (Simulation time: 00 hr 27 min 38 sec)
Heartbeat CPU 0 instructions: 120000018 cycles: 305217370 heartbeat IPC: 0.423 cumulative IPC: 0.3932 (Simulation time: 00 hr 29 min 19 sec)
Heartbeat CPU 0 instructions: 130000018 cycles: 329555483 heartbeat IPC: 0.4109 cumulative IPC: 0.3945 (Simulation time: 00 hr 31 min 21 sec)
Heartbeat CPU 0 instructions: 140000020 cycles: 353388948 heartbeat IPC: 0.4196 cumulative IPC: 0.3962 (Simulation time: 00 hr 33 min 37 sec)
Heartbeat CPU 0 instructions: 150000021 cycles: 377640072 heartbeat IPC: 0.4124 cumulative IPC: 0.3972 (Simulation time: 00 hr 35 min 53 sec)
Heartbeat CPU 0 instructions: 160000021 cycles: 401546400 heartbeat IPC: 0.4183 cumulative IPC: 0.3985 (Simulation time: 00 hr 38 min 26 sec)
Heartbeat CPU 0 instructions: 170000021 cycles: 425252873 heartbeat IPC: 0.4218 cumulative IPC: 0.3998 (Simulation time: 00 hr 41 min 01 sec)
Heartbeat CPU 0 instructions: 180000024 cycles: 448953438 heartbeat IPC: 0.4219 cumulative IPC: 0.4009 (Simulation time: 00 hr 43 min 19 sec)
Heartbeat CPU 0 instructions: 190000028 cycles: 472473601 heartbeat IPC: 0.4252 cumulative IPC: 0.4021 (Simulation time: 00 hr 45 min 32 sec)
Heartbeat CPU 0 instructions: 200000029 cycles: 496906055 heartbeat IPC: 0.4093 cumulative IPC: 0.4025 (Simulation time: 00 hr 48 min 10 sec)
Heartbeat CPU 0 instructions: 210000033 cycles: 520967814 heartbeat IPC: 0.4156 cumulative IPC: 0.4031 (Simulation time: 00 hr 50 min 44 sec)
Heartbeat CPU 0 instructions: 220000035 cycles: 544927202 heartbeat IPC: 0.4174 cumulative IPC: 0.4037 (Simulation time: 00 hr 53 min 15 sec)
Heartbeat CPU 0 instructions: 230000036 cycles: 569116284 heartbeat IPC: 0.4134 cumulative IPC: 0.4041 (Simulation time: 00 hr 55 min 46 sec)
Heartbeat CPU 0 instructions: 240000036 cycles: 593349543 heartbeat IPC: 0.4127 cumulative IPC: 0.4045 (Simulation time: 00 hr 58 min 01 sec)
Heartbeat CPU 0 instructions: 250000038 cycles: 616360266 heartbeat IPC: 0.4346 cumulative IPC: 0.4056 (Simulation time: 01 hr 00 min 11 sec)
Heartbeat CPU 0 instructions: 260000038 cycles: 639689298 heartbeat IPC: 0.4287 cumulative IPC: 0.4064 (Simulation time: 01 hr 02 min 28 sec)
Heartbeat CPU 0 instructions: 270000038 cycles: 663488162 heartbeat IPC: 0.4202 cumulative IPC: 0.4069 (Simulation time: 01 hr 04 min 16 sec)
Heartbeat CPU 0 instructions: 280000041 cycles: 688347248 heartbeat IPC: 0.4023 cumulative IPC: 0.4068 (Simulation time: 01 hr 06 min 18 sec)
Heartbeat CPU 0 instructions: 290000043 cycles: 712549922 heartbeat IPC: 0.4132 cumulative IPC: 0.407 (Simulation time: 01 hr 08 min 08 sec)
Heartbeat CPU 0 instructions: 300000044 cycles: 735699490 heartbeat IPC: 0.432 cumulative IPC: 0.4078 (Simulation time: 01 hr 09 min 58 sec)
Heartbeat CPU 0 instructions: 310000044 cycles: 760082909 heartbeat IPC: 0.4101 cumulative IPC: 0.4079 (Simulation time: 01 hr 11 min 51 sec)
Heartbeat CPU 0 instructions: 320000046 cycles: 784047117 heartbeat IPC: 0.4173 cumulative IPC: 0.4081 (Simulation time: 01 hr 13 min 35 sec)
Heartbeat CPU 0 instructions: 330000046 cycles: 807803060 heartbeat IPC: 0.4209 cumulative IPC: 0.4085 (Simulation time: 01 hr 15 min 22 sec)
Heartbeat CPU 0 instructions: 340000050 cycles: 829984498 heartbeat IPC: 0.4508 cumulative IPC: 0.4096 (Simulation time: 01 hr 16 min 57 sec)
Heartbeat CPU 0 instructions: 350000050 cycles: 853636887 heartbeat IPC: 0.4228 cumulative IPC: 0.41 (Simulation time: 01 hr 19 min 13 sec)
Heartbeat CPU 0 instructions: 360000051 cycles: 876719285 heartbeat IPC: 0.4332 cumulative IPC: 0.4106 (Simulation time: 01 hr 21 min 43 sec)
Heartbeat CPU 0 instructions: 370000052 cycles: 900073565 heartbeat IPC: 0.4282 cumulative IPC: 0.4111 (Simulation time: 01 hr 23 min 59 sec)
Heartbeat CPU 0 instructions: 380000054 cycles: 923237440 heartbeat IPC: 0.4317 cumulative IPC: 0.4116 (Simulation time: 01 hr 26 min 07 sec)
Heartbeat CPU 0 instructions: 390000058 cycles: 946398107 heartbeat IPC: 0.4318 cumulative IPC: 0.4121 (Simulation time: 01 hr 27 min 51 sec)
Heartbeat CPU 0 instructions: 400000059 cycles: 969594408 heartbeat IPC: 0.4311 cumulative IPC: 0.4125 (Simulation time: 01 hr 30 min 22 sec)
Heartbeat CPU 0 instructions: 410000059 cycles: 992749203 heartbeat IPC: 0.4319 cumulative IPC: 0.413 (Simulation time: 01 hr 32 min 10 sec)
Heartbeat CPU 0 instructions: 420000062 cycles: 1016395549 heartbeat IPC: 0.4229 cumulative IPC: 0.4132 (Simulation time: 01 hr 34 min 39 sec)
Heartbeat CPU 0 instructions: 430000065 cycles: 1039988280 heartbeat IPC: 0.4239 cumulative IPC: 0.4135 (Simulation time: 01 hr 36 min 55 sec)
Heartbeat CPU 0 instructions: 440000068 cycles: 1063838513 heartbeat IPC: 0.4193 cumulative IPC: 0.4136 (Simulation time: 01 hr 39 min 15 sec)
Heartbeat CPU 0 instructions: 450000068 cycles: 1087706277 heartbeat IPC: 0.419 cumulative IPC: 0.4137 (Simulation time: 01 hr 41 min 26 sec)
Heartbeat CPU 0 instructions: 460000068 cycles: 1111193192 heartbeat IPC: 0.4258 cumulative IPC: 0.414 (Simulation time: 01 hr 43 min 57 sec)
Heartbeat CPU 0 instructions: 470000068 cycles: 1134726749 heartbeat IPC: 0.4249 cumulative IPC: 0.4142 (Simulation time: 01 hr 46 min 11 sec)
Heartbeat CPU 0 instructions: 480000068 cycles: 1158329399 heartbeat IPC: 0.4237 cumulative IPC: 0.4144 (Simulation time: 01 hr 47 min 50 sec)
Heartbeat CPU 0 instructions: 490000071 cycles: 1183397493 heartbeat IPC: 0.3989 cumulative IPC: 0.4141 (Simulation time: 01 hr 50 min 20 sec)
Heartbeat CPU 0 instructions: 500000071 cycles: 1206757770 heartbeat IPC: 0.4281 cumulative IPC: 0.4143 (Simulation time: 01 hr 52 min 47 sec)
Heartbeat CPU 0 instructions: 510000075 cycles: 1230944254 heartbeat IPC: 0.4135 cumulative IPC: 0.4143 (Simulation time: 01 hr 54 min 45 sec)
Heartbeat CPU 0 instructions: 520000078 cycles: 1254813976 heartbeat IPC: 0.4189 cumulative IPC: 0.4144 (Simulation time: 01 hr 57 min 20 sec)
Heartbeat CPU 0 instructions: 530000080 cycles: 1278384641 heartbeat IPC: 0.4243 cumulative IPC: 0.4146 (Simulation time: 01 hr 59 min 53 sec)
Heartbeat CPU 0 instructions: 540000080 cycles: 1302935912 heartbeat IPC: 0.4073 cumulative IPC: 0.4144 (Simulation time: 02 hr 02 min 17 sec)
Heartbeat CPU 0 instructions: 550000080 cycles: 1327154396 heartbeat IPC: 0.4129 cumulative IPC: 0.4144 (Simulation time: 02 hr 04 min 15 sec)
Heartbeat CPU 0 instructions: 560000082 cycles: 1350984036 heartbeat IPC: 0.4196 cumulative IPC: 0.4145 (Simulation time: 02 hr 06 min 23 sec)
Heartbeat CPU 0 instructions: 570000082 cycles: 1375346610 heartbeat IPC: 0.4105 cumulative IPC: 0.4144 (Simulation time: 02 hr 08 min 59 sec)
Heartbeat CPU 0 instructions: 580000083 cycles: 1399110673 heartbeat IPC: 0.4208 cumulative IPC: 0.4145 (Simulation time: 02 hr 11 min 20 sec)
Heartbeat CPU 0 instructions: 590000085 cycles: 1423424108 heartbeat IPC: 0.4113 cumulative IPC: 0.4145 (Simulation time: 02 hr 13 min 29 sec)
Heartbeat CPU 0 instructions: 600000086 cycles: 1446988022 heartbeat IPC: 0.4244 cumulative IPC: 0.4147 (Simulation time: 02 hr 15 min 12 sec)
Heartbeat CPU 0 instructions: 610000086 cycles: 1470822286 heartbeat IPC: 0.4196 cumulative IPC: 0.4147 (Simulation time: 02 hr 17 min 13 sec)
Heartbeat CPU 0 instructions: 620000090 cycles: 1495240465 heartbeat IPC: 0.4095 cumulative IPC: 0.4146 (Simulation time: 02 hr 19 min 41 sec)
Heartbeat CPU 0 instructions: 630000093 cycles: 1519264381 heartbeat IPC: 0.4163 cumulative IPC: 0.4147 (Simulation time: 02 hr 22 min 09 sec)
Heartbeat CPU 0 instructions: 640000095 cycles: 1543785298 heartbeat IPC: 0.4078 cumulative IPC: 0.4146 (Simulation time: 02 hr 24 min 30 sec)
Heartbeat CPU 0 instructions: 650000098 cycles: 1567972309 heartbeat IPC: 0.4134 cumulative IPC: 0.4145 (Simulation time: 02 hr 26 min 52 sec)
Heartbeat CPU 0 instructions: 660000100 cycles: 1591930085 heartbeat IPC: 0.4174 cumulative IPC: 0.4146 (Simulation time: 02 hr 29 min 17 sec)
Heartbeat CPU 0 instructions: 670000101 cycles: 1615500378 heartbeat IPC: 0.4243 cumulative IPC: 0.4147 (Simulation time: 02 hr 31 min 19 sec)
Heartbeat CPU 0 instructions: 680000104 cycles: 1639179751 heartbeat IPC: 0.4223 cumulative IPC: 0.4148 (Simulation time: 02 hr 33 min 50 sec)
Heartbeat CPU 0 instructions: 690000108 cycles: 1662960334 heartbeat IPC: 0.4205 cumulative IPC: 0.4149 (Simulation time: 02 hr 36 min 07 sec)
Heartbeat CPU 0 instructions: 700000111 cycles: 1686599924 heartbeat IPC: 0.423 cumulative IPC: 0.415 (Simulation time: 02 hr 38 min 23 sec)
Heartbeat CPU 0 instructions: 710000111 cycles: 1710563487 heartbeat IPC: 0.4173 cumulative IPC: 0.4151 (Simulation time: 02 hr 41 min 00 sec)
Heartbeat CPU 0 instructions: 720000111 cycles: 1734710427 heartbeat IPC: 0.4141 cumulative IPC: 0.4151 (Simulation time: 02 hr 43 min 40 sec)
Heartbeat CPU 0 instructions: 730000112 cycles: 1758199322 heartbeat IPC: 0.4257 cumulative IPC: 0.4152 (Simulation time: 02 hr 46 min 06 sec)
Heartbeat CPU 0 instructions: 740000114 cycles: 1782018513 heartbeat IPC: 0.4198 cumulative IPC: 0.4153 (Simulation time: 02 hr 48 min 36 sec)
Heartbeat CPU 0 instructions: 750000114 cycles: 1805621113 heartbeat IPC: 0.4237 cumulative IPC: 0.4154 (Simulation time: 02 hr 50 min 25 sec)
Heartbeat CPU 0 instructions: 760000117 cycles: 1829344544 heartbeat IPC: 0.4215 cumulative IPC: 0.4154 (Simulation time: 02 hr 52 min 46 sec)
Heartbeat CPU 0 instructions: 770000119 cycles: 1852360334 heartbeat IPC: 0.4345 cumulative IPC: 0.4157 (Simulation time: 02 hr 55 min 22 sec)
Heartbeat CPU 0 instructions: 780000119 cycles: 1875758628 heartbeat IPC: 0.4274 cumulative IPC: 0.4158 (Simulation time: 02 hr 57 min 59 sec)
Heartbeat CPU 0 instructions: 790000119 cycles: 1899620877 heartbeat IPC: 0.4191 cumulative IPC: 0.4159 (Simulation time: 03 hr 00 min 39 sec)
Heartbeat CPU 0 instructions: 800000121 cycles: 1922764043 heartbeat IPC: 0.4321 cumulative IPC: 0.4161 (Simulation time: 03 hr 03 min 13 sec)
Heartbeat CPU 0 instructions: 810000124 cycles: 1946701869 heartbeat IPC: 0.4177 cumulative IPC: 0.4161 (Simulation time: 03 hr 05 min 53 sec)
Heartbeat CPU 0 instructions: 820000124 cycles: 1970401537 heartbeat IPC: 0.4219 cumulative IPC: 0.4162 (Simulation time: 03 hr 08 min 32 sec)
Heartbeat CPU 0 instructions: 830000127 cycles: 1993858358 heartbeat IPC: 0.4263 cumulative IPC: 0.4163 (Simulation time: 03 hr 11 min 09 sec)
Heartbeat CPU 0 instructions: 840000131 cycles: 2017408888 heartbeat IPC: 0.4246 cumulative IPC: 0.4164 (Simulation time: 03 hr 13 min 48 sec)
Heartbeat CPU 0 instructions: 850000134 cycles: 2041271240 heartbeat IPC: 0.4191 cumulative IPC: 0.4164 (Simulation time: 03 hr 16 min 19 sec)
Heartbeat CPU 0 instructions: 860000138 cycles: 2064803225 heartbeat IPC: 0.425 cumulative IPC: 0.4165 (Simulation time: 03 hr 18 min 13 sec)
Heartbeat CPU 0 instructions: 870000139 cycles: 2088348224 heartbeat IPC: 0.4247 cumulative IPC: 0.4166 (Simulation time: 03 hr 20 min 17 sec)
Heartbeat CPU 0 instructions: 880000143 cycles: 2112158526 heartbeat IPC: 0.42 cumulative IPC: 0.4166 (Simulation time: 03 hr 22 min 47 sec)
Heartbeat CPU 0 instructions: 890000144 cycles: 2135531872 heartbeat IPC: 0.4278 cumulative IPC: 0.4168 (Simulation time: 03 hr 24 min 56 sec)
Heartbeat CPU 0 instructions: 900000146 cycles: 2158338858 heartbeat IPC: 0.4385 cumulative IPC: 0.417 (Simulation time: 03 hr 27 min 12 sec)
Heartbeat CPU 0 instructions: 910000147 cycles: 2181768302 heartbeat IPC: 0.4268 cumulative IPC: 0.4171 (Simulation time: 03 hr 29 min 48 sec)
Heartbeat CPU 0 instructions: 920000148 cycles: 2205448557 heartbeat IPC: 0.4223 cumulative IPC: 0.4171 (Simulation time: 03 hr 31 min 49 sec)
Heartbeat CPU 0 instructions: 930000148 cycles: 2228378225 heartbeat IPC: 0.4361 cumulative IPC: 0.4173 (Simulation time: 03 hr 33 min 42 sec)
Heartbeat CPU 0 instructions: 940000148 cycles: 2251380604 heartbeat IPC: 0.4347 cumulative IPC: 0.4175 (Simulation time: 03 hr 35 min 29 sec)
Heartbeat CPU 0 instructions: 950000151 cycles: 2274963551 heartbeat IPC: 0.424 cumulative IPC: 0.4176 (Simulation time: 03 hr 37 min 24 sec)
Heartbeat CPU 0 instructions: 960000153 cycles: 2298359027 heartbeat IPC: 0.4274 cumulative IPC: 0.4177 (Simulation time: 03 hr 39 min 37 sec)
Heartbeat CPU 0 instructions: 970000153 cycles: 2321956133 heartbeat IPC: 0.4238 cumulative IPC: 0.4178 (Simulation time: 03 hr 41 min 56 sec)
Heartbeat CPU 0 instructions: 980000156 cycles: 2345096818 heartbeat IPC: 0.4321 cumulative IPC: 0.4179 (Simulation time: 03 hr 43 min 52 sec)
Heartbeat CPU 0 instructions: 990000157 cycles: 2368782762 heartbeat IPC: 0.4222 cumulative IPC: 0.4179 (Simulation time: 03 hr 46 min 22 sec)
Heartbeat CPU 0 instructions: 1000000158 cycles: 2392405295 heartbeat IPC: 0.4233 cumulative IPC: 0.418 (Simulation time: 03 hr 48 min 53 sec)
Heartbeat CPU 0 instructions: 1010000158 cycles: 2415832987 heartbeat IPC: 0.4268 cumulative IPC: 0.4181 (Simulation time: 03 hr 51 min 31 sec)
Heartbeat CPU 0 instructions: 1020000158 cycles: 2439468928 heartbeat IPC: 0.4231 cumulative IPC: 0.4181 (Simulation time: 03 hr 54 min 08 sec)
Heartbeat CPU 0 instructions: 1030000159 cycles: 2462949977 heartbeat IPC: 0.4259 cumulative IPC: 0.4182 (Simulation time: 03 hr 56 min 44 sec)
Heartbeat CPU 0 instructions: 1040000159 cycles: 2486150219 heartbeat IPC: 0.431 cumulative IPC: 0.4183 (Simulation time: 03 hr 59 min 02 sec)
Heartbeat CPU 0 instructions: 1050000161 cycles: 2509218018 heartbeat IPC: 0.4335 cumulative IPC: 0.4185 (Simulation time: 04 hr 01 min 32 sec)
Heartbeat CPU 0 instructions: 1060000161 cycles: 2531813122 heartbeat IPC: 0.4426 cumulative IPC: 0.4187 (Simulation time: 04 hr 04 min 02 sec)
Heartbeat CPU 0 instructions: 1070000165 cycles: 2554916962 heartbeat IPC: 0.4328 cumulative IPC: 0.4188 (Simulation time: 04 hr 06 min 19 sec)
Heartbeat CPU 0 instructions: 1080000166 cycles: 2578433398 heartbeat IPC: 0.4252 cumulative IPC: 0.4189 (Simulation time: 04 hr 08 min 53 sec)
Heartbeat CPU 0 instructions: 1090000166 cycles: 2601729929 heartbeat IPC: 0.4292 cumulative IPC: 0.419 (Simulation time: 04 hr 11 min 17 sec)
Heartbeat CPU 0 instructions: 1100000166 cycles: 2624431761 heartbeat IPC: 0.4405 cumulative IPC: 0.4191 (Simulation time: 04 hr 13 min 35 sec)
Heartbeat CPU 0 instructions: 1110000166 cycles: 2647879126 heartbeat IPC: 0.4265 cumulative IPC: 0.4192 (Simulation time: 04 hr 16 min 11 sec)
Heartbeat CPU 0 instructions: 1120000168 cycles: 2670914390 heartbeat IPC: 0.4341 cumulative IPC: 0.4193 (Simulation time: 04 hr 18 min 44 sec)
Heartbeat CPU 0 instructions: 1130000172 cycles: 2694371536 heartbeat IPC: 0.4263 cumulative IPC: 0.4194 (Simulation time: 04 hr 20 min 44 sec)
Heartbeat CPU 0 instructions: 1140000176 cycles: 2717305356 heartbeat IPC: 0.436 cumulative IPC: 0.4195 (Simulation time: 04 hr 22 min 32 sec)
Heartbeat CPU 0 instructions: 1150000177 cycles: 2740057584 heartbeat IPC: 0.4395 cumulative IPC: 0.4197 (Simulation time: 04 hr 25 min 02 sec)
Heartbeat CPU 0 instructions: 1160000181 cycles: 2762978829 heartbeat IPC: 0.4363 cumulative IPC: 0.4198 (Simulation time: 04 hr 27 min 35 sec)
Heartbeat CPU 0 instructions: 1170000183 cycles: 2786335217 heartbeat IPC: 0.4281 cumulative IPC: 0.4199 (Simulation time: 04 hr 30 min 10 sec)
Heartbeat CPU 0 instructions: 1180000184 cycles: 2809095026 heartbeat IPC: 0.4394 cumulative IPC: 0.4201 (Simulation time: 04 hr 32 min 37 sec)
Heartbeat CPU 0 instructions: 1190000185 cycles: 2832569739 heartbeat IPC: 0.426 cumulative IPC: 0.4201 (Simulation time: 04 hr 34 min 43 sec)
Heartbeat CPU 0 instructions: 1200000186 cycles: 2855627952 heartbeat IPC: 0.4337 cumulative IPC: 0.4202 (Simulation time: 04 hr 36 min 46 sec)
Heartbeat CPU 0 instructions: 1210000189 cycles: 2878660294 heartbeat IPC: 0.4342 cumulative IPC: 0.4203 (Simulation time: 04 hr 38 min 49 sec)
Heartbeat CPU 0 instructions: 1220000191 cycles: 2901848886 heartbeat IPC: 0.4312 cumulative IPC: 0.4204 (Simulation time: 04 hr 41 min 22 sec)
Heartbeat CPU 0 instructions: 1230000191 cycles: 2925069077 heartbeat IPC: 0.4307 cumulative IPC: 0.4205 (Simulation time: 04 hr 43 min 57 sec)
Heartbeat CPU 0 instructions: 1240000192 cycles: 2948294121 heartbeat IPC: 0.4306 cumulative IPC: 0.4206 (Simulation time: 04 hr 46 min 35 sec)
Heartbeat CPU 0 instructions: 1250000193 cycles: 2971534902 heartbeat IPC: 0.4303 cumulative IPC: 0.4207 (Simulation time: 04 hr 48 min 47 sec)
Heartbeat CPU 0 instructions: 1260000195 cycles: 2994639087 heartbeat IPC: 0.4328 cumulative IPC: 0.4208 (Simulation time: 04 hr 51 min 12 sec)
Heartbeat CPU 0 instructions: 1270000195 cycles: 3017657172 heartbeat IPC: 0.4344 cumulative IPC: 0.4209 (Simulation time: 04 hr 53 min 47 sec)
Heartbeat CPU 0 instructions: 1280000195 cycles: 3040752179 heartbeat IPC: 0.433 cumulative IPC: 0.4209 (Simulation time: 04 hr 56 min 22 sec)
Heartbeat CPU 0 instructions: 1290000197 cycles: 3064201744 heartbeat IPC: 0.4264 cumulative IPC: 0.421 (Simulation time: 04 hr 58 min 29 sec)
Heartbeat CPU 0 instructions: 1300000199 cycles: 3087252370 heartbeat IPC: 0.4338 cumulative IPC: 0.4211 (Simulation time: 05 hr 00 min 36 sec)
Heartbeat CPU 0 instructions: 1310000199 cycles: 3109959357 heartbeat IPC: 0.4404 cumulative IPC: 0.4212 (Simulation time: 05 hr 03 min 09 sec)
Heartbeat CPU 0 instructions: 1320000200 cycles: 3133336383 heartbeat IPC: 0.4278 cumulative IPC: 0.4213 (Simulation time: 05 hr 05 min 46 sec)
Heartbeat CPU 0 instructions: 1330000200 cycles: 3156425236 heartbeat IPC: 0.4331 cumulative IPC: 0.4214 (Simulation time: 05 hr 08 min 15 sec)
Heartbeat CPU 0 instructions: 1340000202 cycles: 3179332122 heartbeat IPC: 0.4366 cumulative IPC: 0.4215 (Simulation time: 05 hr 10 min 40 sec)
Heartbeat CPU 0 instructions: 1350000205 cycles: 3202702923 heartbeat IPC: 0.4279 cumulative IPC: 0.4215 (Simulation time: 05 hr 13 min 16 sec)
Heartbeat CPU 0 instructions: 1360000205 cycles: 3225415794 heartbeat IPC: 0.4403 cumulative IPC: 0.4217 (Simulation time: 05 hr 15 min 49 sec)
Heartbeat CPU 0 instructions: 1370000207 cycles: 3248813910 heartbeat IPC: 0.4274 cumulative IPC: 0.4217 (Simulation time: 05 hr 18 min 12 sec)
Heartbeat CPU 0 instructions: 1380000207 cycles: 3272245402 heartbeat IPC: 0.4268 cumulative IPC: 0.4217 (Simulation time: 05 hr 20 min 34 sec)
Heartbeat CPU 0 instructions: 1390000207 cycles: 3295674502 heartbeat IPC: 0.4268 cumulative IPC: 0.4218 (Simulation time: 05 hr 22 min 54 sec)
Heartbeat CPU 0 instructions: 1400000207 cycles: 3318821358 heartbeat IPC: 0.432 cumulative IPC: 0.4218 (Simulation time: 05 hr 25 min 25 sec)
Heartbeat CPU 0 instructions: 1410000207 cycles: 3342300419 heartbeat IPC: 0.4259 cumulative IPC: 0.4219 (Simulation time: 05 hr 27 min 09 sec)
Heartbeat CPU 0 instructions: 1420000207 cycles: 3365866384 heartbeat IPC: 0.4243 cumulative IPC: 0.4219 (Simulation time: 05 hr 29 min 47 sec)
Heartbeat CPU 0 instructions: 1430000211 cycles: 3389294470 heartbeat IPC: 0.4268 cumulative IPC: 0.4219 (Simulation time: 05 hr 32 min 13 sec)
Heartbeat CPU 0 instructions: 1440000213 cycles: 3412961956 heartbeat IPC: 0.4225 cumulative IPC: 0.4219 (Simulation time: 05 hr 34 min 31 sec)
Heartbeat CPU 0 instructions: 1450000215 cycles: 3435523005 heartbeat IPC: 0.4432 cumulative IPC: 0.4221 (Simulation time: 05 hr 36 min 41 sec)
Heartbeat CPU 0 instructions: 1460000218 cycles: 3458853720 heartbeat IPC: 0.4286 cumulative IPC: 0.4221 (Simulation time: 05 hr 39 min 14 sec)
Heartbeat CPU 0 instructions: 1470000218 cycles: 3481931275 heartbeat IPC: 0.4333 cumulative IPC: 0.4222 (Simulation time: 05 hr 41 min 50 sec)
Heartbeat CPU 0 instructions: 1480000218 cycles: 3505247968 heartbeat IPC: 0.4289 cumulative IPC: 0.4222 (Simulation time: 05 hr 44 min 25 sec)
Heartbeat CPU 0 instructions: 1490000222 cycles: 3528486405 heartbeat IPC: 0.4303 cumulative IPC: 0.4223 (Simulation time: 05 hr 47 min 00 sec)
Heartbeat CPU 0 instructions: 1500000226 cycles: 3551969436 heartbeat IPC: 0.4258 cumulative IPC: 0.4223 (Simulation time: 05 hr 49 min 37 sec)
Heartbeat CPU 0 instructions: 1510000228 cycles: 3575538003 heartbeat IPC: 0.4243 cumulative IPC: 0.4223 (Simulation time: 05 hr 52 min 13 sec)
Heartbeat CPU 0 instructions: 1520000228 cycles: 3599136253 heartbeat IPC: 0.4238 cumulative IPC: 0.4223 (Simulation time: 05 hr 54 min 51 sec)
Heartbeat CPU 0 instructions: 1530000229 cycles: 3623012524 heartbeat IPC: 0.4188 cumulative IPC: 0.4223 (Simulation time: 05 hr 57 min 31 sec)
Heartbeat CPU 0 instructions: 1540000230 cycles: 3646538632 heartbeat IPC: 0.4251 cumulative IPC: 0.4223 (Simulation time: 06 hr 00 min 07 sec)
Heartbeat CPU 0 instructions: 1550000230 cycles: 3670465569 heartbeat IPC: 0.4179 cumulative IPC: 0.4223 (Simulation time: 06 hr 02 min 46 sec)
Heartbeat CPU 0 instructions: 1560000231 cycles: 3694246782 heartbeat IPC: 0.4205 cumulative IPC: 0.4223 (Simulation time: 06 hr 04 min 47 sec)
Heartbeat CPU 0 instructions: 1570000233 cycles: 3717952739 heartbeat IPC: 0.4218 cumulative IPC: 0.4223 (Simulation time: 06 hr 07 min 17 sec)
Heartbeat CPU 0 instructions: 1580000237 cycles: 3741902425 heartbeat IPC: 0.4175 cumulative IPC: 0.4222 (Simulation time: 06 hr 09 min 54 sec)
Heartbeat CPU 0 instructions: 1590000240 cycles: 3765709967 heartbeat IPC: 0.42 cumulative IPC: 0.4222 (Simulation time: 06 hr 12 min 11 sec)
Heartbeat CPU 0 instructions: 1600000244 cycles: 3789413430 heartbeat IPC: 0.4219 cumulative IPC: 0.4222 (Simulation time: 06 hr 14 min 40 sec)
Heartbeat CPU 0 instructions: 1610000244 cycles: 3813265249 heartbeat IPC: 0.4193 cumulative IPC: 0.4222 (Simulation time: 06 hr 17 min 20 sec)
Heartbeat CPU 0 instructions: 1620000248 cycles: 3836761654 heartbeat IPC: 0.4256 cumulative IPC: 0.4222 (Simulation time: 06 hr 19 min 57 sec)
Heartbeat CPU 0 instructions: 1630000248 cycles: 3860487061 heartbeat IPC: 0.4215 cumulative IPC: 0.4222 (Simulation time: 06 hr 22 min 36 sec)
Heartbeat CPU 0 instructions: 1640000252 cycles: 3883994112 heartbeat IPC: 0.4254 cumulative IPC: 0.4222 (Simulation time: 06 hr 24 min 48 sec)
Heartbeat CPU 0 instructions: 1650000252 cycles: 3907512869 heartbeat IPC: 0.4252 cumulative IPC: 0.4223 (Simulation time: 06 hr 27 min 27 sec)
Heartbeat CPU 0 instructions: 1660000256 cycles: 3931367358 heartbeat IPC: 0.4192 cumulative IPC: 0.4222 (Simulation time: 06 hr 30 min 08 sec)
Heartbeat CPU 0 instructions: 1670000258 cycles: 3954882440 heartbeat IPC: 0.4253 cumulative IPC: 0.4223 (Simulation time: 06 hr 32 min 47 sec)
Heartbeat CPU 0 instructions: 1680000261 cycles: 3978777709 heartbeat IPC: 0.4185 cumulative IPC: 0.4222 (Simulation time: 06 hr 35 min 27 sec)
Heartbeat CPU 0 instructions: 1690000261 cycles: 4002333658 heartbeat IPC: 0.4245 cumulative IPC: 0.4223 (Simulation time: 06 hr 38 min 06 sec)
Heartbeat CPU 0 instructions: 1700000265 cycles: 4026158976 heartbeat IPC: 0.4197 cumulative IPC: 0.4222 (Simulation time: 06 hr 40 min 47 sec)
Heartbeat CPU 0 instructions: 1710000266 cycles: 4049629319 heartbeat IPC: 0.4261 cumulative IPC: 0.4223 (Simulation time: 06 hr 42 min 46 sec)
Heartbeat CPU 0 instructions: 1720000269 cycles: 4073441021 heartbeat IPC: 0.42 cumulative IPC: 0.4222 (Simulation time: 06 hr 44 min 50 sec)
Heartbeat CPU 0 instructions: 1730000270 cycles: 4097701912 heartbeat IPC: 0.4122 cumulative IPC: 0.4222 (Simulation time: 06 hr 46 min 46 sec)
Heartbeat CPU 0 instructions: 1740000273 cycles: 4120917617 heartbeat IPC: 0.4307 cumulative IPC: 0.4222 (Simulation time: 06 hr 48 min 39 sec)
Heartbeat CPU 0 instructions: 1750000274 cycles: 4144523290 heartbeat IPC: 0.4236 cumulative IPC: 0.4222 (Simulation time: 06 hr 50 min 35 sec)
Heartbeat CPU 0 instructions: 1760000274 cycles: 4169070865 heartbeat IPC: 0.4074 cumulative IPC: 0.4222 (Simulation time: 06 hr 52 min 28 sec)
Heartbeat CPU 0 instructions: 1770000277 cycles: 4193348876 heartbeat IPC: 0.4119 cumulative IPC: 0.4221 (Simulation time: 06 hr 54 min 41 sec)
Heartbeat CPU 0 instructions: 1780000279 cycles: 4217194579 heartbeat IPC: 0.4194 cumulative IPC: 0.4221 (Simulation time: 06 hr 57 min 11 sec)
Heartbeat CPU 0 instructions: 1790000283 cycles: 4241021723 heartbeat IPC: 0.4197 cumulative IPC: 0.4221 (Simulation time: 06 hr 59 min 52 sec)
Heartbeat CPU 0 instructions: 1800000284 cycles: 4265106552 heartbeat IPC: 0.4152 cumulative IPC: 0.422 (Simulation time: 07 hr 02 min 34 sec)
Heartbeat CPU 0 instructions: 1810000288 cycles: 4288773913 heartbeat IPC: 0.4225 cumulative IPC: 0.422 (Simulation time: 07 hr 05 min 12 sec)
Heartbeat CPU 0 instructions: 1820000288 cycles: 4312863515 heartbeat IPC: 0.4151 cumulative IPC: 0.422 (Simulation time: 07 hr 07 min 50 sec)
Heartbeat CPU 0 instructions: 1830000289 cycles: 4336507802 heartbeat IPC: 0.4229 cumulative IPC: 0.422 (Simulation time: 07 hr 10 min 28 sec)
Heartbeat CPU 0 instructions: 1840000289 cycles: 4360085938 heartbeat IPC: 0.4241 cumulative IPC: 0.422 (Simulation time: 07 hr 12 min 51 sec)
Heartbeat CPU 0 instructions: 1850000292 cycles: 4383675678 heartbeat IPC: 0.4239 cumulative IPC: 0.422 (Simulation time: 07 hr 14 min 44 sec)
Heartbeat CPU 0 instructions: 1860000292 cycles: 4407318974 heartbeat IPC: 0.423 cumulative IPC: 0.422 (Simulation time: 07 hr 16 min 50 sec)
Heartbeat CPU 0 instructions: 1870000296 cycles: 4431105430 heartbeat IPC: 0.4204 cumulative IPC: 0.422 (Simulation time: 07 hr 18 min 39 sec)
Heartbeat CPU 0 instructions: 1880000298 cycles: 4454764455 heartbeat IPC: 0.4227 cumulative IPC: 0.422 (Simulation time: 07 hr 20 min 36 sec)
Heartbeat CPU 0 instructions: 1890000302 cycles: 4478238994 heartbeat IPC: 0.426 cumulative IPC: 0.422 (Simulation time: 07 hr 23 min 07 sec)
Heartbeat CPU 0 instructions: 1900000303 cycles: 4501654603 heartbeat IPC: 0.4271 cumulative IPC: 0.4221 (Simulation time: 07 hr 24 min 56 sec)
Heartbeat CPU 0 instructions: 1910000303 cycles: 4524885637 heartbeat IPC: 0.4305 cumulative IPC: 0.4221 (Simulation time: 07 hr 27 min 31 sec)
Heartbeat CPU 0 instructions: 1920000307 cycles: 4548899177 heartbeat IPC: 0.4164 cumulative IPC: 0.4221 (Simulation time: 07 hr 30 min 10 sec)
Heartbeat CPU 0 instructions: 1930000310 cycles: 4573042326 heartbeat IPC: 0.4142 cumulative IPC: 0.422 (Simulation time: 07 hr 32 min 36 sec)
Heartbeat CPU 0 instructions: 1940000310 cycles: 4596490910 heartbeat IPC: 0.4265 cumulative IPC: 0.4221 (Simulation time: 07 hr 34 min 39 sec)
Heartbeat CPU 0 instructions: 1950000311 cycles: 4620126843 heartbeat IPC: 0.4231 cumulative IPC: 0.4221 (Simulation time: 07 hr 37 min 10 sec)
Heartbeat CPU 0 instructions: 1960000314 cycles: 4643572339 heartbeat IPC: 0.4265 cumulative IPC: 0.4221 (Simulation time: 07 hr 39 min 31 sec)
Heartbeat CPU 0 instructions: 1970000315 cycles: 4667008033 heartbeat IPC: 0.4267 cumulative IPC: 0.4221 (Simulation time: 07 hr 42 min 07 sec)
Heartbeat CPU 0 instructions: 1980000319 cycles: 4690483358 heartbeat IPC: 0.426 cumulative IPC: 0.4221 (Simulation time: 07 hr 44 min 28 sec)
Heartbeat CPU 0 instructions: 1990000319 cycles: 4713718609 heartbeat IPC: 0.4304 cumulative IPC: 0.4222 (Simulation time: 07 hr 46 min 57 sec)

=== ERROR PAGE STATISTICS ===
Mode: OFF
Total Error Accesses: 0
==============================
Simulation finished CPU 0 instructions: 1999999986 cycles: 4737076011 cumulative IPC: 0.4222 (Simulation time: 07 hr 49 min 07 sec)
Simulation complete CPU 0 instructions: 1999999986 cycles: 4737076011 cumulative IPC: 0.4222 (Simulation time: 07 hr 49 min 07 sec)

ChampSim completed all CPUs

=== Simulation ===
CPU 0 runs test_traces/620.omnetpp_s-141B.champsimtrace.xz

Region of Interest Statistics

CPU 0 cumulative IPC: 0.4222 instructions: 1999999986 cycles: 4737076011
CPU 0 Branch Prediction Accuracy: 92.96% MPKI: 14.8 Average ROB Occupancy at Mispredict: 41.91
Branch type MPKI
BRANCH_DIRECT_JUMP: 0.8484
BRANCH_INDIRECT: 0.3555
BRANCH_CONDITIONAL: 12.32
BRANCH_DIRECT_CALL: 0.0001295
BRANCH_INDIRECT_CALL: 0.8457
BRANCH_RETURN: 0.4309

cpu0->cpu0_STLB TOTAL        ACCESS:   44698929 HIT:   35105364 MISS:    9593565 MSHR_MERGE:          0
cpu0->cpu0_STLB LOAD         ACCESS:   44698929 HIT:   35105364 MISS:    9593565 MSHR_MERGE:          0
cpu0->cpu0_STLB RFO          ACCESS:          0 HIT:          0 MISS:          0 MSHR_MERGE:          0
cpu0->cpu0_STLB PREFETCH     ACCESS:          0 HIT:          0 MISS:          0 MSHR_MERGE:          0
cpu0->cpu0_STLB WRITE        ACCESS:          0 HIT:          0 MISS:          0 MSHR_MERGE:          0
cpu0->cpu0_STLB TRANSLATION  ACCESS:          0 HIT:          0 MISS:          0 MSHR_MERGE:          0
cpu0->cpu0_STLB PREFETCH REQUESTED:          0 ISSUED:          0 USEFUL:          0 USELESS:          0
cpu0->cpu0_STLB AVERAGE MISS LATENCY: 214.2 cycles
cpu0->cpu0_L2C TOTAL        ACCESS:   56650578 HIT:   29475027 MISS:   27175551 MSHR_MERGE:          0
cpu0->cpu0_L2C LOAD         ACCESS:   33708895 HIT:   10157497 MISS:   23551398 MSHR_MERGE:          0
cpu0->cpu0_L2C RFO          ACCESS:    4838684 HIT:    1238570 MISS:    3600114 MSHR_MERGE:          0
cpu0->cpu0_L2C PREFETCH     ACCESS:          0 HIT:          0 MISS:          0 MSHR_MERGE:          0
cpu0->cpu0_L2C WRITE        ACCESS:   18102999 HIT:   18078960 MISS:      24039 MSHR_MERGE:          0
cpu0->cpu0_L2C TRANSLATION  ACCESS:          0 HIT:          0 MISS:          0 MSHR_MERGE:          0
cpu0->cpu0_L2C PREFETCH REQUESTED:          0 ISSUED:          0 USEFUL:          0 USELESS:          0
cpu0->cpu0_L2C AVERAGE MISS LATENCY: 89.94 cycles
cpu0->cpu0_L1I TOTAL        ACCESS:  269085542 HIT:  267369585 MISS:    1715957 MSHR_MERGE:     426976
cpu0->cpu0_L1I LOAD         ACCESS:  269085542 HIT:  267369585 MISS:    1715957 MSHR_MERGE:     426976
cpu0->cpu0_L1I RFO          ACCESS:          0 HIT:          0 MISS:          0 MSHR_MERGE:          0
cpu0->cpu0_L1I PREFETCH     ACCESS:          0 HIT:          0 MISS:          0 MSHR_MERGE:          0
cpu0->cpu0_L1I WRITE        ACCESS:          0 HIT:          0 MISS:          0 MSHR_MERGE:          0
cpu0->cpu0_L1I TRANSLATION  ACCESS:          0 HIT:          0 MISS:          0 MSHR_MERGE:          0
cpu0->cpu0_L1I PREFETCH REQUESTED:          0 ISSUED:          0 USEFUL:          0 USELESS:          0
cpu0->cpu0_L1I AVERAGE MISS LATENCY: 12.07 cycles
cpu0->cpu0_L1D TOTAL        ACCESS:  807225047 HIT:  750526666 MISS:   56698381 MSHR_MERGE:   19439690
cpu0->cpu0_L1D LOAD         ACCESS:  439366846 HIT:  396761976 MISS:   42604870 MSHR_MERGE:   10184887
cpu0->cpu0_L1D RFO          ACCESS:          0 HIT:          0 MISS:          0 MSHR_MERGE:          0
cpu0->cpu0_L1D PREFETCH     ACCESS:          0 HIT:          0 MISS:          0 MSHR_MERGE:          0
cpu0->cpu0_L1D WRITE        ACCESS:  367858201 HIT:  353764690 MISS:   14093511 MSHR_MERGE:    9254803
cpu0->cpu0_L1D TRANSLATION  ACCESS:          0 HIT:          0 MISS:          0 MSHR_MERGE:          0
cpu0->cpu0_L1D PREFETCH REQUESTED:          0 ISSUED:          0 USEFUL:          0 USELESS:          0
cpu0->cpu0_L1D AVERAGE MISS LATENCY: 74.24 cycles
cpu0->cpu0_ITLB TOTAL        ACCESS:  237499764 HIT:  231441629 MISS:    6058135 MSHR_MERGE:    2946114
cpu0->cpu0_ITLB LOAD         ACCESS:  237499764 HIT:  231441629 MISS:    6058135 MSHR_MERGE:    2946114
cpu0->cpu0_ITLB RFO          ACCESS:          0 HIT:          0 MISS:          0 MSHR_MERGE:          0
cpu0->cpu0_ITLB PREFETCH     ACCESS:          0 HIT:          0 MISS:          0 MSHR_MERGE:          0
cpu0->cpu0_ITLB WRITE        ACCESS:          0 HIT:          0 MISS:          0 MSHR_MERGE:          0
cpu0->cpu0_ITLB TRANSLATION  ACCESS:          0 HIT:          0 MISS:          0 MSHR_MERGE:          0
cpu0->cpu0_ITLB PREFETCH REQUESTED:          0 ISSUED:          0 USEFUL:          0 USELESS:          0
cpu0->cpu0_ITLB AVERAGE MISS LATENCY: 7.283 cycles
cpu0->cpu0_DTLB TOTAL        ACCESS:  695418910 HIT:  647436176 MISS:   47982734 MSHR_MERGE:    6395826
cpu0->cpu0_DTLB LOAD         ACCESS:  695418910 HIT:  647436176 MISS:   47982734 MSHR_MERGE:    6395826
cpu0->cpu0_DTLB RFO          ACCESS:          0 HIT:          0 MISS:          0 MSHR_MERGE:          0
cpu0->cpu0_DTLB PREFETCH     ACCESS:          0 HIT:          0 MISS:          0 MSHR_MERGE:          0
cpu0->cpu0_DTLB WRITE        ACCESS:          0 HIT:          0 MISS:          0 MSHR_MERGE:          0
cpu0->cpu0_DTLB TRANSLATION  ACCESS:          0 HIT:          0 MISS:          0 MSHR_MERGE:          0
cpu0->cpu0_DTLB PREFETCH REQUESTED:          0 ISSUED:          0 USEFUL:          0 USELESS:          0
cpu0->cpu0_DTLB AVERAGE MISS LATENCY: 54.49 cycles
cpu0->LLC TOTAL        ACCESS:   40308788 HIT:   19736775 MISS:   20572013 MSHR_MERGE:          0
cpu0->LLC LOAD         ACCESS:   23551398 HIT:    5187605 MISS:   18363793 MSHR_MERGE:          0
cpu0->LLC RFO          ACCESS:    3600114 HIT:    1441004 MISS:    2159110 MSHR_MERGE:          0
cpu0->LLC PREFETCH     ACCESS:          0 HIT:          0 MISS:          0 MSHR_MERGE:          0
cpu0->LLC WRITE        ACCESS:   13157276 HIT:   13108166 MISS:      49110 MSHR_MERGE:          0
cpu0->LLC TRANSLATION  ACCESS:          0 HIT:          0 MISS:          0 MSHR_MERGE:          0
cpu0->LLC PREFETCH REQUESTED:          0 ISSUED:          0 USEFUL:          0 USELESS:          0
cpu0->LLC AVERAGE MISS LATENCY: 98.03 cycles

DRAM Statistics

Channel 0 RQ ROW_BUFFER_HIT:     432136
  ROW_BUFFER_MISS:   21068241
  AVG DBUS CONGESTED CYCLE: 13.51
Channel 0 WQ ROW_BUFFER_HIT:     987868
  ROW_BUFFER_MISS:    3760345
  FULL:          0
Channel 0 REFRESHES ISSUED:     394731

Channel 1 RQ ROW_BUFFER_HIT:     476233
  ROW_BUFFER_MISS:   21542875
  AVG DBUS CONGESTED CYCLE: 13.49
Channel 1 WQ ROW_BUFFER_HIT:     989442
  ROW_BUFFER_MISS:    3765836
  FULL:          0
Channel 1 REFRESHES ISSUED:     394731
