
*** ChampSim Multicore Out-of-Order Simulator ***
Warmup Instructions: 0
Simulation Instructions: 9223372036854775807
Number of CPUs: 1
Page size: 1048576

Off-chip DRAM Size: 64 GiB Channels: 2 Width: 32-bit Data Rate: 4807 MT/s
[ERROR_PAGE_MANAGER] Error latency: 2459910500 
[ERROR_PAGE_MANAGER] Random seed: 54321 (fixed for preload reproducibility)
[ERROR_PAGE_MANAGER] Cycle-based error modeling enabled
[ERROR_PAGE_MANAGER] Errors per interval: 1
[ERROR_PAGE_MANAGER] Error cycle interval: 46484161 cycles

=== ERROR PAGE STATISTICS ===
Mode: CYCLE
Error Cycle Interval: 46484161 CPU cycles
Total Error Accesses: 0
==============================
Warmup finished CPU 0 instructions: 0 cycles: 1 cumulative IPC: 0 (Simulation time: 00 hr 00 min 00 sec)
Warmup complete CPU 0 instructions: 0 cycles: 1 cumulative IPC: 0 (Simulation time: 00 hr 00 min 00 sec)
Simulation CPU 0 panic: IPC 0 < 0.01
Simulation CPU 0 panic: IPC 0 < 0.01
Simulation CPU 0 panic: IPC 1e-07 < 0.01
Simulation CPU 0 panic: IPC 4e-07 < 0.01
[ERROR_CYCLE] Error added at CPU cycle 46484161, interval 1, pending count: 1
Simulation CPU 0 panic: IPC 8.5e-06 < 0.01
[DRAM_CYCLE_ERROR] Cycle-based error applied! address=0xc320fac0 additional_latency=2459910500 cycles
Simulation CPU 0 panic: IPC 0 < 0.01
Simulation CPU 0 critical: IPC 0.011513 < 0.02
Simulation CPU 0 warning: IPC 0.026709 < 0.05
Simulation CPU 0 panic: IPC 0.0036166 < 0.01
[ERROR_CYCLE] Error added at CPU cycle 92968322, interval 2, pending count: 1
[DRAM_CYCLE_ERROR] Cycle-based error applied! address=0x537c1f390 additional_latency=2459910500 cycles
Simulation CPU 0 panic: IPC 0 < 0.01
Simulation CPU 0 panic: IPC 0.0037479 < 0.01
Simulation CPU 0 panic: IPC 0.0029552 < 0.01
Simulation CPU 0 panic: IPC 0.0082779 < 0.01
[ERROR_CYCLE] Error added at CPU cycle 139452483, interval 3, pending count: 1
Simulation CPU 0 panic: IPC 0.0009996 < 0.01
[DRAM_CYCLE_ERROR] Cycle-based error applied! address=0x537c23320 additional_latency=2459910500 cycles
Simulation CPU 0 panic: IPC 0 < 0.01
Simulation CPU 0 panic: IPC 0.0022451 < 0.01
Simulation CPU 0 critical: IPC 0.012983 < 0.02
Simulation CPU 0 warning: IPC 0.025955 < 0.05
[ERROR_CYCLE] Error added at CPU cycle 185936644, interval 4, pending count: 1
[DRAM_CYCLE_ERROR] Cycle-based error applied! address=0x537c27398 additional_latency=2459910500 cycles
Simulation CPU 0 panic: IPC 0.0046206 < 0.01
Simulation CPU 0 panic: IPC 0 < 0.01
Simulation CPU 0 panic: IPC 0.0031239 < 0.01
Simulation CPU 0 critical: IPC 0.012724 < 0.02
Simulation CPU 0 panic: IPC 0.0022451 < 0.01
[ERROR_CYCLE] Error added at CPU cycle 232420805, interval 5, pending count: 1
[DRAM_CYCLE_ERROR] Cycle-based error applied! address=0x537c2b2f8 additional_latency=2459910500 cycles
Simulation CPU 0 critical: IPC 0.012859 < 0.02
Simulation CPU 0 warning: IPC 0.025955 < 0.05
Simulation CPU 0 panic: IPC 0.0051198 < 0.01
Simulation CPU 0 panic: IPC 0.0023751 < 0.01
[ERROR_CYCLE] Error added at CPU cycle 278904966, interval 6, pending count: 1
Simulation CPU 0 critical: IPC 0.013106 < 0.02
[DRAM_CYCLE_ERROR] Cycle-based error applied! address=0x537c2f330 additional_latency=2459910500 cycles
Simulation CPU 0 panic: IPC 0 < 0.01
Simulation CPU 0 panic: IPC 0.0023699 < 0.01
Simulation CPU 0 critical: IPC 0.012484 < 0.02
Simulation CPU 0 warning: IPC 0.02583 < 0.05
[ERROR_CYCLE] Error added at CPU cycle 325389128, interval 7, pending count: 1
[DRAM_CYCLE_ERROR] Cycle-based error applied! address=0x537c333a8 additional_latency=2459910500 cycles
Simulation CPU 0 panic: IPC 0.005619 < 0.01
Simulation CPU 0 panic: IPC 0 < 0.01
Simulation CPU 0 panic: IPC 0.0017511 < 0.01
Simulation CPU 0 critical: IPC 0.013722 < 0.02
Simulation CPU 0 panic: IPC 0.0022451 < 0.01
[ERROR_CYCLE] Error added at CPU cycle 371873289, interval 8, pending count: 1
[DRAM_CYCLE_ERROR] Cycle-based error applied! address=0x568527ea0 additional_latency=2459910500 cycles
Simulation CPU 0 panic: IPC 0.0096096 < 0.01
Simulation CPU 0 panic: IPC 0.0027498 < 0.01
Simulation CPU 0 warning: IPC 0.02583 < 0.05
Simulation CPU 0 panic: IPC 0.0071205 < 0.01
[ERROR_CYCLE] Error added at CPU cycle 418357450, interval 9, pending count: 1
[DRAM_CYCLE_ERROR] Cycle-based error applied! address=0xf67900670 additional_latency=2459910500 cycles
Simulation CPU 0 panic: IPC 0 < 0.01
Simulation CPU 0 critical: IPC 0.01398 < 0.02
Simulation CPU 0 panic: IPC 0.0024947 < 0.01
Simulation CPU 0 critical: IPC 0.01211 < 0.02
Simulation CPU 0 warning: IPC 0.025705 < 0.05
[ERROR_CYCLE] Error added at CPU cycle 464841611, interval 10, pending count: 1
[DRAM_CYCLE_ERROR] Cycle-based error applied! address=0x8047004a8 additional_latency=2459910500 cycles
Simulation CPU 0 panic: IPC 0 < 0.01
Simulation CPU 0 panic: IPC 0.0064926 < 0.01
Simulation CPU 0 panic: IPC 0.0003783 < 0.01
Simulation CPU 0 critical: IPC 0.014596 < 0.02
Simulation CPU 0 panic: IPC 0.0024947 < 0.01
[ERROR_CYCLE] Error added at CPU cycle 511325771, interval 11, pending count: 1
[DRAM_CYCLE_ERROR] Cycle-based error applied! address=0x334300768 additional_latency=2459910500 cycles
Simulation CPU 0 panic: IPC 0 < 0.01
Simulation CPU 0 critical: IPC 0.01186 < 0.02
Simulation CPU 0 warning: IPC 0.025705 < 0.05
Simulation CPU 0 panic: IPC 0.0066021 < 0.01
[ERROR_CYCLE] Error added at CPU cycle 557809932, interval 12, pending count: 1
Simulation CPU 0 panic: IPC 0.0003897 < 0.01
[DRAM_CYCLE_ERROR] Cycle-based error applied! address=0xdc3400790 additional_latency=2459910500 cycles
Simulation CPU 0 panic: IPC 0 < 0.01
Simulation CPU 0 critical: IPC 0.017102 < 0.02
Simulation CPU 0 critical: IPC 0.011611 < 0.02
Simulation CPU 0 warning: IPC 0.02558 < 0.05
[ERROR_CYCLE] Error added at CPU cycle 604294093, interval 13, pending count: 1
[DRAM_CYCLE_ERROR] Cycle-based error applied! address=0xe8d00078 additional_latency=2459910500 cycles
Simulation CPU 0 panic: IPC 0 < 0.01
Simulation CPU 0 panic: IPC 0.0063717 < 0.01
Simulation CPU 0 panic: IPC 0.0011193 < 0.01
Simulation CPU 0 critical: IPC 0.014475 < 0.02
Simulation CPU 0 panic: IPC 0.0026195 < 0.01
[ERROR_CYCLE] Error added at CPU cycle 650778254, interval 14, pending count: 1
[DRAM_CYCLE_ERROR] Cycle-based error applied! address=0x45d400590 additional_latency=2459910500 cycles
Simulation CPU 0 panic: IPC 0 < 0.01
Simulation CPU 0 critical: IPC 0.011361 < 0.02
Simulation CPU 0 warning: IPC 0.02558 < 0.05
Simulation CPU 0 panic: IPC 0.0061221 < 0.01
[ERROR_CYCLE] Error added at CPU cycle 697262415, interval 15, pending count: 1
[DRAM_CYCLE_ERROR] Cycle-based error applied! address=0x537c523d0 additional_latency=2459910500 cycles
Simulation CPU 0 panic: IPC 0.0018681 < 0.01
Simulation CPU 0 panic: IPC 0 < 0.01
Simulation CPU 0 critical: IPC 0.014109 < 0.02
Simulation CPU 0 panic: IPC 0.0026195 < 0.01
Simulation CPU 0 critical: IPC 0.011236 < 0.02
[ERROR_CYCLE] Error added at CPU cycle 743746576, interval 16, pending count: 1
[DRAM_CYCLE_ERROR] Cycle-based error applied! address=0x537c56380 additional_latency=2459910500 cycles
Simulation CPU 0 warning: IPC 0.025455 < 0.05
Simulation CPU 0 panic: IPC 0.0058725 < 0.01
Simulation CPU 0 panic: IPC 0.0024921 < 0.01
Simulation CPU 0 critical: IPC 0.013976 < 0.02
Simulation CPU 0 panic: IPC 0.0027443 < 0.01
[ERROR_CYCLE] Error added at CPU cycle 790230737, interval 17, pending count: 1
[DRAM_CYCLE_ERROR] Cycle-based error applied! address=0x537c5a3b8 additional_latency=2459910500 cycles
Simulation CPU 0 panic: IPC 0 < 0.01
Simulation CPU 0 critical: IPC 0.010987 < 0.02
Simulation CPU 0 warning: IPC 0.025455 < 0.05
Simulation CPU 0 panic: IPC 0.0056229 < 0.01
[ERROR_CYCLE] Error added at CPU cycle 836714899, interval 18, pending count: 1
[DRAM_CYCLE_ERROR] Cycle-based error applied! address=0x537c5e3e0 additional_latency=2459910500 cycles
Simulation CPU 0 panic: IPC 0.0030572 < 0.01
Simulation CPU 0 panic: IPC 0 < 0.01
Simulation CPU 0 critical: IPC 0.013793 < 0.02
Simulation CPU 0 panic: IPC 0.0028691 < 0.01
Simulation CPU 0 critical: IPC 0.010612 < 0.02
[ERROR_CYCLE] Error added at CPU cycle 883199060, interval 19, pending count: 1
[DRAM_CYCLE_ERROR] Cycle-based error applied! address=0x537c629b0 additional_latency=2459910500 cycles
Simulation CPU 0 panic: IPC 0.0094131 < 0.01
Simulation CPU 0 panic: IPC 0 < 0.01
Simulation CPU 0 critical: IPC 0.015918 < 0.02
Simulation CPU 0 panic: IPC 0.009363 < 0.01
[ERROR_CYCLE] Error added at CPU cycle 929683221, interval 20, pending count: 1
Simulation CPU 0 critical: IPC 0.013601 < 0.02
[DRAM_CYCLE_ERROR] Cycle-based error applied! address=0x537c66378 additional_latency=2459910500 cycles
Simulation CPU 0 panic: IPC 0 < 0.01
Simulation CPU 0 panic: IPC 0.0027443 < 0.01
Simulation CPU 0 critical: IPC 0.010487 < 0.02
Simulation CPU 0 warning: IPC 0.025331 < 0.05
[ERROR_CYCLE] Error added at CPU cycle 976167382, interval 21, pending count: 1
[DRAM_CYCLE_ERROR] Cycle-based error applied! address=0xa92e00278 additional_latency=2459910500 cycles
Simulation CPU 0 panic: IPC 0 < 0.01
Simulation CPU 0 panic: IPC 0.005132 < 0.01
Simulation CPU 0 panic: IPC 0.0044889 < 0.01
Simulation CPU 0 critical: IPC 0.013352 < 0.02
Simulation CPU 0 panic: IPC 0.0029939 < 0.01
[ERROR_CYCLE] Error added at CPU cycle 1022651542, interval 22, pending count: 1
[DRAM_CYCLE_ERROR] Cycle-based error applied! address=0xe52c00518 additional_latency=2459910500 cycles
Simulation CPU 0 panic: IPC 0 < 0.01
Simulation CPU 0 critical: IPC 0.010238 < 0.02
Simulation CPU 0 warning: IPC 0.025206 < 0.05
Simulation CPU 0 panic: IPC 0.0049989 < 0.01
[ERROR_CYCLE] Error added at CPU cycle 1069135703, interval 23, pending count: 1
Simulation CPU 0 panic: IPC 0.0052377 < 0.01
[DRAM_CYCLE_ERROR] Cycle-based error applied! address=0xfbca00450 additional_latency=2459910500 cycles
Simulation CPU 0 panic: IPC 0 < 0.01
Simulation CPU 0 critical: IPC 0.014334 < 0.02
Simulation CPU 0 critical: IPC 0.01175 < 0.02
Simulation CPU 0 warning: IPC 0.025206 < 0.05
[ERROR_CYCLE] Error added at CPU cycle 1115619864, interval 24, pending count: 1
[DRAM_CYCLE_ERROR] Cycle-based error applied! address=0x9eed00698 additional_latency=2459910500 cycles
Simulation CPU 0 panic: IPC 0 < 0.01
Simulation CPU 0 panic: IPC 0.0046328 < 0.01
Simulation CPU 0 panic: IPC 0.0058617 < 0.01
Simulation CPU 0 critical: IPC 0.012852 < 0.02
Simulation CPU 0 panic: IPC 0.0031187 < 0.01
[ERROR_CYCLE] Error added at CPU cycle 1162104025, interval 25, pending count: 1
[DRAM_CYCLE_ERROR] Cycle-based error applied! address=0xf48300340 additional_latency=2459910500 cycles
Simulation CPU 0 panic: IPC 0 < 0.01
Simulation CPU 0 panic: IPC 0.0097386 < 0.01
Simulation CPU 0 warning: IPC 0.025081 < 0.05
Simulation CPU 0 panic: IPC 0.0046245 < 0.01
[ERROR_CYCLE] Error added at CPU cycle 1208588186, interval 26, pending count: 1
Simulation CPU 0 panic: IPC 0.0066105 < 0.01
[DRAM_CYCLE_ERROR] Cycle-based error applied! address=0x214a00490 additional_latency=2459910500 cycles
Simulation CPU 0 panic: IPC 0 < 0.01
Simulation CPU 0 critical: IPC 0.012603 < 0.02
Simulation CPU 0 panic: IPC 0.0031187 < 0.01
Simulation CPU 0 panic: IPC 0.009489 < 0.01
Heartbeat CPU 0 instructions: 10000001 cycles: 1250356928 heartbeat IPC: 0.007998 cumulative IPC: 0.007998 (Simulation time: 02 hr 07 min 02 sec)
[ERROR_CYCLE] Error added at CPU cycle 1255072347, interval 27, pending count: 1
[DRAM_CYCLE_ERROR] Cycle-based error applied! address=0x4d8a00000 additional_latency=2459910500 cycles
Simulation CPU 0 panic: IPC 0.0066513 < 0.01
Simulation CPU 0 critical: IPC 0.018313 < 0.02
Simulation CPU 0 panic: IPC 0.0043749 < 0.01
Simulation CPU 0 panic: IPC 0.0072345 < 0.01
Simulation CPU 0 critical: IPC 0.012478 < 0.02
[ERROR_CYCLE] Error added at CPU cycle 1301556508, interval 28, pending count: 1
[DRAM_CYCLE_ERROR] Cycle-based error applied! address=0x537c853a0 additional_latency=2459910500 cycles
Simulation CPU 0 panic: IPC 0 < 0.01
Simulation CPU 0 panic: IPC 0.0031187 < 0.01
Simulation CPU 0 panic: IPC 0.0093642 < 0.01
Simulation CPU 0 warning: IPC 0.024956 < 0.05
[ERROR_CYCLE] Error added at CPU cycle 1348040670, interval 29, pending count: 1
[DRAM_CYCLE_ERROR] Cycle-based error applied! address=0x537c89320 additional_latency=2459910500 cycles
Simulation CPU 0 panic: IPC 0.0040293 < 0.01
Simulation CPU 0 panic: IPC 0 < 0.01
Simulation CPU 0 panic: IPC 0.0080793 < 0.01
Simulation CPU 0 critical: IPC 0.012103 < 0.02
Simulation CPU 0 panic: IPC 0.0032435 < 0.01
[ERROR_CYCLE] Error added at CPU cycle 1394524831, interval 30, pending count: 1
[DRAM_CYCLE_ERROR] Cycle-based error applied! address=0x537c8d378 additional_latency=2459910500 cycles
Simulation CPU 0 panic: IPC 0.0091146 < 0.01
Simulation CPU 0 panic: IPC 0 < 0.01
Simulation CPU 0 warning: IPC 0.02484 < 0.05
Simulation CPU 0 critical: IPC 0.010982 < 0.02
Simulation CPU 0 critical: IPC 0.01348 < 0.02
[ERROR_CYCLE] Error added at CPU cycle 1441008992, interval 31, pending count: 1
[DRAM_CYCLE_ERROR] Cycle-based error applied! address=0x537c913b0 additional_latency=2459910500 cycles
Simulation CPU 0 panic: IPC 0 < 0.01
Simulation CPU 0 panic: IPC 0.0033683 < 0.01
Simulation CPU 0 panic: IPC 0.0087402 < 0.01
Simulation CPU 0 warning: IPC 0.024831 < 0.05
[ERROR_CYCLE] Error added at CPU cycle 1487493153, interval 32, pending count: 1
Simulation CPU 0 panic: IPC 0.0036261 < 0.01
[DRAM_CYCLE_ERROR] Cycle-based error applied! address=0x537c95330 additional_latency=2459910500 cycles
Simulation CPU 0 panic: IPC 0 < 0.01
Simulation CPU 0 panic: IPC 0.0094809 < 0.01
Simulation CPU 0 critical: IPC 0.011604 < 0.02
Simulation CPU 0 panic: IPC 0.0033683 < 0.01
[ERROR_CYCLE] Error added at CPU cycle 1533977313, interval 33, pending count: 1
[DRAM_CYCLE_ERROR] Cycle-based error applied! address=0x537c99388 additional_latency=2459910500 cycles
Simulation CPU 0 panic: IPC 0.0086154 < 0.01
Simulation CPU 0 panic: IPC 0 < 0.01
Simulation CPU 0 warning: IPC 0.024715 < 0.05
Simulation CPU 0 panic: IPC 0.0033765 < 0.01
Simulation CPU 0 critical: IPC 0.010105 < 0.02
[ERROR_CYCLE] Error added at CPU cycle 1580461474, interval 34, pending count: 1
[DRAM_CYCLE_ERROR] Cycle-based error applied! address=0xf39f00110 additional_latency=2459910500 cycles
Simulation CPU 0 panic: IPC 0 < 0.01
Simulation CPU 0 critical: IPC 0.01148 < 0.02
Simulation CPU 0 critical: IPC 0.011859 < 0.02
Simulation CPU 0 panic: IPC 0.0038895 < 0.01
[ERROR_CYCLE] Error added at CPU cycle 1626945635, interval 35, pending count: 1
[DRAM_CYCLE_ERROR] Cycle-based error applied! address=0xa36a00000 additional_latency=2459910500 cycles
Simulation CPU 0 panic: IPC 0 < 0.01
Simulation CPU 0 warning: IPC 0.020817 < 0.05
Simulation CPU 0 panic: IPC 0.0031269 < 0.01
Simulation CPU 0 critical: IPC 0.010854 < 0.02
Simulation CPU 0 critical: IPC 0.01123 < 0.02
[ERROR_CYCLE] Error added at CPU cycle 1673429796, interval 36, pending count: 1
[DRAM_CYCLE_ERROR] Cycle-based error applied! address=0x965400690 additional_latency=2459910500 cycles
Simulation CPU 0 panic: IPC 0 < 0.01
Simulation CPU 0 panic: IPC 0.0033683 < 0.01
Simulation CPU 0 panic: IPC 0.008241 < 0.01
Simulation CPU 0 warning: IPC 0.02459 < 0.05
[ERROR_CYCLE] Error added at CPU cycle 1719913957, interval 37, pending count: 1
Simulation CPU 0 panic: IPC 0.0028773 < 0.01
[DRAM_CYCLE_ERROR] Cycle-based error applied! address=0x701e003d0 additional_latency=2459910500 cycles
Simulation CPU 0 panic: IPC 0 < 0.01
Simulation CPU 0 critical: IPC 0.011478 < 0.02
Simulation CPU 0 critical: IPC 0.01098 < 0.02
Simulation CPU 0 panic: IPC 0.0036179 < 0.01
[ERROR_CYCLE] Error added at CPU cycle 1766398118, interval 38, pending count: 1
[DRAM_CYCLE_ERROR] Cycle-based error applied! address=0x8e8a00138 additional_latency=2459910500 cycles
Simulation CPU 0 panic: IPC 0.0078666 < 0.01
Simulation CPU 0 warning: IPC 0.024582 < 0.05
Simulation CPU 0 panic: IPC 0.0027525 < 0.01
Simulation CPU 0 critical: IPC 0.012226 < 0.02
Simulation CPU 0 critical: IPC 0.010731 < 0.02
[ERROR_CYCLE] Error added at CPU cycle 1812882279, interval 39, pending count: 1
[DRAM_CYCLE_ERROR] Cycle-based error applied! address=0x95b5004b8 additional_latency=2459910500 cycles
Simulation CPU 0 panic: IPC 0 < 0.01
Simulation CPU 0 panic: IPC 0.0036179 < 0.01
Simulation CPU 0 panic: IPC 0.007617 < 0.01
Simulation CPU 0 warning: IPC 0.024465 < 0.05
[ERROR_CYCLE] Error added at CPU cycle 1859366441, interval 40, pending count: 1
[DRAM_CYCLE_ERROR] Cycle-based error applied! address=0x537cb4358 additional_latency=2459910500 cycles
Simulation CPU 0 panic: IPC 0.0025029 < 0.01
Simulation CPU 0 panic: IPC 0 < 0.01
Simulation CPU 0 critical: IPC 0.012851 < 0.02
Simulation CPU 0 critical: IPC 0.010587 < 0.02
Simulation CPU 0 panic: IPC 0.0036371 < 0.01
[ERROR_CYCLE] Error added at CPU cycle 1905850602, interval 41, pending count: 1
[DRAM_CYCLE_ERROR] Cycle-based error applied! address=0x537cb83b0 additional_latency=2459910500 cycles
Simulation CPU 0 panic: IPC 0.0074922 < 0.01
Simulation CPU 0 panic: IPC 0 < 0.01
Simulation CPU 0 warning: IPC 0.024457 < 0.05
Simulation CPU 0 panic: IPC 0.0042014 < 0.01
Simulation CPU 0 warning: IPC 0.021883 < 0.05
[ERROR_CYCLE] Error added at CPU cycle 1952334763, interval 42, pending count: 1
[DRAM_CYCLE_ERROR] Cycle-based error applied! address=0x537cbc3e8 additional_latency=2459910500 cycles
Simulation CPU 0 panic: IPC 0 < 0.01
Simulation CPU 0 panic: IPC 0.0037427 < 0.01
Simulation CPU 0 panic: IPC 0.0072426 < 0.01
Simulation CPU 0 warning: IPC 0.024341 < 0.05
[ERROR_CYCLE] Error added at CPU cycle 1998818924, interval 43, pending count: 1
Simulation CPU 0 panic: IPC 0.0020037 < 0.01
[DRAM_CYCLE_ERROR] Cycle-based error applied! address=0x537cc0368 additional_latency=2459910500 cycles
Simulation CPU 0 panic: IPC 0 < 0.01
Simulation CPU 0 critical: IPC 0.014223 < 0.02
Simulation CPU 0 critical: IPC 0.010107 < 0.02
Simulation CPU 0 panic: IPC 0.0037427 < 0.01
[ERROR_CYCLE] Error added at CPU cycle 2045303084, interval 44, pending count: 1
[DRAM_CYCLE_ERROR] Cycle-based error applied! address=0x537cc43c0 additional_latency=2459910500 cycles
Simulation CPU 0 panic: IPC 0.006993 < 0.01
Simulation CPU 0 panic: IPC 0 < 0.01
Simulation CPU 0 warning: IPC 0.024332 < 0.05
Simulation CPU 0 panic: IPC 0.0018789 < 0.01
Simulation CPU 0 critical: IPC 0.014972 < 0.02
[ERROR_CYCLE] Error added at CPU cycle 2091787245, interval 45, pending count: 1
[DRAM_CYCLE_ERROR] Cycle-based error applied! address=0x537cc83f8 additional_latency=2459910500 cycles
Simulation CPU 0 panic: IPC 0.0097323 < 0.01
Simulation CPU 0 panic: IPC 0 < 0.01
Simulation CPU 0 critical: IPC 0.010611 < 0.02
Simulation CPU 0 warning: IPC 0.024216 < 0.05
[ERROR_CYCLE] Error added at CPU cycle 2138271406, interval 46, pending count: 1
[DRAM_CYCLE_ERROR] Cycle-based error applied! address=0x68a500238 additional_latency=2459910500 cycles
Simulation CPU 0 panic: IPC 0 < 0.01
Simulation CPU 0 panic: IPC 0.0015045 < 0.01
Simulation CPU 0 critical: IPC 0.015721 < 0.02
Simulation CPU 0 panic: IPC 0.0096075 < 0.01
Simulation CPU 0 panic: IPC 0.0039923 < 0.01
[ERROR_CYCLE] Error added at CPU cycle 2184755567, interval 47, pending count: 1
[DRAM_CYCLE_ERROR] Cycle-based error applied! address=0x825c006e8 additional_latency=2459910500 cycles
Simulation CPU 0 panic: IPC 0 < 0.01
Simulation CPU 0 panic: IPC 0.0064938 < 0.01
Simulation CPU 0 warning: IPC 0.024207 < 0.05
Simulation CPU 0 panic: IPC 0.0012549 < 0.01
Simulation CPU 0 critical: IPC 0.01647 < 0.02
[ERROR_CYCLE] Error added at CPU cycle 2231239728, interval 48, pending count: 1
[DRAM_CYCLE_ERROR] Cycle-based error applied! address=0xfaa700650 additional_latency=2459910500 cycles
Simulation CPU 0 panic: IPC 0 < 0.01
Simulation CPU 0 panic: IPC 0.0093579 < 0.01
Simulation CPU 0 panic: IPC 0.0038675 < 0.01
Simulation CPU 0 panic: IPC 0.006369 < 0.01
[ERROR_CYCLE] Error added at CPU cycle 2277723889, interval 49, pending count: 1
Simulation CPU 0 warning: IPC 0.024091 < 0.05
[DRAM_CYCLE_ERROR] Cycle-based error applied! address=0x97fb00658 additional_latency=2459910500 cycles
Simulation CPU 0 panic: IPC 0.0010053 < 0.01
Simulation CPU 0 critical: IPC 0.017094 < 0.02
Simulation CPU 0 panic: IPC 0.0091083 < 0.01
Simulation CPU 0 panic: IPC 0.0041171 < 0.01
[ERROR_CYCLE] Error added at CPU cycle 2324208050, interval 50, pending count: 1
[DRAM_CYCLE_ERROR] Cycle-based error applied! address=0x392200510 additional_latency=2459910500 cycles
Simulation CPU 0 panic: IPC 0 < 0.01
Simulation CPU 0 panic: IPC 0.0059946 < 0.01
Simulation CPU 0 warning: IPC 0.024083 < 0.05
Simulation CPU 0 panic: IPC 0.0008805 < 0.01
Simulation CPU 0 critical: IPC 0.012847 < 0.02
[ERROR_CYCLE] Error added at CPU cycle 2370692212, interval 51, pending count: 1
[DRAM_CYCLE_ERROR] Cycle-based error applied! address=0x3d0400008 additional_latency=2459910500 cycles
Simulation CPU 0 panic: IPC 0 < 0.01
Simulation CPU 0 panic: IPC 0.0049957 < 0.01
Simulation CPU 0 panic: IPC 0.0088587 < 0.01
Simulation CPU 0 panic: IPC 0.0039923 < 0.01
[ERROR_CYCLE] Error added at CPU cycle 2417176373, interval 52, pending count: 1
Simulation CPU 0 panic: IPC 0.0058698 < 0.01
[DRAM_CYCLE_ERROR] Cycle-based error applied! address=0xf9d300328 additional_latency=2459910500 cycles
Simulation CPU 0 panic: IPC 0 < 0.01
Heartbeat CPU 0 instructions: 20000004 cycles: 2431516085 heartbeat IPC: 0.008466 cumulative IPC: 0.008225 (Simulation time: 04 hr 14 min 08 sec)
Simulation CPU 0 warning: IPC 0.023966 < 0.05
Simulation CPU 0 panic: IPC 0.0006309 < 0.01
Simulation CPU 0 warning: IPC 0.027076 < 0.05
[ERROR_CYCLE] Error added at CPU cycle 2463660534, interval 53, pending count: 1
[DRAM_CYCLE_ERROR] Cycle-based error applied! address=0x537ce7420 additional_latency=2459910500 cycles
Simulation CPU 0 panic: IPC 0 < 0.01
Simulation CPU 0 panic: IPC 0.0042419 < 0.01
Simulation CPU 0 panic: IPC 0.0056202 < 0.01
Simulation CPU 0 warning: IPC 0.023958 < 0.05
Simulation CPU 0 panic: IPC 0.0003813 < 0.01
[ERROR_CYCLE] Error added at CPU cycle 2510144695, interval 54, pending count: 1
[DRAM_CYCLE_ERROR] Cycle-based error applied! address=0x537ceb3a0 additional_latency=2459910500 cycles
Simulation CPU 0 panic: IPC 0 < 0.01
Simulation CPU 0 critical: IPC 0.019215 < 0.02
Simulation CPU 0 panic: IPC 0.0083595 < 0.01
Simulation CPU 0 panic: IPC 0.0042419 < 0.01
[ERROR_CYCLE] Error added at CPU cycle 2556628855, interval 55, pending count: 1
[DRAM_CYCLE_ERROR] Cycle-based error applied! address=0x537cef3f8 additional_latency=2459910500 cycles
Simulation CPU 0 panic: IPC 0.0053789 < 0.01
Simulation CPU 0 panic: IPC 0 < 0.01
Simulation CPU 0 warning: IPC 0.023833 < 0.05
Simulation CPU 0 panic: IPC 0.0001317 < 0.01
Simulation CPU 0 critical: IPC 0.019839 < 0.02
[ERROR_CYCLE] Error added at CPU cycle 2603113016, interval 56, pending count: 1
[DRAM_CYCLE_ERROR] Cycle-based error applied! address=0x537cf3430 additional_latency=2459910500 cycles
Simulation CPU 0 panic: IPC 0.0082347 < 0.01
Simulation CPU 0 panic: IPC 0 < 0.01
Simulation CPU 0 panic: IPC 0.0093629 < 0.01
Simulation CPU 0 warning: IPC 0.023833 < 0.05
[ERROR_CYCLE] Error added at CPU cycle 2649597177, interval 57, pending count: 1
Simulation CPU 0 warning: IPC 0.020595 < 0.05
[DRAM_CYCLE_ERROR] Cycle-based error applied! address=0x537cf84a8 additional_latency=2459910500 cycles
Simulation CPU 0 panic: IPC 0 < 0.01
Simulation CPU 0 panic: IPC 0.0078603 < 0.01
Simulation CPU 0 panic: IPC 0.0043667 < 0.01
Simulation CPU 0 panic: IPC 0.0048797 < 0.01
[ERROR_CYCLE] Error added at CPU cycle 2696081338, interval 58, pending count: 1
Simulation CPU 0 warning: IPC 0.023466 < 0.05
[DRAM_CYCLE_ERROR] Cycle-based error applied! address=0x537cfc3b8 additional_latency=2459910500 cycles
Simulation CPU 0 panic: IPC 0 < 0.01
Simulation CPU 0 panic: IPC 0.0002427 < 0.01
Simulation CPU 0 critical: IPC 0.01133 < 0.02
Simulation CPU 0 panic: IPC 0.0096391 < 0.01
[ERROR_CYCLE] Error added at CPU cycle 2742565499, interval 59, pending count: 1
[DRAM_CYCLE_ERROR] Cycle-based error applied! address=0x145100310 additional_latency=2459910500 cycles
Simulation CPU 0 panic: IPC 0 < 0.01
Simulation CPU 0 panic: IPC 0.0077355 < 0.01
Simulation CPU 0 panic: IPC 0.0044915 < 0.01
Simulation CPU 0 panic: IPC 0.0046218 < 0.01
[ERROR_CYCLE] Error added at CPU cycle 2789049660, interval 60, pending count: 1
Simulation CPU 0 warning: IPC 0.023216 < 0.05
[DRAM_CYCLE_ERROR] Cycle-based error applied! address=0xd0a00730 additional_latency=2459910500 cycles
Simulation CPU 0 panic: IPC 0.0004923 < 0.01
Simulation CPU 0 warning: IPC 0.021469 < 0.05
Simulation CPU 0 panic: IPC 0.0073611 < 0.01
Simulation CPU 0 panic: IPC 0.0044998 < 0.01
[ERROR_CYCLE] Error added at CPU cycle 2835533821, interval 61, pending count: 1
[DRAM_CYCLE_ERROR] Cycle-based error applied! address=0x486002c0 additional_latency=2459910500 cycles
Simulation CPU 0 panic: IPC 0 < 0.01
Simulation CPU 0 panic: IPC 0.004497 < 0.01
Simulation CPU 0 warning: IPC 0.022842 < 0.05
Simulation CPU 0 panic: IPC 0.0007419 < 0.01
Simulation CPU 0 warning: IPC 0.021843 < 0.05
[ERROR_CYCLE] Error added at CPU cycle 2882017983, interval 62, pending count: 1
[DRAM_CYCLE_ERROR] Cycle-based error applied! address=0x4cd200350 additional_latency=2459910500 cycles
Simulation CPU 0 panic: IPC 0 < 0.01
Simulation CPU 0 panic: IPC 0.0072363 < 0.01
Simulation CPU 0 panic: IPC 0.0046163 < 0.01
Simulation CPU 0 panic: IPC 0.0041226 < 0.01
[ERROR_CYCLE] Error added at CPU cycle 2928502144, interval 63, pending count: 1
Simulation CPU 0 warning: IPC 0.022592 < 0.05
[DRAM_CYCLE_ERROR] Cycle-based error applied! address=0xfc8c00068 additional_latency=2459910500 cycles
Simulation CPU 0 panic: IPC 0 < 0.01
Simulation CPU 0 panic: IPC 0.0010011 < 0.01
Simulation CPU 0 warning: IPC 0.022457 < 0.05
Simulation CPU 0 critical: IPC 0.011487 < 0.02
[ERROR_CYCLE] Error added at CPU cycle 2974986305, interval 64, pending count: 1
[DRAM_CYCLE_ERROR] Cycle-based error applied! address=0xe67f000e8 additional_latency=2459910500 cycles
Simulation CPU 0 panic: IPC 0 < 0.01
Simulation CPU 0 panic: IPC 0.0039978 < 0.01
Simulation CPU 0 warning: IPC 0.022218 < 0.05
Simulation CPU 0 panic: IPC 0.0012411 < 0.01
Simulation CPU 0 warning: IPC 0.022841 < 0.05
[ERROR_CYCLE] Error added at CPU cycle 3021470466, interval 65, pending count: 1
[DRAM_CYCLE_ERROR] Cycle-based error applied! address=0x14f5174d0 additional_latency=2459910500 cycles
Simulation CPU 0 panic: IPC 0 < 0.01
Simulation CPU 0 panic: IPC 0.0067371 < 0.01
Simulation CPU 0 panic: IPC 0.0047411 < 0.01
Simulation CPU 0 panic: IPC 0.0037482 < 0.01
[ERROR_CYCLE] Error added at CPU cycle 3067954626, interval 66, pending count: 1
[DRAM_CYCLE_ERROR] Cycle-based error applied! address=0x14f51b3e0 additional_latency=2459910500 cycles
Simulation CPU 0 warning: IPC 0.021968 < 0.05
Simulation CPU 0 panic: IPC 0 < 0.01
Simulation CPU 0 panic: IPC 0.0014907 < 0.01
Simulation CPU 0 panic: IPC 0.0088181 < 0.01
Simulation CPU 0 critical: IPC 0.014523 < 0.02
[ERROR_CYCLE] Error added at CPU cycle 3114438787, interval 67, pending count: 1
[DRAM_CYCLE_ERROR] Cycle-based error applied! address=0x14f51f468 additional_latency=2459910500 cycles
Simulation CPU 0 panic: IPC 0.006371 < 0.01
Simulation CPU 0 panic: IPC 0 < 0.01
Simulation CPU 0 panic: IPC 0.0083645 < 0.01
Simulation CPU 0 warning: IPC 0.021594 < 0.05
Simulation CPU 0 panic: IPC 0.0017403 < 0.01
[ERROR_CYCLE] Error added at CPU cycle 3160922948, interval 68, pending count: 1
[DRAM_CYCLE_ERROR] Cycle-based error applied! address=0x14f523488 additional_latency=2459910500 cycles
Simulation CPU 0 panic: IPC 0 < 0.01
Simulation CPU 0 warning: IPC 0.023715 < 0.05
Simulation CPU 0 panic: IPC 0.0063627 < 0.01
Simulation CPU 0 panic: IPC 0.0047411 < 0.01
[ERROR_CYCLE] Error added at CPU cycle 3207407109, interval 69, pending count: 1
Simulation CPU 0 panic: IPC 0.003249 < 0.01
[DRAM_CYCLE_ERROR] Cycle-based error applied! address=0x14f527440 additional_latency=2459910500 cycles
Simulation CPU 0 panic: IPC 0 < 0.01
Simulation CPU 0 warning: IPC 0.021469 < 0.05
Simulation CPU 0 panic: IPC 0.0018939 < 0.01
Simulation CPU 0 warning: IPC 0.024243 < 0.05
[ERROR_CYCLE] Error added at CPU cycle 3253891270, interval 70, pending count: 1
[DRAM_CYCLE_ERROR] Cycle-based error applied! address=0x14f52b478 additional_latency=2459910500 cycles
Simulation CPU 0 panic: IPC 0.005939 < 0.01
Simulation CPU 0 panic: IPC 0 < 0.01
Simulation CPU 0 panic: IPC 0.0049907 < 0.01
Simulation CPU 0 panic: IPC 0.0029994 < 0.01
Simulation CPU 0 warning: IPC 0.021094 < 0.05
[ERROR_CYCLE] Error added at CPU cycle 3300375431, interval 71, pending count: 1
[DRAM_CYCLE_ERROR] Cycle-based error applied! address=0x14f52f498 additional_latency=2459910500 cycles
Simulation CPU 0 panic: IPC 0.0021147 < 0.01
Simulation CPU 0 warning: IPC 0.024713 < 0.05
Simulation CPU 0 panic: IPC 0.0058635 < 0.01
Simulation CPU 0 panic: IPC 0.0048659 < 0.01
[ERROR_CYCLE] Error added at CPU cycle 3346859592, interval 72, pending count: 1
[DRAM_CYCLE_ERROR] Cycle-based error applied! address=0x513800070 additional_latency=2459910500 cycles
Simulation CPU 0 panic: IPC 0 < 0.01
Simulation CPU 0 panic: IPC 0.0028746 < 0.01
Simulation CPU 0 warning: IPC 0.020845 < 0.05
Simulation CPU 0 panic: IPC 0.0023643 < 0.01
Simulation CPU 0 warning: IPC 0.024971 < 0.05
[ERROR_CYCLE] Error added at CPU cycle 3393343754, interval 73, pending count: 1
[DRAM_CYCLE_ERROR] Cycle-based error applied! address=0x769500010 additional_latency=2459910500 cycles
Simulation CPU 0 panic: IPC 0 < 0.01
Simulation CPU 0 panic: IPC 0.0056139 < 0.01
Simulation CPU 0 panic: IPC 0.0051155 < 0.01
Simulation CPU 0 panic: IPC 0.002625 < 0.01
[ERROR_CYCLE] Error added at CPU cycle 3439827915, interval 74, pending count: 1
Simulation CPU 0 warning: IPC 0.02047 < 0.05
[DRAM_CYCLE_ERROR] Cycle-based error applied! address=0xa0c005e0 additional_latency=2459910500 cycles
Simulation CPU 0 panic: IPC 0 < 0.01
Simulation CPU 0 panic: IPC 0.0026139 < 0.01
Simulation CPU 0 warning: IPC 0.025587 < 0.05
Simulation CPU 0 critical: IPC 0.01048 < 0.02
[ERROR_CYCLE] Error added at CPU cycle 3486312076, interval 75, pending count: 1
[DRAM_CYCLE_ERROR] Cycle-based error applied! address=0xc7c1006e0 additional_latency=2459910500 cycles
Simulation CPU 0 panic: IPC 0 < 0.01
Simulation CPU 0 panic: IPC 0.0022506 < 0.01
Simulation CPU 0 warning: IPC 0.020345 < 0.05
Simulation CPU 0 panic: IPC 0.0027867 < 0.01
Simulation CPU 0 warning: IPC 0.025922 < 0.05
[ERROR_CYCLE] Error added at CPU cycle 3532796237, interval 76, pending count: 1
[DRAM_CYCLE_ERROR] Cycle-based error applied! address=0x2d600050 additional_latency=2459910500 cycles
Simulation CPU 0 panic: IPC 0 < 0.01
Simulation CPU 0 panic: IPC 0.0052395 < 0.01
Simulation CPU 0 panic: IPC 0.0051155 < 0.01
Simulation CPU 0 panic: IPC 0.0021258 < 0.01
[ERROR_CYCLE] Error added at CPU cycle 3579280397, interval 77, pending count: 1
Simulation CPU 0 critical: IPC 0.019971 < 0.02
[DRAM_CYCLE_ERROR] Cycle-based error applied! address=0x3d2b00770 additional_latency=2459910500 cycles
Simulation CPU 0 panic: IPC 0 < 0.01
Simulation CPU 0 panic: IPC 0.0029883 < 0.01
Heartbeat CPU 0 instructions: 30000005 cycles: 3602704902 heartbeat IPC: 0.008538 cumulative IPC: 0.008327 (Simulation time: 06 hr 16 min 25 sec)
Simulation CPU 0 warning: IPC 0.026585 < 0.05
Simulation CPU 0 panic: IPC 0.0048651 < 0.01
[ERROR_CYCLE] Error added at CPU cycle 3625764558, interval 78, pending count: 1
[DRAM_CYCLE_ERROR] Cycle-based error applied! address=0x14f54a4f0 additional_latency=2459910500 cycles
Simulation CPU 0 panic: IPC 0.0052403 < 0.01
Simulation CPU 0 panic: IPC 0 < 0.01
Simulation CPU 0 warning: IPC 0.021511 < 0.05
Simulation CPU 0 panic: IPC 0.0033243 < 0.01
Simulation CPU 0 warning: IPC 0.026843 < 0.05
[ERROR_CYCLE] Error added at CPU cycle 3672248719, interval 79, pending count: 1
[DRAM_CYCLE_ERROR] Cycle-based error applied! address=0x14f54e518 additional_latency=2459910500 cycles
Simulation CPU 0 panic: IPC 0 < 0.01
Simulation CPU 0 panic: IPC 0.0047403 < 0.01
Simulation CPU 0 panic: IPC 0.0052499 < 0.01
Simulation CPU 0 panic: IPC 0.0017418 < 0.01
[ERROR_CYCLE] Error added at CPU cycle 3718732880, interval 80, pending count: 1
Simulation CPU 0 critical: IPC 0.019222 < 0.02
[DRAM_CYCLE_ERROR] Cycle-based error applied! address=0x14f552428 additional_latency=2459910500 cycles
Simulation CPU 0 panic: IPC 0 < 0.01
Simulation CPU 0 panic: IPC 0.0036123 < 0.01
Simulation CPU 0 warning: IPC 0.027459 < 0.05
Simulation CPU 0 panic: IPC 0.0043659 < 0.01
[ERROR_CYCLE] Error added at CPU cycle 3765217041, interval 81, pending count: 1
[DRAM_CYCLE_ERROR] Cycle-based error applied! address=0x14f556500 additional_latency=2459910500 cycles
Simulation CPU 0 panic: IPC 0.0053651 < 0.01
Simulation CPU 0 panic: IPC 0 < 0.01
Simulation CPU 0 panic: IPC 0.001377 < 0.01
Simulation CPU 0 critical: IPC 0.019097 < 0.02
Simulation CPU 0 panic: IPC 0.0038043 < 0.01
[ERROR_CYCLE] Error added at CPU cycle 3811701202, interval 82, pending count: 1
[DRAM_CYCLE_ERROR] Cycle-based error applied! address=0x14f55a528 additional_latency=2459910500 cycles
Simulation CPU 0 warning: IPC 0.027775 < 0.05
Simulation CPU 0 panic: IPC 0.0042411 < 0.01
Simulation CPU 0 panic: IPC 0.0054899 < 0.01
Simulation CPU 0 panic: IPC 0.0011274 < 0.01
[ERROR_CYCLE] Error added at CPU cycle 3858185363, interval 83, pending count: 1
Simulation CPU 0 panic: IPC 0.0046611 < 0.01
[DRAM_CYCLE_ERROR] Cycle-based error applied! address=0x14f55e9c0 additional_latency=2459910500 cycles
Simulation CPU 0 panic: IPC 0 < 0.01
Simulation CPU 0 critical: IPC 0.014062 < 0.02
Simulation CPU 0 panic: IPC 0.0039867 < 0.01
Simulation CPU 0 warning: IPC 0.028457 < 0.05
[ERROR_CYCLE] Error added at CPU cycle 3904669525, interval 84, pending count: 1
[DRAM_CYCLE_ERROR] Cycle-based error applied! address=0x117900510 additional_latency=2459910500 cycles
Simulation CPU 0 panic: IPC 0 < 0.01
Simulation CPU 0 panic: IPC 0.0039915 < 0.01
Simulation CPU 0 panic: IPC 0.0053651 < 0.01
Simulation CPU 0 panic: IPC 0.0010026 < 0.01
Simulation CPU 0 critical: IPC 0.018474 < 0.02
[ERROR_CYCLE] Error added at CPU cycle 3951153686, interval 85, pending count: 1
[DRAM_CYCLE_ERROR] Cycle-based error applied! address=0xd8f600300 additional_latency=2459910500 cycles
Simulation CPU 0 panic: IPC 0 < 0.01
Simulation CPU 0 panic: IPC 0.0042363 < 0.01
Simulation CPU 0 warning: IPC 0.028715 < 0.05
Simulation CPU 0 panic: IPC 0.0093566 < 0.01
[ERROR_CYCLE] Error added at CPU cycle 3997637847, interval 86, pending count: 1
[DRAM_CYCLE_ERROR] Cycle-based error applied! address=0x10c300490 additional_latency=2459910500 cycles
Simulation CPU 0 panic: IPC 0 < 0.01
Simulation CPU 0 panic: IPC 0.000753 < 0.01
Simulation CPU 0 critical: IPC 0.018099 < 0.02
Simulation CPU 0 panic: IPC 0.0044859 < 0.01
Simulation CPU 0 warning: IPC 0.029331 < 0.05
[ERROR_CYCLE] Error added at CPU cycle 4044122008, interval 87, pending count: 1
[DRAM_CYCLE_ERROR] Cycle-based error applied! address=0x70500550 additional_latency=2459910500 cycles
Simulation CPU 0 panic: IPC 0 < 0.01
Simulation CPU 0 panic: IPC 0.0034923 < 0.01
Simulation CPU 0 panic: IPC 0.0056147 < 0.01
Simulation CPU 0 panic: IPC 0.0003786 < 0.01
Simulation CPU 0 critical: IPC 0.017974 < 0.02
[ERROR_CYCLE] Error added at CPU cycle 4090606168, interval 88, pending count: 1
[DRAM_CYCLE_ERROR] Cycle-based error applied! address=0xfab200490 additional_latency=2459910500 cycles
Simulation CPU 0 panic: IPC 0 < 0.01
Simulation CPU 0 panic: IPC 0.0046971 < 0.01
Simulation CPU 0 warning: IPC 0.029627 < 0.05
Simulation CPU 0 panic: IPC 0.0032427 < 0.01
[ERROR_CYCLE] Error added at CPU cycle 4137090329, interval 89, pending count: 1
Simulation CPU 0 panic: IPC 0.0057395 < 0.01
[DRAM_CYCLE_ERROR] Cycle-based error applied! address=0x789a002b8 additional_latency=2459910500 cycles
Simulation CPU 0 panic: IPC 0 < 0.01
Simulation CPU 0 critical: IPC 0.017854 < 0.02
Simulation CPU 0 panic: IPC 0.0048603 < 0.01
Simulation CPU 0 warning: IPC 0.030329 < 0.05
[ERROR_CYCLE] Error added at CPU cycle 4183574490, interval 90, pending count: 1
[DRAM_CYCLE_ERROR] Cycle-based error applied! address=0x79fd00590 additional_latency=2459910500 cycles
Simulation CPU 0 panic: IPC 0 < 0.01
Simulation CPU 0 panic: IPC 0.0029931 < 0.01
Simulation CPU 0 panic: IPC 0.0057395 < 0.01
Simulation CPU 0 panic: IPC 0.0019035 < 0.01
Simulation CPU 0 critical: IPC 0.015451 < 0.02
[ERROR_CYCLE] Error added at CPU cycle 4230058651, interval 91, pending count: 1
[DRAM_CYCLE_ERROR] Cycle-based error applied! address=0x14f57e460 additional_latency=2459910500 cycles
Simulation CPU 0 panic: IPC 0 < 0.01
Simulation CPU 0 panic: IPC 0.0051099 < 0.01
Simulation CPU 0 warning: IPC 0.030587 < 0.05
Simulation CPU 0 panic: IPC 0.0028683 < 0.01
[ERROR_CYCLE] Error added at CPU cycle 4276542812, interval 92, pending count: 1
[DRAM_CYCLE_ERROR] Cycle-based error applied! address=0x14f5824b8 additional_latency=2459910500 cycles
Simulation CPU 0 panic: IPC 0.0056189 < 0.01
Simulation CPU 0 panic: IPC 0 < 0.01
Simulation CPU 0 panic: IPC 0.0001206 < 0.01
Simulation CPU 0 critical: IPC 0.016855 < 0.02
Simulation CPU 0 panic: IPC 0.0053595 < 0.01
[ERROR_CYCLE] Error added at CPU cycle 4323026973, interval 93, pending count: 1
[DRAM_CYCLE_ERROR] Cycle-based error applied! address=0x14f586560 additional_latency=2459910500 cycles
Simulation CPU 0 warning: IPC 0.031203 < 0.05
Simulation CPU 0 panic: IPC 0.0024939 < 0.01
Simulation CPU 0 panic: IPC 0.0053693 < 0.01
Simulation CPU 0 panic: IPC 0.000495 < 0.01
[ERROR_CYCLE] Error added at CPU cycle 4369511134, interval 94, pending count: 1
Simulation CPU 0 critical: IPC 0.016356 < 0.02
[DRAM_CYCLE_ERROR] Cycle-based error applied! address=0x14f58a470 additional_latency=2459910500 cycles
Simulation CPU 0 panic: IPC 0 < 0.01
Simulation CPU 0 panic: IPC 0.0055899 < 0.01
Simulation CPU 0 warning: IPC 0.03148 < 0.05
Simulation CPU 0 panic: IPC 0.0023691 < 0.01
[ERROR_CYCLE] Error added at CPU cycle 4415995296, interval 95, pending count: 1
[DRAM_CYCLE_ERROR] Cycle-based error applied! address=0x14f58e4c8 additional_latency=2459910500 cycles
Simulation CPU 0 panic: IPC 0.0052445 < 0.01
Simulation CPU 0 panic: IPC 0 < 0.01
Simulation CPU 0 panic: IPC 0.0007446 < 0.01
Simulation CPU 0 critical: IPC 0.015607 < 0.02
Simulation CPU 0 panic: IPC 0.0058587 < 0.01
[ERROR_CYCLE] Error added at CPU cycle 4462479457, interval 96, pending count: 1
[DRAM_CYCLE_ERROR] Cycle-based error applied! address=0x14f592570 additional_latency=2459910500 cycles
Simulation CPU 0 warning: IPC 0.032201 < 0.05
Simulation CPU 0 panic: IPC 0 < 0.01
Simulation CPU 0 panic: IPC 0.0021195 < 0.01
Simulation CPU 0 panic: IPC 0.0058643 < 0.01
[ERROR_CYCLE] Error added at CPU cycle 4508963618, interval 97, pending count: 1
[DRAM_CYCLE_ERROR] Cycle-based error applied! address=0x2d5000240 additional_latency=2459910500 cycles
Simulation CPU 0 panic: IPC 0 < 0.01
Simulation CPU 0 critical: IPC 0.015233 < 0.02
Simulation CPU 0 panic: IPC 0.0061083 < 0.01
Simulation CPU 0 warning: IPC 0.032459 < 0.05
Simulation CPU 0 panic: IPC 0.0018699 < 0.01
[ERROR_CYCLE] Error added at CPU cycle 4555447779, interval 98, pending count: 1
[DRAM_CYCLE_ERROR] Cycle-based error applied! address=0xb184002d0 additional_latency=2459910500 cycles
Simulation CPU 0 panic: IPC 0 < 0.01
Simulation CPU 0 panic: IPC 0.0041324 < 0.01
Simulation CPU 0 panic: IPC 0.0008625 < 0.01
Simulation CPU 0 panic: IPC 0.001119 < 0.01
Simulation CPU 0 critical: IPC 0.014609 < 0.02
[ERROR_CYCLE] Error added at CPU cycle 4601931939, interval 99, pending count: 1
[DRAM_CYCLE_ERROR] Cycle-based error applied! address=0x9904001b0 additional_latency=2459910500 cycles
Simulation CPU 0 panic: IPC 0 < 0.01
Simulation CPU 0 panic: IPC 0.0063579 < 0.01
Simulation CPU 0 warning: IPC 0.033075 < 0.05
Simulation CPU 0 panic: IPC 0.0016203 < 0.01
[ERROR_CYCLE] Error added at CPU cycle 4648416100, interval 100, pending count: 1
Simulation CPU 0 panic: IPC 0.0046205 < 0.01
[DRAM_CYCLE_ERROR] Cycle-based error applied! address=0x41c400098 additional_latency=2459910500 cycles
Simulation CPU 0 panic: IPC 0 < 0.01
Simulation CPU 0 critical: IPC 0.014348 < 0.02
Simulation CPU 0 panic: IPC 0.0077459 < 0.01
Simulation CPU 0 warning: IPC 0.033449 < 0.05
[ERROR_CYCLE] Error added at CPU cycle 4694900261, interval 101, pending count: 1
[DRAM_CYCLE_ERROR] Cycle-based error applied! address=0xd6700250 additional_latency=2459910500 cycles
Simulation CPU 0 panic: IPC 0 < 0.01
Simulation CPU 0 panic: IPC 0.0013707 < 0.01
Simulation CPU 0 panic: IPC 0.0046205 < 0.01
Simulation CPU 0 panic: IPC 0.0016182 < 0.01
Simulation CPU 0 critical: IPC 0.01361 < 0.02
[ERROR_CYCLE] Error added at CPU cycle 4741384422, interval 102, pending count: 1
[DRAM_CYCLE_ERROR] Cycle-based error applied! address=0x1ca00340 additional_latency=2459910500 cycles
Simulation CPU 0 panic: IPC 0 < 0.01
Simulation CPU 0 panic: IPC 0.0067323 < 0.01
Heartbeat CPU 0 instructions: 40000008 cycles: 4764639590 heartbeat IPC: 0.008606 cumulative IPC: 0.008395 (Simulation time: 08 hr 19 min 22 sec)
Simulation CPU 0 warning: IPC 0.034073 < 0.05
Simulation CPU 0 panic: IPC 0.0011211 < 0.01
[ERROR_CYCLE] Error added at CPU cycle 4787868583, interval 103, pending count: 1
Simulation CPU 0 panic: IPC 0.0043709 < 0.01
[DRAM_CYCLE_ERROR] Cycle-based error applied! address=0x1f5a004b8 additional_latency=2459910500 cycles
Simulation CPU 0 panic: IPC 0 < 0.01
Simulation CPU 0 panic: IPC 0.0018678 < 0.01
Simulation CPU 0 critical: IPC 0.013111 < 0.02
Simulation CPU 0 panic: IPC 0.0068654 < 0.01
[ERROR_CYCLE] Error added at CPU cycle 4834352744, interval 104, pending count: 1
[DRAM_CYCLE_ERROR] Cycle-based error applied! address=0x14f5b1598 additional_latency=2459910500 cycles
Simulation CPU 0 warning: IPC 0.034448 < 0.05
Simulation CPU 0 panic: IPC 0.0009963 < 0.01
Simulation CPU 0 panic: IPC 0.0042461 < 0.01
Simulation CPU 0 panic: IPC 0.0019926 < 0.01
Simulation CPU 0 critical: IPC 0.012612 < 0.02
[ERROR_CYCLE] Error added at CPU cycle 4880836905, interval 105, pending count: 1
[DRAM_CYCLE_ERROR] Cycle-based error applied! address=0x14f5b54a8 additional_latency=2459910500 cycles
Simulation CPU 0 panic: IPC 0 < 0.01
Simulation CPU 0 panic: IPC 0.0072315 < 0.01
Simulation CPU 0 warning: IPC 0.034947 < 0.05
Simulation CPU 0 panic: IPC 0.0006219 < 0.01
[ERROR_CYCLE] Error added at CPU cycle 4927321067, interval 106, pending count: 1
[DRAM_CYCLE_ERROR] Cycle-based error applied! address=0x14f5b9500 additional_latency=2459910500 cycles
Simulation CPU 0 panic: IPC 0.0039965 < 0.01
Simulation CPU 0 panic: IPC 0 < 0.01
Simulation CPU 0 panic: IPC 0.002367 < 0.01
Simulation CPU 0 critical: IPC 0.012113 < 0.02
Simulation CPU 0 panic: IPC 0.0073646 < 0.01
[ERROR_CYCLE] Error added at CPU cycle 4973805228, interval 107, pending count: 1
[DRAM_CYCLE_ERROR] Cycle-based error applied! address=0x14f5bd5a8 additional_latency=2459910500 cycles
Simulation CPU 0 warning: IPC 0.035321 < 0.05
Simulation CPU 0 panic: IPC 0 < 0.01
Simulation CPU 0 panic: IPC 0.0004971 < 0.01
Simulation CPU 0 panic: IPC 0.0063827 < 0.01
Simulation CPU 0 critical: IPC 0.011595 < 0.02
[ERROR_CYCLE] Error added at CPU cycle 5020289389, interval 108, pending count: 1
[DRAM_CYCLE_ERROR] Cycle-based error applied! address=0x14f5c14b8 additional_latency=2459910500 cycles
Simulation CPU 0 panic: IPC 0 < 0.01
Simulation CPU 0 panic: IPC 0.0076059 < 0.01
Simulation CPU 0 warning: IPC 0.035945 < 0.05
Simulation CPU 0 panic: IPC 0.0001227 < 0.01
[ERROR_CYCLE] Error added at CPU cycle 5066773550, interval 109, pending count: 1
Simulation CPU 0 panic: IPC 0.0037469 < 0.01
[DRAM_CYCLE_ERROR] Cycle-based error applied! address=0x14f5c5510 additional_latency=2459910500 cycles
Simulation CPU 0 panic: IPC 0 < 0.01
Simulation CPU 0 panic: IPC 0.0027414 < 0.01
Simulation CPU 0 critical: IPC 0.010998 < 0.02
Simulation CPU 0 panic: IPC 0.0078555 < 0.01
[ERROR_CYCLE] Error added at CPU cycle 5113257710, interval 110, pending count: 1
[DRAM_CYCLE_ERROR] Cycle-based error applied! address=0x984d003a8 additional_latency=2459910500 cycles
Simulation CPU 0 panic: IPC 0 < 0.01
Simulation CPU 0 warning: IPC 0.036318 < 0.05
Simulation CPU 0 panic: IPC 0.0036221 < 0.01
Simulation CPU 0 panic: IPC 0.002991 < 0.01
[ERROR_CYCLE] Error added at CPU cycle 5159741871, interval 111, pending count: 1
Simulation CPU 0 critical: IPC 0.01049 < 0.02
[DRAM_CYCLE_ERROR] Cycle-based error applied! address=0x5a20007f0 additional_latency=2459910500 cycles
Simulation CPU 0 panic: IPC 0 < 0.01
Simulation CPU 0 panic: IPC 0.0081051 < 0.01
Simulation CPU 0 warning: IPC 0.036819 < 0.05
Simulation CPU 0 panic: IPC 0.002996 < 0.01
[ERROR_CYCLE] Error added at CPU cycle 5206226032, interval 112, pending count: 1
[DRAM_CYCLE_ERROR] Cycle-based error applied! address=0xb3d000080 additional_latency=2459910500 cycles
Simulation CPU 0 panic: IPC 9.6e-06 < 0.01
Simulation CPU 0 panic: IPC 0.003231 < 0.01
Simulation CPU 0 panic: IPC 0.0098748 < 0.01
Simulation CPU 0 panic: IPC 0.0084795 < 0.01
Simulation CPU 0 warning: IPC 0.036692 < 0.05
[ERROR_CYCLE] Error added at CPU cycle 5252710193, interval 113, pending count: 1
[DRAM_CYCLE_ERROR] Cycle-based error applied! address=0x716001e0 additional_latency=2459910500 cycles
Simulation CPU 0 panic: IPC 0 < 0.01
Simulation CPU 0 panic: IPC 0.0005013 < 0.01
Simulation CPU 0 panic: IPC 0.0027464 < 0.01
Simulation CPU 0 panic: IPC 0.0034902 < 0.01
[ERROR_CYCLE] Error added at CPU cycle 5299194354, interval 114, pending count: 1
Simulation CPU 0 panic: IPC 0.0093673 < 0.01
[DRAM_CYCLE_ERROR] Cycle-based error applied! address=0x325c00128 additional_latency=2459910500 cycles
Simulation CPU 0 panic: IPC 0 < 0.01
Simulation CPU 0 panic: IPC 0.0086043 < 0.01
Simulation CPU 0 critical: IPC 0.011586 < 0.02
Simulation CPU 0 warning: IPC 0.02548 < 0.05
[ERROR_CYCLE] Error added at CPU cycle 5345678515, interval 115, pending count: 1
[DRAM_CYCLE_ERROR] Cycle-based error applied! address=0x6ead00790 additional_latency=2459910500 cycles
Simulation CPU 0 panic: IPC 0.0007509 < 0.01
Simulation CPU 0 panic: IPC 0.0022472 < 0.01
Simulation CPU 0 panic: IPC 0.0037398 < 0.01
Simulation CPU 0 panic: IPC 0.0087516 < 0.01
Simulation CPU 0 panic: IPC 0.0088539 < 0.01
[ERROR_CYCLE] Error added at CPU cycle 5392162676, interval 116, pending count: 1
[DRAM_CYCLE_ERROR] Cycle-based error applied! address=0x14f5e1580 additional_latency=2459910500 cycles
Simulation CPU 0 panic: IPC 0 < 0.01
Simulation CPU 0 warning: IPC 0.037191 < 0.05
Simulation CPU 0 panic: IPC 0.0010005 < 0.01
Simulation CPU 0 panic: IPC 0.0019976 < 0.01
[ERROR_CYCLE] Error added at CPU cycle 5438646838, interval 117, pending count: 1
[DRAM_CYCLE_ERROR] Cycle-based error applied! address=0x14f5e55b8 additional_latency=2459910500 cycles
Simulation CPU 0 panic: IPC 0.0038646 < 0.01
Simulation CPU 0 panic: IPC 0 < 0.01
Simulation CPU 0 panic: IPC 0.0083689 < 0.01
Simulation CPU 0 panic: IPC 0.0091035 < 0.01
Simulation CPU 0 warning: IPC 0.037441 < 0.05
[ERROR_CYCLE] Error added at CPU cycle 5485130999, interval 118, pending count: 1
[DRAM_CYCLE_ERROR] Cycle-based error applied! address=0x14f5e95e0 additional_latency=2459910500 cycles
Simulation CPU 0 panic: IPC 0.0012501 < 0.01
Simulation CPU 0 panic: IPC 0 < 0.01
Simulation CPU 0 panic: IPC 0.0013736 < 0.01
Simulation CPU 0 panic: IPC 0.0092575 < 0.01
Simulation CPU 0 critical: IPC 0.012088 < 0.02
[ERROR_CYCLE] Error added at CPU cycle 5531615160, interval 119, pending count: 1
[DRAM_CYCLE_ERROR] Cycle-based error applied! address=0x14f5ed590 additional_latency=2459910500 cycles
Simulation CPU 0 panic: IPC 0 < 0.01
Simulation CPU 0 warning: IPC 0.037691 < 0.05
Simulation CPU 0 panic: IPC 0.0013749 < 0.01
Simulation CPU 0 panic: IPC 0.001124 < 0.01
[ERROR_CYCLE] Error added at CPU cycle 5578099321, interval 120, pending count: 1
Simulation CPU 0 panic: IPC 0.0043638 < 0.01
[DRAM_CYCLE_ERROR] Cycle-based error applied! address=0x14f5f15c8 additional_latency=2459910500 cycles
Simulation CPU 0 panic: IPC 0 < 0.01
Simulation CPU 0 panic: IPC 0.0073705 < 0.01
Simulation CPU 0 panic: IPC 0.0094779 < 0.01
Simulation CPU 0 warning: IPC 0.03794 < 0.05
[ERROR_CYCLE] Error added at CPU cycle 5624583481, interval 121, pending count: 1
[DRAM_CYCLE_ERROR] Cycle-based error applied! address=0x14f5f55f0 additional_latency=2459910500 cycles
Simulation CPU 0 panic: IPC 0.0016821 < 0.01
Simulation CPU 0 panic: IPC 0 < 0.01
Simulation CPU 0 panic: IPC 0.000692 < 0.01
Simulation CPU 0 panic: IPC 0.0046217 < 0.01
Simulation CPU 0 panic: IPC 0.0067465 < 0.01
[ERROR_CYCLE] Error added at CPU cycle 5671067642, interval 122, pending count: 1
[DRAM_CYCLE_ERROR] Cycle-based error applied! address=0x14f5f95a0 additional_latency=2459910500 cycles
Simulation CPU 0 panic: IPC 0.0097275 < 0.01
Simulation CPU 0 panic: IPC 0 < 0.01
Simulation CPU 0 warning: IPC 0.03819 < 0.05
Simulation CPU 0 panic: IPC 0.0018741 < 0.01
[ERROR_CYCLE] Error added at CPU cycle 5717551803, interval 123, pending count: 1
[DRAM_CYCLE_ERROR] Cycle-based error applied! address=0x147100410 additional_latency=2459910500 cycles
Simulation CPU 0 panic: IPC 0 < 0.01
Simulation CPU 0 panic: IPC 0.0003752 < 0.01
Simulation CPU 0 panic: IPC 0.004863 < 0.01
Simulation CPU 0 panic: IPC 0.0062473 < 0.01
Simulation CPU 0 panic: IPC 0.0099771 < 0.01
[ERROR_CYCLE] Error added at CPU cycle 5764035964, interval 124, pending count: 1
[DRAM_CYCLE_ERROR] Cycle-based error applied! address=0xe2b300598 additional_latency=2459910500 cycles
Simulation CPU 0 panic: IPC 0 < 0.01
Simulation CPU 0 warning: IPC 0.038439 < 0.05
Simulation CPU 0 panic: IPC 0.0018824 < 0.01
Simulation CPU 0 panic: IPC 0.0051134 < 0.01
Simulation CPU 0 panic: IPC 0.0057481 < 0.01
[ERROR_CYCLE] Error added at CPU cycle 5810520125, interval 125, pending count: 1
[DRAM_CYCLE_ERROR] Cycle-based error applied! address=0xe7fb006a0 additional_latency=2459910500 cycles
Simulation CPU 0 panic: IPC 0 < 0.01
Simulation CPU 0 critical: IPC 0.010227 < 0.02
Simulation CPU 0 warning: IPC 0.038564 < 0.05
Simulation CPU 0 panic: IPC 0.0018749 < 0.01
[ERROR_CYCLE] Error added at CPU cycle 5857004286, interval 126, pending count: 1
[DRAM_CYCLE_ERROR] Cycle-based error applied! address=0xda1700450 additional_latency=2459910500 cycles
Simulation CPU 0 panic: IPC 0.0004984 < 0.01
Simulation CPU 0 panic: IPC 0.0048638 < 0.01
Simulation CPU 0 panic: IPC 0.0052489 < 0.01
Simulation CPU 0 critical: IPC 0.010351 < 0.02
Simulation CPU 0 warning: IPC 0.038822 < 0.05
[ERROR_CYCLE] Error added at CPU cycle 5903488448, interval 127, pending count: 1
[DRAM_CYCLE_ERROR] Cycle-based error applied! address=0x18a100600 additional_latency=2459910500 cycles
Simulation CPU 0 panic: IPC 0 < 0.01
Simulation CPU 0 panic: IPC 0.0017501 < 0.01
Simulation CPU 0 panic: IPC 0.000748 < 0.01
Simulation CPU 0 panic: IPC 0.004739 < 0.01
Heartbeat CPU 0 instructions: 50000010 cycles: 5945061422 heartbeat IPC: 0.008472 cumulative IPC: 0.00841 (Simulation time: 10 hr 26 min 50 sec)
[ERROR_CYCLE] Error added at CPU cycle 5949972609, interval 128, pending count: 1
Simulation CPU 0 panic: IPC 0.0046729 < 0.01
[DRAM_CYCLE_ERROR] Cycle-based error applied! address=0x4ce800000 additional_latency=2459910500 cycles
Simulation CPU 0 panic: IPC 0 < 0.01
Simulation CPU 0 critical: IPC 0.010678 < 0.02
Simulation CPU 0 warning: IPC 0.039063 < 0.05
Simulation CPU 0 panic: IPC 0.0016253 < 0.01
[ERROR_CYCLE] Error added at CPU cycle 5996456770, interval 129, pending count: 1
[DRAM_CYCLE_ERROR] Cycle-based error applied! address=0x331515618 additional_latency=2459910500 cycles
Simulation CPU 0 panic: IPC 0.0012472 < 0.01
Simulation CPU 0 panic: IPC 0 < 0.01
Simulation CPU 0 panic: IPC 0.0044894 < 0.01
Simulation CPU 0 panic: IPC 0.0041257 < 0.01
Simulation CPU 0 critical: IPC 0.017662 < 0.02
[ERROR_CYCLE] Error added at CPU cycle 6042940931, interval 130, pending count: 1
[DRAM_CYCLE_ERROR] Cycle-based error applied! address=0x331519838 additional_latency=2459910500 cycles
Simulation CPU 0 panic: IPC 0 < 0.01
Simulation CPU 0 warning: IPC 0.032509 < 0.05
Simulation CPU 0 panic: IPC 0.0013757 < 0.01
Simulation CPU 0 panic: IPC 0.0016216 < 0.01
[ERROR_CYCLE] Error added at CPU cycle 6089425092, interval 131, pending count: 1
Simulation CPU 0 panic: IPC 0.0044894 < 0.01
[DRAM_CYCLE_ERROR] Cycle-based error applied! address=0x33151d600 additional_latency=2459910500 cycles
Simulation CPU 0 panic: IPC 0 < 0.01
Simulation CPU 0 panic: IPC 0.0035017 < 0.01
Simulation CPU 0 critical: IPC 0.011225 < 0.02
Simulation CPU 0 warning: IPC 0.039563 < 0.05
[ERROR_CYCLE] Error added at CPU cycle 6135909252, interval 132, pending count: 1
[DRAM_CYCLE_ERROR] Cycle-based error applied! address=0x331521588 additional_latency=2459910500 cycles
Simulation CPU 0 panic: IPC 0.0011261 < 0.01
Simulation CPU 0 panic: IPC 0 < 0.01
Simulation CPU 0 panic: IPC 0.0021208 < 0.01
Simulation CPU 0 panic: IPC 0.004115 < 0.01
Simulation CPU 0 panic: IPC 0.0031273 < 0.01
[ERROR_CYCLE] Error added at CPU cycle 6182393413, interval 133, pending count: 1
[DRAM_CYCLE_ERROR] Cycle-based error applied! address=0x3315255d8 additional_latency=2459910500 cycles
Simulation CPU 0 critical: IPC 0.01135 < 0.02
Simulation CPU 0 panic: IPC 0 < 0.01
Simulation CPU 0 warning: IPC 0.040822 < 0.05
Simulation CPU 0 panic: IPC 0.0023704 < 0.01
[ERROR_CYCLE] Error added at CPU cycle 6228877574, interval 134, pending count: 1
Simulation CPU 0 panic: IPC 0.004115 < 0.01
[DRAM_CYCLE_ERROR] Cycle-based error applied! address=0x331529610 additional_latency=2459910500 cycles
Simulation CPU 0 panic: IPC 0 < 0.01
Simulation CPU 0 panic: IPC 0.0025033 < 0.01
Simulation CPU 0 critical: IPC 0.0116 < 0.02
Simulation CPU 0 warning: IPC 0.040062 < 0.05
[ERROR_CYCLE] Error added at CPU cycle 6275361735, interval 135, pending count: 1
[DRAM_CYCLE_ERROR] Cycle-based error applied! address=0xbaaa00588 additional_latency=2459910500 cycles
Simulation CPU 0 panic: IPC 0 < 0.01
Simulation CPU 0 panic: IPC 0.0008765 < 0.01
Simulation CPU 0 panic: IPC 0.0028696 < 0.01
Simulation CPU 0 panic: IPC 0.0037694 < 0.01
Simulation CPU 0 panic: IPC 0.0021001 < 0.01
[ERROR_CYCLE] Error added at CPU cycle 6321845896, interval 136, pending count: 1
[DRAM_CYCLE_ERROR] Cycle-based error applied! address=0xc07003c0 additional_latency=2459910500 cycles
Simulation CPU 0 panic: IPC 0 < 0.01
Simulation CPU 0 critical: IPC 0.011849 < 0.02
Simulation CPU 0 warning: IPC 0.04007 < 0.05
Simulation CPU 0 panic: IPC 0.0007517 < 0.01
[ERROR_CYCLE] Error added at CPU cycle 6368330057, interval 137, pending count: 1
Simulation CPU 0 panic: IPC 0.003244 < 0.01
[DRAM_CYCLE_ERROR] Cycle-based error applied! address=0x24f300110 additional_latency=2459910500 cycles
Simulation CPU 0 panic: IPC 0.0037406 < 0.01
Simulation CPU 0 panic: IPC 0.0015049 < 0.01
Simulation CPU 0 critical: IPC 0.012099 < 0.02
Simulation CPU 0 warning: IPC 0.040436 < 0.05
[ERROR_CYCLE] Error added at CPU cycle 6414814219, interval 138, pending count: 1
[DRAM_CYCLE_ERROR] Cycle-based error applied! address=0x198b003b0 additional_latency=2459910500 cycles
Simulation CPU 0 panic: IPC 0 < 0.01
Simulation CPU 0 panic: IPC 0.0005021 < 0.01
Simulation CPU 0 panic: IPC 0.0037432 < 0.01
Simulation CPU 0 panic: IPC 0.003491 < 0.01
Simulation CPU 0 panic: IPC 0.0010057 < 0.01
[ERROR_CYCLE] Error added at CPU cycle 6461298380, interval 139, pending count: 1
[DRAM_CYCLE_ERROR] Cycle-based error applied! address=0xffba00550 additional_latency=2459910500 cycles
Simulation CPU 0 panic: IPC 0 < 0.01
Simulation CPU 0 critical: IPC 0.012223 < 0.02
Simulation CPU 0 warning: IPC 0.040694 < 0.05
Simulation CPU 0 panic: IPC 0.0003773 < 0.01
[ERROR_CYCLE] Error added at CPU cycle 6507782541, interval 140, pending count: 1
Simulation CPU 0 panic: IPC 0.0039928 < 0.01
[DRAM_CYCLE_ERROR] Cycle-based error applied! address=0xc30300150 additional_latency=2459910500 cycles
Simulation CPU 0 panic: IPC 0 < 0.01
Simulation CPU 0 panic: IPC 0.0033662 < 0.01
Simulation CPU 0 panic: IPC 0.0005065 < 0.01
[ERROR_CYCLE] Error added at CPU cycle 6554266702, interval 141, pending count: 1
[DRAM_CYCLE_ERROR] Cycle-based error applied! address=0x3315445e8 additional_latency=2459910500 cycles
Simulation CPU 0 panic: IPC 0 < 0.01
Simulation CPU 0 panic: IPC 0.0002525 < 0.01
Simulation CPU 0 panic: IPC 0.004492 < 0.01
Simulation CPU 0 panic: IPC 0.0031166 < 0.01
Simulation CPU 0 critical: IPC 0.01273 < 0.02
[ERROR_CYCLE] Error added at CPU cycle 6600750863, interval 142, pending count: 1
[DRAM_CYCLE_ERROR] Cycle-based error applied! address=0x331549608 additional_latency=2459910500 cycles
Simulation CPU 0 panic: IPC 0 < 0.01
Simulation CPU 0 warning: IPC 0.041068 < 0.05
Simulation CPU 0 panic: IPC 0.0048693 < 0.01
Simulation CPU 0 panic: IPC 0.0024999 < 0.01
[ERROR_CYCLE] Error added at CPU cycle 6647235023, interval 143, pending count: 1
[DRAM_CYCLE_ERROR] Cycle-based error applied! address=0x33154e640 additional_latency=2459910500 cycles
Simulation CPU 0 panic: IPC 0.0006167 < 0.01
Simulation CPU 0 panic: IPC 0 < 0.01
Simulation CPU 0 critical: IPC 0.012356 < 0.02
Simulation CPU 0 warning: IPC 0.041188 < 0.05
Simulation CPU 0 panic: IPC 0.0001219 < 0.01
[ERROR_CYCLE] Error added at CPU cycle 6693719184, interval 144, pending count: 1
[DRAM_CYCLE_ERROR] Cycle-based error applied! address=0x331552668 additional_latency=2459910500 cycles
Simulation CPU 0 panic: IPC 0.0052437 < 0.01
Simulation CPU 0 panic: IPC 0 < 0.01
Simulation CPU 0 panic: IPC 0.0027422 < 0.01
Simulation CPU 0 critical: IPC 0.012106 < 0.02
Simulation CPU 0 warning: IPC 0.04123 < 0.05
[ERROR_CYCLE] Error added at CPU cycle 6740203345, interval 145, pending count: 1
[DRAM_CYCLE_ERROR] Cycle-based error applied! address=0x3315569d0 additional_latency=2459910500 cycles
Simulation CPU 0 panic: IPC 0 < 0.01
Simulation CPU 0 panic: IPC 9.09e-05 < 0.01
Simulation CPU 0 panic: IPC 0.0002467 < 0.01
Simulation CPU 0 panic: IPC 0.0053685 < 0.01
[ERROR_CYCLE] Error added at CPU cycle 6786687506, interval 146, pending count: 1
Simulation CPU 0 panic: IPC 0.0010023 < 0.01
[DRAM_CYCLE_ERROR] Cycle-based error applied! address=0x33155a580 additional_latency=2459910500 cycles
Simulation CPU 0 panic: IPC 0 < 0.01
Simulation CPU 0 panic: IPC 0.0017399 < 0.01
Simulation CPU 0 critical: IPC 0.011732 < 0.02
Simulation CPU 0 warning: IPC 0.041437 < 0.05
[ERROR_CYCLE] Error added at CPU cycle 6833171667, interval 147, pending count: 1
[DRAM_CYCLE_ERROR] Cycle-based error applied! address=0x2ee600658 additional_latency=2459910500 cycles
Simulation CPU 0 panic: IPC 0 < 0.01
Simulation CPU 0 panic: IPC 0.0004963 < 0.01
Simulation CPU 0 panic: IPC 0.0056181 < 0.01
Simulation CPU 0 panic: IPC 0.0002535 < 0.01
[ERROR_CYCLE] Error added at CPU cycle 6879655828, interval 148, pending count: 1
Simulation CPU 0 panic: IPC 0.0021143 < 0.01
[DRAM_CYCLE_ERROR] Cycle-based error applied! address=0x3917000d0 additional_latency=2459910500 cycles
Simulation CPU 0 panic: IPC 0 < 0.01
Simulation CPU 0 panic: IPC 0.0006211 < 0.01
Simulation CPU 0 panic: IPC 0.0054972 < 0.01
[ERROR_CYCLE] Error added at CPU cycle 6926139990, interval 149, pending count: 1
[DRAM_CYCLE_ERROR] Cycle-based error applied! address=0x42f700270 additional_latency=2459910500 cycles
Simulation CPU 0 panic: IPC 0 < 0.01
Simulation CPU 0 panic: IPC 0.0003705 < 0.01
Simulation CPU 0 panic: IPC 0.0023678 < 0.01
Simulation CPU 0 critical: IPC 0.011232 < 0.02
Simulation CPU 0 warning: IPC 0.041437 < 0.05
[ERROR_CYCLE] Error added at CPU cycle 6972624151, interval 150, pending count: 1
[DRAM_CYCLE_ERROR] Cycle-based error applied! address=0xd63900228 additional_latency=2459910500 cycles
Simulation CPU 0 panic: IPC 0 < 0.01
Simulation CPU 0 panic: IPC 0.0008707 < 0.01
Simulation CPU 0 panic: IPC 0.004998 < 0.01
Simulation CPU 0 panic: IPC 0.0011193 < 0.01
[ERROR_CYCLE] Error added at CPU cycle 7019108312, interval 151, pending count: 1
Simulation CPU 0 panic: IPC 0.0021182 < 0.01
[DRAM_CYCLE_ERROR] Cycle-based error applied! address=0x14e500740 additional_latency=2459910500 cycles
Simulation CPU 0 panic: IPC 0 < 0.01
Simulation CPU 0 critical: IPC 0.010858 < 0.02
Simulation CPU 0 warning: IPC 0.041571 < 0.05
Simulation CPU 0 panic: IPC 0.0009955 < 0.01
[ERROR_CYCLE] Error added at CPU cycle 7065592473, interval 152, pending count: 1
[DRAM_CYCLE_ERROR] Cycle-based error applied! address=0x90c800400 additional_latency=2459910500 cycles
Simulation CPU 0 panic: IPC 0.0044988 < 0.01
Simulation CPU 0 panic: IPC 0.0017433 < 0.01
Simulation CPU 0 panic: IPC 0.0019934 < 0.01
Simulation CPU 0 critical: IPC 0.010608 < 0.02
Heartbeat CPU 0 instructions: 60000010 cycles: 7107039809 heartbeat IPC: 0.008606 cumulative IPC: 0.008442 (Simulation time: 12 hr 30 min 58 sec)
Simulation CPU 0 warning: IPC 0.038834 < 0.05
[ERROR_CYCLE] Error added at CPU cycle 7112076634, interval 153, pending count: 1
[DRAM_CYCLE_ERROR] Cycle-based error applied! address=0x56e900000 additional_latency=2459910500 cycles
Simulation CPU 0 panic: IPC 0 < 0.01
Simulation CPU 0 panic: IPC 0.0028527 < 0.01
Simulation CPU 0 panic: IPC 0.0011203 < 0.01
Simulation CPU 0 panic: IPC 0.0041244 < 0.01
[ERROR_CYCLE] Error added at CPU cycle 7158560794, interval 154, pending count: 1
[DRAM_CYCLE_ERROR] Cycle-based error applied! address=0x331579698 additional_latency=2459910500 cycles
Simulation CPU 0 panic: IPC 0.0024921 < 0.01
Simulation CPU 0 panic: IPC 0 < 0.01
Simulation CPU 0 panic: IPC 0.0017438 < 0.01
Simulation CPU 0 critical: IPC 0.010359 < 0.02
Simulation CPU 0 warning: IPC 0.041571 < 0.05
[ERROR_CYCLE] Error added at CPU cycle 7205044955, interval 155, pending count: 1
[DRAM_CYCLE_ERROR] Cycle-based error applied! address=0x33157d630 additional_latency=2459910500 cycles
Simulation CPU 0 panic: IPC 0.0013699 < 0.01
Simulation CPU 0 panic: IPC 0 < 0.01
Simulation CPU 0 panic: IPC 0.0036252 < 0.01
Simulation CPU 0 panic: IPC 0.0047351 < 0.01
Simulation CPU 0 critical: IPC 0.010109 < 0.02
[ERROR_CYCLE] Error added at CPU cycle 7251529116, interval 156, pending count: 1
[DRAM_CYCLE_ERROR] Cycle-based error applied! address=0x331581650 additional_latency=2459910500 cycles
Simulation CPU 0 panic: IPC 0 < 0.01
Simulation CPU 0 warning: IPC 0.041687 < 0.05
Simulation CPU 0 panic: IPC 0.0014947 < 0.01
Simulation CPU 0 panic: IPC 0.0032508 < 0.01
[ERROR_CYCLE] Error added at CPU cycle 7298013277, interval 157, pending count: 1
Simulation CPU 0 panic: IPC 0.0038649 < 0.01
[DRAM_CYCLE_ERROR] Cycle-based error applied! address=0x3315856a8 additional_latency=2459910500 cycles
Simulation CPU 0 panic: IPC 0 < 0.01
Simulation CPU 0 panic: IPC 0.0013694 < 0.01
Simulation CPU 0 panic: IPC 0.0097348 < 0.01
Simulation CPU 0 warning: IPC 0.04182 < 0.05
[ERROR_CYCLE] Error added at CPU cycle 7344497438, interval 158, pending count: 1
[DRAM_CYCLE_ERROR] Cycle-based error applied! address=0x331589640 additional_latency=2459910500 cycles
Simulation CPU 0 panic: IPC 0.0016195 < 0.01
Simulation CPU 0 panic: IPC 0 < 0.01
Simulation CPU 0 panic: IPC 0.0027516 < 0.01
Simulation CPU 0 panic: IPC 0.0044889 < 0.01
Simulation CPU 0 panic: IPC 0.0013694 < 0.01
[ERROR_CYCLE] Error added at CPU cycle 7390981599, interval 159, pending count: 1
[DRAM_CYCLE_ERROR] Cycle-based error applied! address=0x33158d660 additional_latency=2459910500 cycles
Simulation CPU 0 panic: IPC 0.0093604 < 0.01
Simulation CPU 0 warning: IPC 0.041937 < 0.05
Simulation CPU 0 panic: IPC 0.0018691 < 0.01
Simulation CPU 0 panic: IPC 0.0022524 < 0.01
[ERROR_CYCLE] Error added at CPU cycle 7437465761, interval 160, pending count: 1
[DRAM_CYCLE_ERROR] Cycle-based error applied! address=0xe472007e8 additional_latency=2459910500 cycles
Simulation CPU 0 panic: IPC 0 < 0.01
Simulation CPU 0 panic: IPC 0.0052377 < 0.01
Simulation CPU 0 panic: IPC 0.000995 < 0.01
Simulation CPU 0 panic: IPC 0.0092356 < 0.01
Simulation CPU 0 warning: IPC 0.03633 < 0.05
[ERROR_CYCLE] Error added at CPU cycle 7483949922, interval 161, pending count: 1
[DRAM_CYCLE_ERROR] Cycle-based error applied! address=0x3ae000000 additional_latency=2459910500 cycles
Simulation CPU 0 panic: IPC 0 < 0.01
Simulation CPU 0 panic: IPC 0.0054993 < 0.01
Simulation CPU 0 panic: IPC 0.0019843 < 0.01
Simulation CPU 0 panic: IPC 0.0017532 < 0.01
Simulation CPU 0 panic: IPC 0.0059865 < 0.01
[ERROR_CYCLE] Error added at CPU cycle 7530434083, interval 162, pending count: 1
[DRAM_CYCLE_ERROR] Cycle-based error applied! address=0xf9d900310 additional_latency=2459910500 cycles
Simulation CPU 0 panic: IPC 0 < 0.01
Simulation CPU 0 panic: IPC 0.000995 < 0.01
Simulation CPU 0 panic: IPC 0.0088612 < 0.01
Simulation CPU 0 warning: IPC 0.041937 < 0.05
[ERROR_CYCLE] Error added at CPU cycle 7576918244, interval 163, pending count: 1
[DRAM_CYCLE_ERROR] Cycle-based error applied! address=0xe39200580 additional_latency=2459910500 cycles
Simulation CPU 0 panic: IPC 0.0022435 < 0.01
Simulation CPU 0 panic: IPC 0.001254 < 0.01
Simulation CPU 0 panic: IPC 0.0067353 < 0.01
Simulation CPU 0 panic: IPC 0.000659 < 0.01
Simulation CPU 0 panic: IPC 0.0085732 < 0.01
[ERROR_CYCLE] Error added at CPU cycle 7623402405, interval 164, pending count: 1
[DRAM_CYCLE_ERROR] Cycle-based error applied! address=0xfb4900108 additional_latency=2459910500 cycles
Simulation CPU 0 panic: IPC 0 < 0.01
Simulation CPU 0 warning: IPC 0.04207 < 0.05
Simulation CPU 0 panic: IPC 0.0022435 < 0.01
Simulation CPU 0 panic: IPC 0.0008796 < 0.01
[ERROR_CYCLE] Error added at CPU cycle 7669886565, interval 165, pending count: 1
Simulation CPU 0 panic: IPC 0.0073593 < 0.01
[DRAM_CYCLE_ERROR] Cycle-based error applied! address=0x1fc600350 additional_latency=2459910500 cycles
Simulation CPU 0 panic: IPC 0 < 0.01
Simulation CPU 0 panic: IPC 0.0006206 < 0.01
Simulation CPU 0 panic: IPC 0.0082372 < 0.01
Simulation CPU 0 warning: IPC 0.042186 < 0.05
[ERROR_CYCLE] Error added at CPU cycle 7716370726, interval 166, pending count: 1
[DRAM_CYCLE_ERROR] Cycle-based error applied! address=0x3315a8668 additional_latency=2459910500 cycles
Simulation CPU 0 panic: IPC 0.0024931 < 0.01
Simulation CPU 0 panic: IPC 0 < 0.01
Simulation CPU 0 panic: IPC 0.0003804 < 0.01
Simulation CPU 0 panic: IPC 0.0084791 < 0.01
Simulation CPU 0 panic: IPC 0.0079876 < 0.01
[ERROR_CYCLE] Error added at CPU cycle 7762854887, interval 167, pending count: 1
[DRAM_CYCLE_ERROR] Cycle-based error applied! address=0x3315ac688 additional_latency=2459910500 cycles
Simulation CPU 0 panic: IPC 0 < 0.01
Simulation CPU 0 warning: IPC 0.042098 < 0.05
Simulation CPU 0 panic: IPC 0.0025951 < 0.01
Simulation CPU 0 panic: IPC 0.0001188 < 0.01
[ERROR_CYCLE] Error added at CPU cycle 7809339048, interval 168, pending count: 1
Simulation CPU 0 panic: IPC 0.0086133 < 0.01
[DRAM_CYCLE_ERROR] Cycle-based error applied! address=0x3315b06e0 additional_latency=2459910500 cycles
Simulation CPU 0 panic: IPC 0 < 0.01
Simulation CPU 0 panic: IPC 0.0002462 < 0.01
Simulation CPU 0 panic: IPC 0.007738 < 0.01
Simulation CPU 0 warning: IPC 0.042186 < 0.05
[ERROR_CYCLE] Error added at CPU cycle 7855823209, interval 169, pending count: 1
[DRAM_CYCLE_ERROR] Cycle-based error applied! address=0x3315b45f8 additional_latency=2459910500 cycles
Simulation CPU 0 panic: IPC 0.0023743 < 0.01
Simulation CPU 0 panic: IPC 0 < 0.01
Simulation CPU 0 panic: IPC 0.0004932 < 0.01
Simulation CPU 0 panic: IPC 0.0089843 < 0.01
Simulation CPU 0 panic: IPC 0.0073636 < 0.01
[ERROR_CYCLE] Error added at CPU cycle 7902307370, interval 170, pending count: 1
[DRAM_CYCLE_ERROR] Cycle-based error applied! address=0x3315b9650 additional_latency=2459910500 cycles
Simulation CPU 0 warning: IPC 0.042319 < 0.05
Simulation CPU 0 panic: IPC 0.0019436 < 0.01
Simulation CPU 0 panic: IPC 0.0010487 < 0.01
Simulation CPU 0 panic: IPC 0.0091091 < 0.01
[ERROR_CYCLE] Error added at CPU cycle 7948791532, interval 171, pending count: 1
Simulation CPU 0 panic: IPC 0.0069892 < 0.01
[DRAM_CYCLE_ERROR] Cycle-based error applied! address=0x3315be6a0 additional_latency=2459910500 cycles
Simulation CPU 0 panic: IPC 0 < 0.01
Simulation CPU 0 warning: IPC 0.042436 < 0.05
Simulation CPU 0 panic: IPC 0.0017503 < 0.01
Simulation CPU 0 panic: IPC 0.0013764 < 0.01
[ERROR_CYCLE] Error added at CPU cycle 7995275693, interval 172, pending count: 1
[DRAM_CYCLE_ERROR] Cycle-based error applied! address=0xd184e1b00 additional_latency=2459910500 cycles
Simulation CPU 0 panic: IPC 0.0087063 < 0.01
Simulation CPU 0 panic: IPC 0.0003932 < 0.01
Simulation CPU 0 panic: IPC 0.0003106 < 0.01
Simulation CPU 0 panic: IPC 0.0064373 < 0.01
Simulation CPU 0 warning: IPC 0.042484 < 0.05
[ERROR_CYCLE] Error added at CPU cycle 8041759854, interval 173, pending count: 1
[DRAM_CYCLE_ERROR] Cycle-based error applied! address=0x8ef900000 additional_latency=2459910500 cycles
Simulation CPU 0 panic: IPC 0 < 0.01
Simulation CPU 0 panic: IPC 0.0014527 < 0.01
Simulation CPU 0 panic: IPC 0.001866 < 0.01
Simulation CPU 0 panic: IPC 0.0092339 < 0.01
[ERROR_CYCLE] Error added at CPU cycle 8088244015, interval 174, pending count: 1
[DRAM_CYCLE_ERROR] Cycle-based error applied! address=0xf6fb00410 additional_latency=2459910500 cycles
Simulation CPU 0 panic: IPC 0.0003778 < 0.01
Simulation CPU 0 panic: IPC 0.0061122 < 0.01
Simulation CPU 0 warning: IPC 0.042436 < 0.05
Simulation CPU 0 panic: IPC 0.0012511 < 0.01
Simulation CPU 0 panic: IPC 0.0023652 < 0.01
[ERROR_CYCLE] Error added at CPU cycle 8134728176, interval 175, pending count: 1
[DRAM_CYCLE_ERROR] Cycle-based error applied! address=0xc76e00668 additional_latency=2459910500 cycles
Simulation CPU 0 panic: IPC 0 < 0.01
Simulation CPU 0 panic: IPC 0.0091091 < 0.01
Simulation CPU 0 panic: IPC 0.0006274 < 0.01
Simulation CPU 0 panic: IPC 0.0054965 < 0.01
Simulation CPU 0 warning: IPC 0.042685 < 0.05
[ERROR_CYCLE] Error added at CPU cycle 8181212336, interval 176, pending count: 1
[DRAM_CYCLE_ERROR] Cycle-based error applied! address=0x9af1003f8 additional_latency=2459910500 cycles
Simulation CPU 0 panic: IPC 0 < 0.01
Simulation CPU 0 panic: IPC 0.0008095 < 0.01
Simulation CPU 0 panic: IPC 0.0028068 < 0.01
Simulation CPU 0 panic: IPC 0.0093587 < 0.01
[ERROR_CYCLE] Error added at CPU cycle 8227696497, interval 177, pending count: 1
Simulation CPU 0 panic: IPC 0.0007522 < 0.01
[DRAM_CYCLE_ERROR] Cycle-based error applied! address=0xa84f00450 additional_latency=2459910500 cycles
Simulation CPU 0 panic: IPC 0 < 0.01
Simulation CPU 0 panic: IPC 0.0051138 < 0.01
Heartbeat CPU 0 instructions: 70000010 cycles: 8259787770 heartbeat IPC: 0.008675 cumulative IPC: 0.008475 (Simulation time: 14 hr 34 min 45 sec)
Simulation CPU 0 warning: IPC 0.040559 < 0.05
Simulation CPU 0 panic: IPC 0.0026284 < 0.01
[ERROR_CYCLE] Error added at CPU cycle 8274180658, interval 178, pending count: 1
[DRAM_CYCLE_ERROR] Cycle-based error applied! address=0x8f9a00098 additional_latency=2459910500 cycles
Simulation CPU 0 panic: IPC 0 < 0.01
Simulation CPU 0 panic: IPC 0.0033636 < 0.01
Simulation CPU 0 panic: IPC 0.009367 < 0.01
Simulation CPU 0 panic: IPC 0.0007522 < 0.01
Simulation CPU 0 panic: IPC 0.0047394 < 0.01
[ERROR_CYCLE] Error added at CPU cycle 8320664819, interval 179, pending count: 1
[DRAM_CYCLE_ERROR] Cycle-based error applied! address=0x3315dd6c8 additional_latency=2459910500 cycles
Simulation CPU 0 panic: IPC 0 < 0.01
Simulation CPU 0 warning: IPC 0.042753 < 0.05
Simulation CPU 0 panic: IPC 0.0001855 < 0.01
Simulation CPU 0 panic: IPC 0.0038628 < 0.01
[ERROR_CYCLE] Error added at CPU cycle 8367148980, interval 180, pending count: 1
[DRAM_CYCLE_ERROR] Cycle-based error applied! address=0x3315e1700 additional_latency=2459910500 cycles
Simulation CPU 0 panic: IPC 0.0093587 < 0.01
Simulation CPU 0 panic: IPC 0 < 0.01
Simulation CPU 0 panic: IPC 0.0011266 < 0.01
Simulation CPU 0 panic: IPC 0.0042402 < 0.01
Simulation CPU 0 warning: IPC 0.042685 < 0.05
[ERROR_CYCLE] Error added at CPU cycle 8413633141, interval 181, pending count: 1
[DRAM_CYCLE_ERROR] Cycle-based error applied! address=0x3315e66b8 additional_latency=2459910500 cycles
Simulation CPU 0 panic: IPC 0.0042403 < 0.01
Simulation CPU 0 panic: IPC 0 < 0.01
Simulation CPU 0 critical: IPC 0.010618 < 0.02
Simulation CPU 0 panic: IPC 0.003741 < 0.01
Simulation CPU 0 warning: IPC 0.042564 < 0.05
[ERROR_CYCLE] Error added at CPU cycle 8460117303, interval 182, pending count: 1
[DRAM_CYCLE_ERROR] Cycle-based error applied! address=0x3315ea640 additional_latency=2459910500 cycles
Simulation CPU 0 panic: IPC 0 < 0.01
Simulation CPU 0 panic: IPC 0.0003713 < 0.01
Simulation CPU 0 panic: IPC 0.0043651 < 0.01
Simulation CPU 0 panic: IPC 0.0094835 < 0.01
[ERROR_CYCLE] Error added at CPU cycle 8506601464, interval 183, pending count: 1
[DRAM_CYCLE_ERROR] Cycle-based error applied! address=0x3315ee730 additional_latency=2459910500 cycles
Simulation CPU 0 panic: IPC 0.001501 < 0.01
Simulation CPU 0 panic: IPC 0 < 0.01
Simulation CPU 0 panic: IPC 0.0032418 < 0.01
Simulation CPU 0 warning: IPC 0.042314 < 0.05
Simulation CPU 0 panic: IPC 0.0006209 < 0.01
[ERROR_CYCLE] Error added at CPU cycle 8553085625, interval 184, pending count: 1
[DRAM_CYCLE_ERROR] Cycle-based error applied! address=0x3315f26c8 additional_latency=2459910500 cycles
Simulation CPU 0 panic: IPC 0.0044899 < 0.01
Simulation CPU 0 panic: IPC 0 < 0.01
Simulation CPU 0 panic: IPC 0.0096166 < 0.01
Simulation CPU 0 panic: IPC 0.001501 < 0.01
[ERROR_CYCLE] Error added at CPU cycle 8599569786, interval 185, pending count: 1
[DRAM_CYCLE_ERROR] Cycle-based error applied! address=0x42e400500 additional_latency=2459910500 cycles
Simulation CPU 0 panic: IPC 0.002877 < 0.01
Simulation CPU 0 panic: IPC 0.0070583 < 0.01
Simulation CPU 0 warning: IPC 0.034997 < 0.05
Simulation CPU 0 panic: IPC 0.0009569 < 0.01
Simulation CPU 0 panic: IPC 0.0046531 < 0.01
[ERROR_CYCLE] Error added at CPU cycle 8646053947, interval 186, pending count: 1
[DRAM_CYCLE_ERROR] Cycle-based error applied! address=0x9e7600418 additional_latency=2459910500 cycles
Simulation CPU 0 panic: IPC 0 < 0.01
Simulation CPU 0 panic: IPC 0.0097331 < 0.01
Simulation CPU 0 panic: IPC 0.0017506 < 0.01
Simulation CPU 0 panic: IPC 0.0023682 < 0.01
Simulation CPU 0 warning: IPC 0.041815 < 0.05
[ERROR_CYCLE] Error added at CPU cycle 8692538107, interval 187, pending count: 1
[DRAM_CYCLE_ERROR] Cycle-based error applied! address=0xf03200548 additional_latency=2459910500 cycles
Simulation CPU 0 panic: IPC 0 < 0.01
Simulation CPU 0 panic: IPC 0.0011201 < 0.01
Simulation CPU 0 panic: IPC 0.0048726 < 0.01
Simulation CPU 0 panic: IPC 0.0097331 < 0.01
[ERROR_CYCLE] Error added at CPU cycle 8739022268, interval 188, pending count: 1
Simulation CPU 0 panic: IPC 0.0018754 < 0.01
[DRAM_CYCLE_ERROR] Cycle-based error applied! address=0x83b000110 additional_latency=2459910500 cycles
Simulation CPU 0 panic: IPC 0 < 0.01
Simulation CPU 0 panic: IPC 0.001869 < 0.01
Simulation CPU 0 warning: IPC 0.04169 < 0.05
Simulation CPU 0 panic: IPC 0.0064836 < 0.01
[ERROR_CYCLE] Error added at CPU cycle 8785506429, interval 189, pending count: 1
[DRAM_CYCLE_ERROR] Cycle-based error applied! address=0xdf5800240 additional_latency=2459910500 cycles
Simulation CPU 0 panic: IPC 0 < 0.01
Simulation CPU 0 panic: IPC 0.0098579 < 0.01
Simulation CPU 0 panic: IPC 0.002125 < 0.01
Simulation CPU 0 panic: IPC 0.0013698 < 0.01
Simulation CPU 0 warning: IPC 0.04144 < 0.05
[ERROR_CYCLE] Error added at CPU cycle 8831990590, interval 190, pending count: 1
[DRAM_CYCLE_ERROR] Cycle-based error applied! address=0x7459006d8 additional_latency=2459910500 cycles
Simulation CPU 0 panic: IPC 0 < 0.01
Simulation CPU 0 panic: IPC 0.0017441 < 0.01
Simulation CPU 0 panic: IPC 0.0051222 < 0.01
Simulation CPU 0 panic: IPC 0.0099059 < 0.01
[ERROR_CYCLE] Error added at CPU cycle 8878474751, interval 191, pending count: 1
Simulation CPU 0 panic: IPC 0.0022018 < 0.01
[DRAM_CYCLE_ERROR] Cycle-based error applied! address=0x897b00150 additional_latency=2459910500 cycles
Simulation CPU 0 panic: IPC 0 < 0.01
Simulation CPU 0 panic: IPC 0.0009954 < 0.01
Simulation CPU 0 warning: IPC 0.041191 < 0.05
Simulation CPU 0 panic: IPC 0.0020993 < 0.01
[ERROR_CYCLE] Error added at CPU cycle 8924958912, interval 192, pending count: 1
[DRAM_CYCLE_ERROR] Cycle-based error applied! address=0x2546116f0 additional_latency=2459910500 cycles
Simulation CPU 0 panic: IPC 0.0052579 < 0.01
Simulation CPU 0 panic: IPC 0 < 0.01
Simulation CPU 0 critical: IPC 0.012482 < 0.02
Simulation CPU 0 panic: IPC 0.0004962 < 0.01
Simulation CPU 0 panic: IPC 0.0045557 < 0.01
[ERROR_CYCLE] Error added at CPU cycle 8971443074, interval 193, pending count: 1
[DRAM_CYCLE_ERROR] Cycle-based error applied! address=0x254615848 additional_latency=2459910500 cycles
Simulation CPU 0 panic: IPC 0 < 0.01
Simulation CPU 0 warning: IPC 0.036261 < 0.05
Simulation CPU 0 panic: IPC 0.0023764 < 0.01
Simulation CPU 0 panic: IPC 0.0054883 < 0.01
[ERROR_CYCLE] Error added at CPU cycle 9017927235, interval 194, pending count: 1
Simulation CPU 0 critical: IPC 0.010108 < 0.02
[DRAM_CYCLE_ERROR] Cycle-based error applied! address=0x254619748 additional_latency=2459910500 cycles
Simulation CPU 0 panic: IPC 0 < 0.01
Simulation CPU 0 panic: IPC 0.0024964 < 0.01
Simulation CPU 0 warning: IPC 0.040692 < 0.05
Simulation CPU 0 panic: IPC 0.0027425 < 0.01
[ERROR_CYCLE] Error added at CPU cycle 9064411396, interval 195, pending count: 1
[DRAM_CYCLE_ERROR] Cycle-based error applied! address=0x25461e700 additional_latency=2459910500 cycles
Simulation CPU 0 panic: IPC 0.0057379 < 0.01
Simulation CPU 0 panic: IPC 0 < 0.01
Simulation CPU 0 panic: IPC 0.0099827 < 0.01
Simulation CPU 0 panic: IPC 0.0023716 < 0.01
Simulation CPU 0 critical: IPC 0.019593 < 0.02
[ERROR_CYCLE] Error added at CPU cycle 9110895557, interval 196, pending count: 1
[DRAM_CYCLE_ERROR] Cycle-based error applied! address=0x254622688 additional_latency=2459910500 cycles
Simulation CPU 0 warning: IPC 0.020732 < 0.05
Simulation CPU 0 panic: IPC 0.0031169 < 0.01
Simulation CPU 0 panic: IPC 0.0057379 < 0.01
Simulation CPU 0 critical: IPC 0.010232 < 0.02
[ERROR_CYCLE] Error added at CPU cycle 9157379718, interval 197, pending count: 1
Simulation CPU 0 panic: IPC 0.0019972 < 0.01
[DRAM_CYCLE_ERROR] Cycle-based error applied! address=0x254626728 additional_latency=2459910500 cycles
Simulation CPU 0 panic: IPC 0 < 0.01
Simulation CPU 0 panic: IPC 0.0008766 < 0.01
Simulation CPU 0 warning: IPC 0.039316 < 0.05
Simulation CPU 0 panic: IPC 0.0033665 < 0.01
[ERROR_CYCLE] Error added at CPU cycle 9203863878, interval 198, pending count: 1
[DRAM_CYCLE_ERROR] Cycle-based error applied! address=0x1bd1007e8 additional_latency=2459910500 cycles
Simulation CPU 0 panic: IPC 0 < 0.01
Simulation CPU 0 panic: IPC 0.0059875 < 0.01
Simulation CPU 0 critical: IPC 0.010232 < 0.02
Simulation CPU 0 panic: IPC 0.0017476 < 0.01
Simulation CPU 0 panic: IPC 0.0013758 < 0.01
[ERROR_CYCLE] Error added at CPU cycle 9250348039, interval 199, pending count: 1
[DRAM_CYCLE_ERROR] Cycle-based error applied! address=0x5a1e00610 additional_latency=2459910500 cycles
Simulation CPU 0 panic: IPC 0 < 0.01
Simulation CPU 0 warning: IPC 0.038451 < 0.05
Simulation CPU 0 panic: IPC 0.0036161 < 0.01
Simulation CPU 0 critical: IPC 0.016469 < 0.02
[ERROR_CYCLE] Error added at CPU cycle 9296832200, interval 200, pending count: 1
[DRAM_CYCLE_ERROR] Cycle-based error applied! address=0xf02200298 additional_latency=2459910500 cycles
Simulation CPU 0 panic: IPC 0 < 0.01
Simulation CPU 0 panic: IPC 0.0013732 < 0.01
Simulation CPU 0 panic: IPC 0.001875 < 0.01
Simulation CPU 0 warning: IPC 0.037943 < 0.05
Simulation CPU 0 panic: IPC 0.0038657 < 0.01
[ERROR_CYCLE] Error added at CPU cycle 9343316361, interval 201, pending count: 1
[DRAM_CYCLE_ERROR] Cycle-based error applied! address=0x8438003b8 additional_latency=2459910500 cycles
Simulation CPU 0 panic: IPC 0 < 0.01
Simulation CPU 0 panic: IPC 0.0063619 < 0.01
Simulation CPU 0 critical: IPC 0.010357 < 0.02
Simulation CPU 0 panic: IPC 0.0011236 < 0.01
[ERROR_CYCLE] Error added at CPU cycle 9389800522, interval 202, pending count: 1
[...]
Simulation CPU 0 critical: IPC 0.011603 < 0.02
Simulation CPU 0 panic: IPC 0.0042423 < 0.01
[ERROR_CYCLE] Error added at CPU cycle 11621040251, interval 250, pending count: 1
[DRAM_CYCLE_ERROR] Cycle-based error applied! address=0x23d700028 additional_latency=2459910500 cycles
Simulation CPU 0 panic: IPC 0 < 0.01
Simulation CPU 0 panic: IPC 0.0081116 < 0.01
Simulation CPU 0 panic: IPC 0.0087394 < 0.01
Simulation CPU 0 critical: IPC 0.015604 < 0.02
[ERROR_CYCLE] Error added at CPU cycle 11667524412, interval 251, pending count: 1
Simulation CPU 0 critical: IPC 0.013226 < 0.02
[DRAM_CYCLE_ERROR] Cycle-based error applied! address=0xb67500338 additional_latency=2459910500 cycles
Simulation CPU 0 panic: IPC 0.0063973 < 0.01
Simulation CPU 0 panic: IPC 0.009332 < 0.01
Simulation CPU 0 panic: IPC 0.0083612 < 0.01
Simulation CPU 0 panic: IPC 0.0088642 < 0.01
[ERROR_CYCLE] Error added at CPU cycle 11714008572, interval 252, pending count: 1
[DRAM_CYCLE_ERROR] Cycle-based error applied! address=0xa99100210 additional_latency=2459910500 cycles
Simulation CPU 0 panic: IPC 0 < 0.01
Simulation CPU 0 critical: IPC 0.01498 < 0.02
Simulation CPU 0 critical: IPC 0.0136 < 0.02
Simulation CPU 0 critical: IPC 0.011853 < 0.02
Simulation CPU 0 panic: IPC 0.0038679 < 0.01
[ERROR_CYCLE] Error added at CPU cycle 11760492733, interval 253, pending count: 1
[DRAM_CYCLE_ERROR] Cycle-based error applied! address=0x53df00450 additional_latency=2459910500 cycles
Simulation CPU 0 panic: IPC 0 < 0.01
Simulation CPU 0 panic: IPC 0.0086108 < 0.01
Heartbeat CPU 0 instructions: 100000012 cycles: 11783672447 heartbeat IPC: 0.008401 cumulative IPC: 0.008486 (Simulation time: 20 hr 56 min 23 sec)
Simulation CPU 0 panic: IPC 0.0091138 < 0.01
Simulation CPU 0 critical: IPC 0.014231 < 0.02
[ERROR_CYCLE] Error added at CPU cycle 11806976894, interval 254, pending count: 1
[DRAM_CYCLE_ERROR] Cycle-based error applied! address=0xc79106800 additional_latency=2459910500 cycles
Simulation CPU 0 critical: IPC 0.01385 < 0.02
Simulation CPU 0 panic: IPC 0 < 0.01
Simulation CPU 0 critical: IPC 0.011986 < 0.02
Simulation CPU 0 panic: IPC 0.0036183 < 0.01
Simulation CPU 0 critical: IPC 0.018099 < 0.02
[ERROR_CYCLE] Error added at CPU cycle 11853461055, interval 255, pending count: 1
[DRAM_CYCLE_ERROR] Cycle-based error applied! address=0xc7910a8a0 additional_latency=2459910500 cycles
Simulation CPU 0 panic: IPC 0 < 0.01
Simulation CPU 0 critical: IPC 0.013607 < 0.02
Simulation CPU 0 critical: IPC 0.014099 < 0.02
Simulation CPU 0 critical: IPC 0.012266 < 0.02
[ERROR_CYCLE] Error added at CPU cycle 11899945216, interval 256, pending count: 1
Simulation CPU 0 panic: IPC 0.0033303 < 0.01
[DRAM_CYCLE_ERROR] Cycle-based error applied! address=0xc7910e858 additional_latency=2459910500 cycles
Simulation CPU 0 panic: IPC 0 < 0.01
Simulation CPU 0 panic: IPC 0.0025493 < 0.01
Simulation CPU 0 panic: IPC 0.0066855 < 0.01
Simulation CPU 0 panic: IPC 0.0094882 < 0.01
[ERROR_CYCLE] Error added at CPU cycle 11946429377, interval 257, pending count: 1
[DRAM_CYCLE_ERROR] Cycle-based error applied! address=0xc791127c0 additional_latency=2459910500 cycles
Simulation CPU 0 critical: IPC 0.012858 < 0.02
Simulation CPU 0 panic: IPC 0 < 0.01
Simulation CPU 0 critical: IPC 0.014349 < 0.02
Simulation CPU 0 critical: IPC 0.012361 < 0.02
Simulation CPU 0 panic: IPC 0.0031191 < 0.01
[ERROR_CYCLE] Error added at CPU cycle 11992913538, interval 258, pending count: 1
[DRAM_CYCLE_ERROR] Cycle-based error applied! address=0xc79116890 additional_latency=2459910500 cycles
Simulation CPU 0 panic: IPC 0.0096092 < 0.01
Simulation CPU 0 panic: IPC 0 < 0.01
Simulation CPU 0 warning: IPC 0.021722 < 0.05
Simulation CPU 0 critical: IPC 0.014723 < 0.02
[ERROR_CYCLE] Error added at CPU cycle 12039397700, interval 259, pending count: 1
Simulation CPU 0 critical: IPC 0.012602 < 0.02
[DRAM_CYCLE_ERROR] Cycle-based error applied! address=0xc7911a848 additional_latency=2459910500 cycles
Simulation CPU 0 panic: IPC 0 < 0.01
Simulation CPU 0 panic: IPC 0.0028695 < 0.01
Simulation CPU 0 panic: IPC 0.009734 < 0.01
Simulation CPU 0 panic: IPC 0.0098626 < 0.01
[ERROR_CYCLE] Error added at CPU cycle 12085881861, interval 260, pending count: 1
Simulation CPU 0 critical: IPC 0.011361 < 0.02
[DRAM_CYCLE_ERROR] Cycle-based error applied! address=0xc7911e7d0 additional_latency=2459910500 cycles
Simulation CPU 0 panic: IPC 0 < 0.01
Simulation CPU 0 critical: IPC 0.015098 < 0.02
Simulation CPU 0 critical: IPC 0.01261 < 0.02
Simulation CPU 0 panic: IPC 0.0027447 < 0.01
[ERROR_CYCLE] Error added at CPU cycle 12132366022, interval 261, pending count: 1
[DRAM_CYCLE_ERROR] Cycle-based error applied! address=0x7c1600648 additional_latency=2459910500 cycles
Simulation CPU 0 panic: IPC 0 < 0.01
Simulation CPU 0 critical: IPC 0.010108 < 0.02
Simulation CPU 0 panic: IPC 0.0098626 < 0.01
Simulation CPU 0 critical: IPC 0.010737 < 0.02
[ERROR_CYCLE] Error added at CPU cycle 12178850183, interval 262, pending count: 1
Simulation CPU 0 critical: IPC 0.015347 < 0.02
[DRAM_CYCLE_ERROR] Cycle-based error applied! address=0xf42d00108 additional_latency=2459910500 cycles
Simulation CPU 0 panic: IPC 0.0058435 < 0.01
Simulation CPU 0 panic: IPC 0.0095031 < 0.01
Simulation CPU 0 critical: IPC 0.010483 < 0.02
Simulation CPU 0 critical: IPC 0.010112 < 0.02
[ERROR_CYCLE] Error added at CPU cycle 12225334343, interval 263, pending count: 1
[DRAM_CYCLE_ERROR] Cycle-based error applied! address=0x464100710 additional_latency=2459910500 cycles
Simulation CPU 0 panic: IPC 0 < 0.01
Simulation CPU 0 panic: IPC 0.0099879 < 0.01
Simulation CPU 0 critical: IPC 0.015605 < 0.02
Simulation CPU 0 critical: IPC 0.013101 < 0.02
Simulation CPU 0 panic: IPC 0.0021207 < 0.01
[ERROR_CYCLE] Error added at CPU cycle 12271818504, interval 264, pending count: 1
[DRAM_CYCLE_ERROR] Cycle-based error applied! address=0x8fc500218 additional_latency=2459910500 cycles
Simulation CPU 0 panic: IPC 0 < 0.01
Simulation CPU 0 critical: IPC 0.010732 < 0.02
Simulation CPU 0 critical: IPC 0.010237 < 0.02
Simulation CPU 0 panic: IPC 0.0093639 < 0.01
[ERROR_CYCLE] Error added at CPU cycle 12318302665, interval 265, pending count: 1
Simulation CPU 0 critical: IPC 0.015971 < 0.02
[DRAM_CYCLE_ERROR] Cycle-based error applied! address=0x2f100528 additional_latency=2459910500 cycles
Simulation CPU 0 panic: IPC 0 < 0.01
Simulation CPU 0 critical: IPC 0.013226 < 0.02
Simulation CPU 0 panic: IPC 0.0019959 < 0.01
Simulation CPU 0 warning: IPC 0.021469 < 0.05
[ERROR_CYCLE] Error added at CPU cycle 12364786826, interval 266, pending count: 1
[DRAM_CYCLE_ERROR] Cycle-based error applied! address=0xddc200750 additional_latency=2459910500 cycles
Simulation CPU 0 panic: IPC 0 < 0.01
Simulation CPU 0 panic: IPC 0.0086151 < 0.01
Simulation CPU 0 critical: IPC 0.016229 < 0.02
Simulation CPU 0 critical: IPC 0.013351 < 0.02
Simulation CPU 0 panic: IPC 0.0017463 < 0.01
[ERROR_CYCLE] Error added at CPU cycle 12411270987, interval 267, pending count: 1
[DRAM_CYCLE_ERROR] Cycle-based error applied! address=0xc79139890 additional_latency=2459910500 cycles
Simulation CPU 0 panic: IPC 0 < 0.01
Simulation CPU 0 critical: IPC 0.011232 < 0.02
Simulation CPU 0 critical: IPC 0.010611 < 0.02
Simulation CPU 0 panic: IPC 0.0079911 < 0.01
[ERROR_CYCLE] Error added at CPU cycle 12457755148, interval 268, pending count: 1
[DRAM_CYCLE_ERROR] Cycle-based error applied! address=0xc7913d848 additional_latency=2459910500 cycles
Simulation CPU 0 critical: IPC 0.01647 < 0.02
Simulation CPU 0 panic: IPC 0 < 0.01
Simulation CPU 0 critical: IPC 0.0136 < 0.02
Simulation CPU 0 panic: IPC 0.0015063 < 0.01
Simulation CPU 0 critical: IPC 0.011596 < 0.02
[ERROR_CYCLE] Error added at CPU cycle 12504239309, interval 269, pending count: 1
[DRAM_CYCLE_ERROR] Cycle-based error applied! address=0xc791418e8 additional_latency=2459910500 cycles
Simulation CPU 0 critical: IPC 0.010861 < 0.02
Simulation CPU 0 panic: IPC 0 < 0.01
Simulation CPU 0 warning: IPC 0.021823 < 0.05
Simulation CPU 0 critical: IPC 0.015872 < 0.02
Simulation CPU 0 panic: IPC 0.0012471 < 0.01
[ERROR_CYCLE] Error added at CPU cycle 12550723471, interval 270, pending count: 1
[DRAM_CYCLE_ERROR] Cycle-based error applied! address=0xc791458a0 additional_latency=2459910500 cycles
Simulation CPU 0 panic: IPC 0 < 0.01
Simulation CPU 0 critical: IPC 0.01198 < 0.02
Simulation CPU 0 critical: IPC 0.010861 < 0.02
Simulation CPU 0 panic: IPC 0.0066183 < 0.01
[ERROR_CYCLE] Error added at CPU cycle 12597207632, interval 271, pending count: 1
Simulation CPU 0 critical: IPC 0.017094 < 0.02
[DRAM_CYCLE_ERROR] Cycle-based error applied! address=0xc79149858 additional_latency=2459910500 cycles
Simulation CPU 0 panic: IPC 0 < 0.01
Simulation CPU 0 critical: IPC 0.013975 < 0.02
Simulation CPU 0 panic: IPC 0.0009975 < 0.01
Simulation CPU 0 critical: IPC 0.012105 < 0.02
[ERROR_CYCLE] Error added at CPU cycle 12643691793, interval 272, pending count: 1
[DRAM_CYCLE_ERROR] Cycle-based error applied! address=0xc7914d8f8 additional_latency=2459910500 cycles
Simulation CPU 0 critical: IPC 0.011235 < 0.02
Simulation CPU 0 panic: IPC 0 < 0.01
Simulation CPU 0 panic: IPC 0.0058695 < 0.01
Simulation CPU 0 panic: IPC 0.0077492 < 0.01
Simulation CPU 0 panic: IPC 0.0096032 < 0.01
[ERROR_CYCLE] Error added at CPU cycle 12690175954, interval 273, pending count: 1
[DRAM_CYCLE_ERROR] Cycle-based error applied! address=0x380b00728 additional_latency=2459910500 cycles
Simulation CPU 0 panic: IPC 0 < 0.01
Simulation CPU 0 critical: IPC 0.014847 < 0.02
Simulation CPU 0 critical: IPC 0.01248 < 0.02
Simulation CPU 0 critical: IPC 0.011235 < 0.02
[ERROR_CYCLE] Error added at CPU cycle 12736660114, interval 274, pending count: 1
[DRAM_CYCLE_ERROR] Cycle-based error applied! address=0x8dc6003d0 additional_latency=2459910500 cycles
Simulation CPU 0 panic: IPC 0 < 0.01
Simulation CPU 0 panic: IPC 0.0052455 < 0.01
Simulation CPU 0 critical: IPC 0.017594 < 0.02
Simulation CPU 0 critical: IPC 0.014349 < 0.02
Simulation CPU 0 panic: IPC 0.0005271 < 0.01
[ERROR_CYCLE] Error added at CPU cycle 12783144275, interval 275, pending count: 1
[DRAM_CYCLE_ERROR] Cycle-based error applied! address=0xb3dd00000 additional_latency=2459910500 cycles
Simulation CPU 0 panic: IPC 0 < 0.01
Simulation CPU 0 critical: IPC 0.012777 < 0.02
Simulation CPU 0 critical: IPC 0.011466 < 0.02
Simulation CPU 0 panic: IPC 0.0045159 < 0.01
[ERROR_CYCLE] Error added at CPU cycle 12829628436, interval 276, pending count: 1
Simulation CPU 0 critical: IPC 0.0179 < 0.02
[DRAM_CYCLE_ERROR] Cycle-based error applied! address=0xa9f4002f8 additional_latency=2459910500 cycles
Simulation CPU 0 panic: IPC 0 < 0.01
Simulation CPU 0 critical: IPC 0.014349 < 0.02
Simulation CPU 0 panic: IPC 0.0003735 < 0.01
Simulation CPU 0 warning: IPC 0.024713 < 0.05
[ERROR_CYCLE] Error added at CPU cycle 12876112597, interval 277, pending count: 1
[DRAM_CYCLE_ERROR] Cycle-based error applied! address=0xc68600410 additional_latency=2459910500 cycles
Simulation CPU 0 panic: IPC 0 < 0.01
Simulation CPU 0 panic: IPC 0.0037479 < 0.01
Simulation CPU 0 critical: IPC 0.018343 < 0.02
Simulation CPU 0 critical: IPC 0.014599 < 0.02
Simulation CPU 0 panic: IPC 0.0001239 < 0.01
[ERROR_CYCLE] Error added at CPU cycle 12922596758, interval 278, pending count: 1
[DRAM_CYCLE_ERROR] Cycle-based error applied! address=0xdf0700408 additional_latency=2459910500 cycles
Simulation CPU 0 panic: IPC 0 < 0.01
Simulation CPU 0 critical: IPC 0.013353 < 0.02
Simulation CPU 0 critical: IPC 0.011735 < 0.02
Heartbeat CPU 0 instructions: 110000012 cycles: 12954838752 heartbeat IPC: 0.008538 cumulative IPC: 0.008491 (Simulation time: 22 hr 56 min 54 sec)
Simulation CPU 0 panic: IPC 0.0031239 < 0.01
[ERROR_CYCLE] Error added at CPU cycle 12969080919, interval 279, pending count: 1
Simulation CPU 0 critical: IPC 0.0186 < 0.02
[DRAM_CYCLE_ERROR] Cycle-based error applied! address=0x196d00718 additional_latency=2459910500 cycles
Simulation CPU 0 panic: IPC 0 < 0.01
Simulation CPU 0 critical: IPC 0.014598 < 0.02
Simulation CPU 0 panic: IPC 0.0001257 < 0.01
Simulation CPU 0 critical: IPC 0.013477 < 0.02
[ERROR_CYCLE] Error added at CPU cycle 13015565080, interval 280, pending count: 1
[DRAM_CYCLE_ERROR] Cycle-based error applied! address=0xc7916c920 additional_latency=2459910500 cycles
Simulation CPU 0 critical: IPC 0.011984 < 0.02
Simulation CPU 0 panic: IPC 0 < 0.01
Simulation CPU 0 panic: IPC 0.0089849 < 0.01
Simulation CPU 0 critical: IPC 0.012232 < 0.02
Simulation CPU 0 critical: IPC 0.014646 < 0.02
[ERROR_CYCLE] Error added at CPU cycle 13062049242, interval 281, pending count: 1
[DRAM_CYCLE_ERROR] Cycle-based error applied! address=0xc791708d8 additional_latency=2459910500 cycles
Simulation CPU 0 panic: IPC 0 < 0.01
Simulation CPU 0 panic: IPC 0.0003273 < 0.01
Simulation CPU 0 critical: IPC 0.013602 < 0.02
Simulation CPU 0 critical: IPC 0.012109 < 0.02
[ERROR_CYCLE] Error added at CPU cycle 13108533403, interval 282, pending count: 1
Simulation CPU 0 panic: IPC 0.0017511 < 0.01
[DRAM_CYCLE_ERROR] Cycle-based error applied! address=0xc79174840 additional_latency=2459910500 cycles
Simulation CPU 0 panic: IPC 0 < 0.01
Simulation CPU 0 critical: IPC 0.0191 < 0.02
Simulation CPU 0 critical: IPC 0.014473 < 0.02
Simulation CPU 0 panic: IPC 0.0006249 < 0.01
[ERROR_CYCLE] Error added at CPU cycle 13155017564, interval 283, pending count: 1
[DRAM_CYCLE_ERROR] Cycle-based error applied! address=0xc79178910 additional_latency=2459910500 cycles
Simulation CPU 0 critical: IPC 0.013727 < 0.02
Simulation CPU 0 panic: IPC 0 < 0.01
Simulation CPU 0 critical: IPC 0.012234 < 0.02
Simulation CPU 0 panic: IPC 0.0010023 < 0.01
Simulation CPU 0 critical: IPC 0.019466 < 0.02
[ERROR_CYCLE] Error added at CPU cycle 13201501725, interval 284, pending count: 1
[DRAM_CYCLE_ERROR] Cycle-based error applied! address=0xc7917c8e8 additional_latency=2459910500 cycles
Simulation CPU 0 critical: IPC 0.014473 < 0.02
Simulation CPU 0 panic: IPC 0.0007977 < 0.01
Simulation CPU 0 critical: IPC 0.013679 < 0.02
Simulation CPU 0 critical: IPC 0.012483 < 0.02
[ERROR_CYCLE] Error added at CPU cycle 13247985885, interval 285, pending count: 1
Simulation CPU 0 panic: IPC 0.0002618 < 0.01
[DRAM_CYCLE_ERROR] Cycle-based error applied! address=0xc79180850 additional_latency=2459910500 cycles
Simulation CPU 0 panic: IPC 0 < 0.01
Simulation CPU 0 critical: IPC 0.01984 < 0.02
Simulation CPU 0 critical: IPC 0.014348 < 0.02
Simulation CPU 0 panic: IPC 0.0009993 < 0.01
[ERROR_CYCLE] Error added at CPU cycle 13294470046, interval 286, pending count: 1
[DRAM_CYCLE_ERROR] Cycle-based error applied! address=0xe7eb00310 additional_latency=2459910500 cycles
Simulation CPU 0 panic: IPC 0 < 0.01
Simulation CPU 0 critical: IPC 0.013851 < 0.02
Simulation CPU 0 critical: IPC 0.012238 < 0.02
Simulation CPU 0 panic: IPC 0.0003705 < 0.01
Simulation CPU 0 critical: IPC 0.019594 < 0.02
[ERROR_CYCLE] Error added at CPU cycle 13340954207, interval 287, pending count: 1
[DRAM_CYCLE_ERROR] Cycle-based error applied! address=0x744c000c8 additional_latency=2459910500 cycles
Simulation CPU 0 panic: IPC 0 < 0.01
Simulation CPU 0 critical: IPC 0.014415 < 0.02
Simulation CPU 0 panic: IPC 0.0013065 < 0.01
Simulation CPU 0 warning: IPC 0.025473 < 0.05
[ERROR_CYCLE] Error added at CPU cycle 13387438368, interval 288, pending count: 1
[DRAM_CYCLE_ERROR] Cycle-based error applied! address=0x11f500600 additional_latency=2459910500 cycles
Simulation CPU 0 panic: IPC 0 < 0.01
Simulation CPU 0 panic: IPC 0.0009945 < 0.01
Simulation CPU 0 panic: IPC 0.0043511 < 0.01
Simulation CPU 0 critical: IPC 0.014994 < 0.02
Simulation CPU 0 critical: IPC 0.014223 < 0.02
[ERROR_CYCLE] Error added at CPU cycle 13433922529, interval 289, pending count: 1
[DRAM_CYCLE_ERROR] Cycle-based error applied! address=0xbef1001d8 additional_latency=2459910500 cycles
Simulation CPU 0 panic: IPC 0 < 0.01
Simulation CPU 0 panic: IPC 0.0014985 < 0.01
Simulation CPU 0 critical: IPC 0.013976 < 0.02
Simulation CPU 0 critical: IPC 0.011239 < 0.02
Simulation CPU 0 panic: IPC 0.0017433 < 0.01
[ERROR_CYCLE] Error added at CPU cycle 13480406690, interval 290, pending count: 1
[DRAM_CYCLE_ERROR] Cycle-based error applied! address=0x25ad00510 additional_latency=2459910500 cycles
Simulation CPU 0 panic: IPC 0 < 0.01
Simulation CPU 0 critical: IPC 0.018846 < 0.02
Simulation CPU 0 critical: IPC 0.014223 < 0.02
Simulation CPU 0 panic: IPC 0.0017481 < 0.01
[ERROR_CYCLE] Error added at CPU cycle 13526890851, interval 291, pending count: 1
Simulation CPU 0 critical: IPC 0.013976 < 0.02
[DRAM_CYCLE_ERROR] Cycle-based error applied! address=0x1c8b00718 additional_latency=2459910500 cycles
Simulation CPU 0 panic: IPC 0 < 0.01
Simulation CPU 0 critical: IPC 0.012991 < 0.02
Simulation CPU 0 critical: IPC 0.018596 < 0.02
Simulation CPU 0 critical: IPC 0.014099 < 0.02
[ERROR_CYCLE] Error added at CPU cycle 13573375013, interval 292, pending count: 1
[DRAM_CYCLE_ERROR] Cycle-based error applied! address=0xb9b600600 additional_latency=2459910500 cycles
Simulation CPU 0 panic: IPC 9.6e-06 < 0.01
Simulation CPU 0 panic: IPC 0.0019881 < 0.01
Simulation CPU 0 critical: IPC 0.013976 < 0.02
Simulation CPU 0 critical: IPC 0.010116 < 0.02
[ERROR_CYCLE] Error added at CPU cycle 13619859174, interval 293, pending count: 1
Simulation CPU 0 panic: IPC 0.0032409 < 0.01
[DRAM_CYCLE_ERROR] Cycle-based error applied! address=0xc7919f960 additional_latency=2459910500 cycles
Simulation CPU 0 panic: IPC 0 < 0.01
Simulation CPU 0 critical: IPC 0.017972 < 0.02
Simulation CPU 0 critical: IPC 0.014185 < 0.02
Simulation CPU 0 panic: IPC 0.0021609 < 0.01
[ERROR_CYCLE] Error added at CPU cycle 13666343335, interval 294, pending count: 1
[DRAM_CYCLE_ERROR] Cycle-based error applied! address=0xc791a3948 additional_latency=2459910500 cycles
Simulation CPU 0 critical: IPC 0.014101 < 0.02
Simulation CPU 0 panic: IPC 0 < 0.01
Simulation CPU 0 panic: IPC 0.0095004 < 0.01
Simulation CPU 0 panic: IPC 0.0038649 < 0.01
Simulation CPU 0 critical: IPC 0.017722 < 0.02
[ERROR_CYCLE] Error added at CPU cycle 13712827496, interval 295, pending count: 1
[DRAM_CYCLE_ERROR] Cycle-based error applied! address=0xc791a7920 additional_latency=2459910500 cycles
Simulation CPU 0 critical: IPC 0.013974 < 0.02
Simulation CPU 0 panic: IPC 0.0024969 < 0.01
Simulation CPU 0 critical: IPC 0.014101 < 0.02
Simulation CPU 0 panic: IPC 0.0091177 < 0.01
[ERROR_CYCLE] Error added at CPU cycle 13759311656, interval 296, pending count: 1
Simulation CPU 0 panic: IPC 0.0046137 < 0.01
[DRAM_CYCLE_ERROR] Cycle-based error applied! address=0xc791ab970 additional_latency=2459910500 cycles
Simulation CPU 0 panic: IPC 0 < 0.01
Simulation CPU 0 critical: IPC 0.017223 < 0.02
Simulation CPU 0 critical: IPC 0.013974 < 0.02
Simulation CPU 0 panic: IPC 0.0026217 < 0.01
[ERROR_CYCLE] Error added at CPU cycle 13805795817, interval 297, pending count: 1
[DRAM_CYCLE_ERROR] Cycle-based error applied! address=0xc791af958 additional_latency=2459910500 cycles
Simulation CPU 0 critical: IPC 0.014226 < 0.02
Simulation CPU 0 panic: IPC 0 < 0.01
Simulation CPU 0 panic: IPC 0.008502 < 0.01
Simulation CPU 0 panic: IPC 0.0052377 < 0.01
Simulation CPU 0 critical: IPC 0.016974 < 0.02
[ERROR_CYCLE] Error added at CPU cycle 13852279978, interval 298, pending count: 1
[DRAM_CYCLE_ERROR] Cycle-based error applied! address=0xc791b3930 additional_latency=2459910500 cycles
Simulation CPU 0 critical: IPC 0.013849 < 0.02
Simulation CPU 0 panic: IPC 0 < 0.01
Simulation CPU 0 panic: IPC 0.0028713 < 0.01
Simulation CPU 0 warning: IPC 0.022345 < 0.05
[ERROR_CYCLE] Error added at CPU cycle 13898764139, interval 299, pending count: 1
[DRAM_CYCLE_ERROR] Cycle-based error applied! address=0x63e300320 additional_latency=2459910500 cycles
Simulation CPU 0 panic: IPC 0 < 0.01
Simulation CPU 0 panic: IPC 0.0059865 < 0.01
Simulation CPU 0 critical: IPC 0.01635 < 0.02
Simulation CPU 0 critical: IPC 0.013955 < 0.02
Simulation CPU 0 panic: IPC 0.0031401 < 0.01
[ERROR_CYCLE] Error added at CPU