
*** ChampSim Multicore Out-of-Order Simulator ***
Warmup Instructions: 0
Simulation Instructions: 9223372036854775807
Number of CPUs: 1
Page size: 1048576

Off-chip DRAM Size: 64 GiB Channels: 2 Width: 32-bit Data Rate: 4807 MT/s
[ERROR_PAGE_MANAGER] Error latency: 2459910500 
[ERROR_PAGE_MANAGER] Random seed: 54321 (fixed for preload reproducibility)
[ERROR_PAGE_MANAGER] Cycle-based error modeling enabled
[ERROR_PAGE_MANAGER] Errors per interval: 1
[ERROR_PAGE_MANAGER] Error cycle interval: 46484161 cycles

=== ERROR PAGE STATISTICS ===
Mode: CYCLE
Error Cycle Interval: 46484161 CPU cycles
Total Error Accesses: 0
==============================
Warmup finished CPU 0 instructions: 0 cycles: 1 cumulative IPC: 0 (Simulation time: 00 hr 00 min 00 sec)
Warmup complete CPU 0 instructions: 0 cycles: 1 cumulative IPC: 0 (Simulation time: 00 hr 00 min 00 sec)
Simulation CPU 0 panic: IPC 0 < 0.01
Simulation CPU 0 panic: IPC 0 < 0.01
Simulation CPU 0 panic: IPC 0 < 0.01
Simulation CPU 0 panic: IPC 5e-07 < 0.01
[ERROR_CYCLE] Error added at CPU cycle 46484161, interval 1, pending count: 1
Simulation CPU 0 panic: IPC 1.1e-06 < 0.01
[DRAM_CYCLE_ERROR] Cycle-based error applied! address=0x537c0b778 additional_latency=2459910500 cycles
Simulation CPU 0 panic: IPC 0 < 0.01
Simulation CPU 0 panic: IPC 2.7e-06 < 0.01
Simulation CPU 0 panic: IPC 5.3e-06 < 0.01
Simulation CPU 0 panic: IPC 4.54e-05 < 0.01
[ERROR_CYCLE] Error added at CPU cycle 92968322, interval 2, pending count: 1
[DRAM_CYCLE_ERROR] Cycle-based error applied! address=0x537c0f468 additional_latency=2459910500 cycles
Simulation CPU 0 panic: IPC 0 < 0.01
Simulation CPU 0 panic: IPC 0.0001128 < 0.01
Simulation CPU 0 panic: IPC 0.0001051 < 0.01
Simulation CPU 0 panic: IPC 0.0026152 < 0.01
[ERROR_CYCLE] Error added at CPU cycle 139452483, interval 3, pending count: 1
[DRAM_CYCLE_ERROR] Cycle-based error applied! address=0x537c134a8 additional_latency=2459910500 cycles
Simulation CPU 0 panic: IPC 3.34e-05 < 0.01
Simulation CPU 0 panic: IPC 0 < 0.01
Simulation CPU 0 panic: IPC 0.0010197 < 0.01
Simulation CPU 0 panic: IPC 7e-06 < 0.01
Simulation CPU 0 panic: IPC 6.5e-06 < 0.01
[ERROR_CYCLE] Error added at CPU cycle 185936644, interval 4, pending count: 1
[DRAM_CYCLE_ERROR] Cycle-based error applied! address=0x537c174e0 additional_latency=2459910500 cycles
Simulation CPU 0 panic: IPC 2.05e-05 < 0.01
Simulation CPU 0 panic: IPC 0 < 0.01
Simulation CPU 0 panic: IPC 1.14e-05 < 0.01
Simulation CPU 0 panic: IPC 0.0001371 < 0.01
Simulation CPU 0 panic: IPC 0.0001401 < 0.01
[ERROR_CYCLE] Error added at CPU cycle 232420805, interval 5, pending count: 1
[DRAM_CYCLE_ERROR] Cycle-based error applied! address=0x537c1c4d0 additional_latency=2459910500 cycles
Simulation CPU 0 panic: IPC 0 < 0.01
Simulation CPU 0 panic: IPC 0.0001349 < 0.01
Simulation CPU 0 panic: IPC 0 < 0.01
Simulation CPU 0 panic: IPC 0.0004092 < 0.01
[ERROR_CYCLE] Error added at CPU cycle 278904966, interval 6, pending count: 1
Simulation CPU 0 panic: IPC 0.000361 < 0.01
[DRAM_CYCLE_ERROR] Cycle-based error applied! address=0xb62027d28 additional_latency=2459910500 cycles
Simulation CPU 0 panic: IPC 4e-07 < 0.01
Simulation CPU 0 panic: IPC 0.0003425 < 0.01
Simulation CPU 0 panic: IPC 0.0004172 < 0.01
Simulation CPU 0 warning: IPC 0.026295 < 0.05
[ERROR_CYCLE] Error added at CPU cycle 325389128, interval 7, pending count: 1
[DRAM_CYCLE_ERROR] Cycle-based error applied! address=0x309f00fb8 additional_latency=2459910500 cycles
Simulation CPU 0 panic: IPC 6e-07 < 0.01
Simulation CPU 0 panic: IPC 4.3e-06 < 0.01
Simulation CPU 0 panic: IPC 4.4e-06 < 0.01
Simulation CPU 0 panic: IPC 1.52e-05 < 0.01
Simulation CPU 0 panic: IPC 7.6e-06 < 0.01
[ERROR_CYCLE] Error added at CPU cycle 371873289, interval 8, pending count: 1
[DRAM_CYCLE_ERROR] Cycle-based error applied! address=0x93d2a6070 additional_latency=2459910500 cycles
Simulation CPU 0 panic: IPC 0 < 0.01
Simulation CPU 0 panic: IPC 1.46e-05 < 0.01
Simulation CPU 0 panic: IPC 1e-05 < 0.01
Simulation CPU 0 panic: IPC 1e-05 < 0.01
[ERROR_CYCLE] Error added at CPU cycle 418357450, interval 9, pending count: 1
Simulation CPU 0 panic: IPC 4.3e-06 < 0.01
[DRAM_CYCLE_ERROR] Cycle-based error applied! address=0xf7d67fa38 additional_latency=2459910500 cycles
Simulation CPU 0 panic: IPC 4e-07 < 0.01
Simulation CPU 0 panic: IPC 3.37e-05 < 0.01
Simulation CPU 0 panic: IPC 2.44e-05 < 0.01
Simulation CPU 0 panic: IPC 4.3e-06 < 0.01
[ERROR_CYCLE] Error added at CPU cycle 464841611, interval 10, pending count: 1
[DRAM_CYCLE_ERROR] Cycle-based error applied! address=0x4d730db30 additional_latency=2459910500 cycles
Simulation CPU 0 panic: IPC 4e-07 < 0.01
Simulation CPU 0 panic: IPC 1.92e-05 < 0.01
Simulation CPU 0 panic: IPC 4.6e-06 < 0.01
Simulation CPU 0 panic: IPC 1.42e-05 < 0.01
Simulation CPU 0 panic: IPC 1.24e-05 < 0.01
[ERROR_CYCLE] Error added at CPU cycle 511325771, interval 11, pending count: 1
[DRAM_CYCLE_ERROR] Cycle-based error applied! address=0x622a3cd18 additional_latency=2459910500 cycles
Simulation CPU 0 panic: IPC 4e-07 < 0.01
Simulation CPU 0 panic: IPC 2.96e-05 < 0.01
Simulation CPU 0 panic: IPC 5.34e-05 < 0.01
Simulation CPU 0 panic: IPC 3.88e-05 < 0.01
[ERROR_CYCLE] Error added at CPU cycle 557809932, interval 12, pending count: 1
Simulation CPU 0 panic: IPC 2.17e-05 < 0.01
[DRAM_CYCLE_ERROR] Cycle-based error applied! address=0x2ea483878 additional_latency=2459910500 cycles
Simulation CPU 0 panic: IPC 0 < 0.01
Simulation CPU 0 panic: IPC 3.42e-05 < 0.01
Simulation CPU 0 panic: IPC 4.92e-05 < 0.01
Simulation CPU 0 panic: IPC 3.17e-05 < 0.01
[ERROR_CYCLE] Error added at CPU cycle 604294093, interval 13, pending count: 1
[DRAM_CYCLE_ERROR] Cycle-based error applied! address=0xba35a7178 additional_latency=2459910500 cycles
Simulation CPU 0 panic: IPC 4e-07 < 0.01
Simulation CPU 0 panic: IPC 2.42e-05 < 0.01
Simulation CPU 0 panic: IPC 4.17e-05 < 0.01
Simulation CPU 0 panic: IPC 1.71e-05 < 0.01
Simulation CPU 0 panic: IPC 1.43e-05 < 0.01
[ERROR_CYCLE] Error added at CPU cycle 650778254, interval 14, pending count: 1
[DRAM_CYCLE_ERROR] Cycle-based error applied! address=0xff1a9c1d0 additional_latency=2459910500 cycles
Simulation CPU 0 panic: IPC 0 < 0.01
Simulation CPU 0 panic: IPC 5.89e-05 < 0.01
Simulation CPU 0 panic: IPC 6.6e-06 < 0.01
Simulation CPU 0 panic: IPC 1.53e-05 < 0.01
[ERROR_CYCLE] Error added at CPU cycle 697262415, interval 15, pending count: 1
Simulation CPU 0 panic: IPC 1.18e-05 < 0.01
[DRAM_CYCLE_ERROR] Cycle-based error applied! address=0x10355bdf8 additional_latency=2459910500 cycles
Simulation CPU 0 panic: IPC 4e-07 < 0.01
Simulation CPU 0 panic: IPC 0.0001257 < 0.01
Simulation CPU 0 panic: IPC 0.0002114 < 0.01
Simulation CPU 0 panic: IPC 7.6e-06 < 0.01
[ERROR_CYCLE] Error added at CPU cycle 743746576, interval 16, pending count: 1
[DRAM_CYCLE_ERROR] Cycle-based error applied! address=0x537c59970 additional_latency=2459910500 cycles
Simulation CPU 0 panic: IPC 0 < 0.01
Simulation CPU 0 panic: IPC 5.06e-05 < 0.01
Simulation CPU 0 panic: IPC 7.72e-05 < 0.01
Simulation CPU 0 panic: IPC 9.56e-05 < 0.01
Simulation CPU 0 panic: IPC 0.0001305 < 0.01
[ERROR_CYCLE] Error added at CPU cycle 790230737, interval 17, pending count: 1
[DRAM_CYCLE_ERROR] Cycle-based error applied! address=0x537c5f538 additional_latency=2459910500 cycles
Simulation CPU 0 panic: IPC 0 < 0.01
Simulation CPU 0 panic: IPC 6.93e-05 < 0.01
Simulation CPU 0 panic: IPC 8.56e-05 < 0.01
Simulation CPU 0 panic: IPC 0.0001422 < 0.01
[ERROR_CYCLE] Error added at CPU cycle 836714899, interval 18, pending count: 1
[DRAM_CYCLE_ERROR] Cycle-based error applied! address=0x2d49ba400 additional_latency=2459910500 cycles
Simulation CPU 0 panic: IPC 0 < 0.01
Simulation CPU 0 panic: IPC 7.18e-05 < 0.01
Simulation CPU 0 panic: IPC 0.0001983 < 0.01
Simulation CPU 0 panic: IPC 9.4e-06 < 0.01
Simulation CPU 0 panic: IPC 4.54e-05 < 0.01
[ERROR_CYCLE] Error added at CPU cycle 883199060, interval 19, pending count: 1
[DRAM_CYCLE_ERROR] Cycle-based error applied! address=0xb171964f8 additional_latency=2459910500 cycles
Simulation CPU 0 panic: IPC 4e-07 < 0.01
Simulation CPU 0 panic: IPC 7.19e-05 < 0.01
Simulation CPU 0 panic: IPC 2.85e-05 < 0.01
Simulation CPU 0 panic: IPC 3.84e-05 < 0.01
[ERROR_CYCLE] Error added at CPU cycle 929683221, interval 20, pending count: 1
Simulation CPU 0 panic: IPC 1.47e-05 < 0.01
[DRAM_CYCLE_ERROR] Cycle-based error applied! address=0x8f9b2c500 additional_latency=2459910500 cycles
Simulation CPU 0 panic: IPC 0 < 0.01
Simulation CPU 0 panic: IPC 0.0002031 < 0.01
Simulation CPU 0 panic: IPC 0.0003389 < 0.01
Simulation CPU 0 panic: IPC 0.0007568 < 0.01
[ERROR_CYCLE] Error added at CPU cycle 976167382, interval 21, pending count: 1
[DRAM_CYCLE_ERROR] Cycle-based error applied! address=0x837282e68 additional_latency=2459910500 cycles
Simulation CPU 0 panic: IPC 4e-07 < 0.01
Simulation CPU 0 panic: IPC 9.56e-05 < 0.01
Simulation CPU 0 panic: IPC 0.0001081 < 0.01
Simulation CPU 0 panic: IPC 0.0001673 < 0.01
Simulation CPU 0 panic: IPC 9.35e-05 < 0.01
[ERROR_CYCLE] Error added at CPU cycle 1022651542, interval 22, pending count: 1
[DRAM_CYCLE_ERROR] Cycle-based error applied! address=0x7287c4f28 additional_latency=2459910500 cycles
Simulation CPU 0 panic: IPC 4e-07 < 0.01
Simulation CPU 0 panic: IPC 0.0002398 < 0.01
Simulation CPU 0 panic: IPC 7.99e-05 < 0.01
Simulation CPU 0 panic: IPC 8.3e-05 < 0.01
[ERROR_CYCLE] Error added at CPU cycle 1069135703, interval 23, pending count: 1
Simulation CPU 0 panic: IPC 0.0001353 < 0.01
[DRAM_CYCLE_ERROR] Cycle-based error applied! address=0x8cd350028 additional_latency=2459910500 cycles
Simulation CPU 0 panic: IPC 0 < 0.01
Simulation CPU 0 panic: IPC 0.0005871 < 0.01
Simulation CPU 0 panic: IPC 0.0003354 < 0.01
Simulation CPU 0 panic: IPC 0.0003422 < 0.01
[ERROR_CYCLE] Error added at CPU cycle 1115619864, interval 24, pending count: 1
[DRAM_CYCLE_ERROR] Cycle-based error applied! address=0x56d989f38 additional_latency=2459910500 cycles
Simulation CPU 0 panic: IPC 4e-07 < 0.01
Simulation CPU 0 panic: IPC 0.0001078 < 0.01
Simulation CPU 0 panic: IPC 9.6e-06 < 0.01
Simulation CPU 0 panic: IPC 7.91e-05 < 0.01
Simulation CPU 0 panic: IPC 0.0001112 < 0.01
[ERROR_CYCLE] Error added at CPU cycle 1162104025, interval 25, pending count: 1
[DRAM_CYCLE_ERROR] Cycle-based error applied! address=0x5238d3bc8 additional_latency=2459910500 cycles
Simulation CPU 0 panic: IPC 0 < 0.01
Simulation CPU 0 panic: IPC 0.0006171 < 0.01
Simulation CPU 0 panic: IPC 0.0001232 < 0.01
Simulation CPU 0 panic: IPC 0.0010295 < 0.01
[ERROR_CYCLE] Error added at CPU cycle 1208588186, interval 26, pending count: 1
Simulation CPU 0 panic: IPC 0.0008541 < 0.01
[DRAM_CYCLE_ERROR] Cycle-based error applied! address=0x8e3846f58 additional_latency=2459910500 cycles
Simulation CPU 0 panic: IPC 4e-07 < 0.01
Simulation CPU 0 panic: IPC 0.000631 < 0.01
Simulation CPU 0 panic: IPC 0.0001833 < 0.01
Simulation CPU 0 panic: IPC 0.0001911 < 0.01
[ERROR_CYCLE] Error added at CPU cycle 1255072347, interval 27, pending count: 1
[DRAM_CYCLE_ERROR] Cycle-based error applied! address=0xbcde5fa58 additional_latency=2459910500 cycles
Simulation CPU 0 panic: IPC 4e-07 < 0.01
Simulation CPU 0 panic: IPC 0.00082 < 0.01
Simulation CPU 0 panic: IPC 1.22e-05 < 0.01
Simulation CPU 0 panic: IPC 0.0001603 < 0.01
Simulation CPU 0 panic: IPC 0.0001364 < 0.01
[ERROR_CYCLE] Error added at CPU cycle 1301556508, interval 28, pending count: 1
[DRAM_CYCLE_ERROR] Cycle-based error applied! address=0x909e6910 additional_latency=2459910500 cycles
Simulation CPU 0 panic: IPC 4e-07 < 0.01
Simulation CPU 0 panic: IPC 0.0002733 < 0.01
Simulation CPU 0 panic: IPC 0.0006529 < 0.01
Simulation CPU 0 panic: IPC 0.0004779 < 0.01
[ERROR_CYCLE] Error added at CPU cycle 1348040670, interval 29, pending count: 1
Simulation CPU 0 panic: IPC 0.0005578 < 0.01
[DRAM_CYCLE_ERROR] Cycle-based error applied! address=0x736075e50 additional_latency=2459910500 cycles
Simulation CPU 0 panic: IPC 4e-07 < 0.01
Simulation CPU 0 panic: IPC 7.89e-05 < 0.01
Simulation CPU 0 panic: IPC 0.000243 < 0.01
Simulation CPU 0 panic: IPC 0.0002813 < 0.01
[ERROR_CYCLE] Error added at CPU cycle 1394524831, interval 30, pending count: 1
[DRAM_CYCLE_ERROR] Cycle-based error applied! address=0x537c94910 additional_latency=2459910500 cycles
Simulation CPU 0 panic: IPC 5.3e-06 < 0.01
Simulation CPU 0 panic: IPC 0.0004785 < 0.01
Simulation CPU 0 panic: IPC 0.0005448 < 0.01
Simulation CPU 0 panic: IPC 0.0004207 < 0.01
Simulation CPU 0 panic: IPC 0.0004945 < 0.01
[ERROR_CYCLE] Error added at CPU cycle 1441008992, interval 31, pending count: 1
[DRAM_CYCLE_ERROR] Cycle-based error applied! address=0x537c985f8 additional_latency=2459910500 cycles
Simulation CPU 0 panic: IPC 0 < 0.01
Simulation CPU 0 panic: IPC 0.0003328 < 0.01
Simulation CPU 0 panic: IPC 0.0009171 < 0.01
Simulation CPU 0 panic: IPC 7.1e-06 < 0.01
[ERROR_CYCLE] Error added at CPU cycle 1487493153, interval 32, pending count: 1
[DRAM_CYCLE_ERROR] Cycle-based error applied! address=0x537c9c7d0 additional_latency=2459910500 cycles
Simulation CPU 0 panic: IPC 0.0010043 < 0.01
Simulation CPU 0 panic: IPC 0 < 0.01
Simulation CPU 0 panic: IPC 0.0001551 < 0.01
Simulation CPU 0 panic: IPC 0.0002527 < 0.01
Simulation CPU 0 panic: IPC 0.0006688 < 0.01
[ERROR_CYCLE] Error added at CPU cycle 1533977313, interval 33, pending count: 1
[DRAM_CYCLE_ERROR] Cycle-based error applied! address=0x537ca0530 additional_latency=2459910500 cycles
Simulation CPU 0 panic: IPC 4.36e-05 < 0.01
Simulation CPU 0 panic: IPC 0.0008939 < 0.01
Simulation CPU 0 panic: IPC 5.1e-06 < 0.01
[ERROR_CYCLE] Error added at CPU cycle 1580461474, interval 34, pending count: 1
[DRAM_CYCLE_ERROR] Cycle-based error applied! address=0x701ed4228 additional_latency=2459910500 cycles
Simulation CPU 0 panic: IPC 1.7e-06 < 0.01
Simulation CPU 0 panic: IPC 2.47e-05 < 0.01
Simulation CPU 0 panic: IPC 7.1e-06 < 0.01
Simulation CPU 0 panic: IPC 5.1e-06 < 0.01
[ERROR_CYCLE] Error added at CPU cycle 1626945635, interval 35, pending count: 1
Simulation CPU 0 panic: IPC 6.6e-06 < 0.01
[DRAM_CYCLE_ERROR] Cycle-based error applied! address=0x4108377e0 additional_latency=2459910500 cycles
Simulation CPU 0 panic: IPC 0 < 0.01
Simulation CPU 0 panic: IPC 9.2e-06 < 0.01
Simulation CPU 0 panic: IPC 1.2e-05 < 0.01
Simulation CPU 0 panic: IPC 9.4e-06 < 0.01
[ERROR_CYCLE] Error added at CPU cycle 1673429796, interval 36, pending count: 1
[DRAM_CYCLE_ERROR] Cycle-based error applied! address=0x40ec85610 additional_latency=2459910500 cycles
Simulation CPU 0 panic: IPC 4e-07 < 0.01
Simulation CPU 0 panic: IPC 6.7e-06 < 0.01
Simulation CPU 0 panic: IPC 2.5e-06 < 0.01
Simulation CPU 0 panic: IPC 6.6e-06 < 0.01
[ERROR_CYCLE] Error added at CPU cycle 1719913957, interval 37, pending count: 1
[DRAM_CYCLE_ERROR] Cycle-based error applied! address=0x537cbed78 additional_latency=2459910500 cycles
Simulation CPU 0 panic: IPC 1.22e-05 < 0.01
Simulation CPU 0 panic: IPC 0 < 0.01
Simulation CPU 0 panic: IPC 9.6e-06 < 0.01
Simulation CPU 0 panic: IPC 1.14e-05 < 0.01
Simulation CPU 0 panic: IPC 2.3e-06 < 0.01
[ERROR_CYCLE] Error added at CPU cycle 1766398118, interval 38, pending count: 1
[DRAM_CYCLE_ERROR] Cycle-based error applied! address=0x537cc5038 additional_latency=2459910500 cycles
Simulation CPU 0 panic: IPC 9.4e-06 < 0.01
Simulation CPU 0 panic: IPC 0 < 0.01
Simulation CPU 0 panic: IPC 1.63e-05 < 0.01
Simulation CPU 0 panic: IPC 3.51e-05 < 0.01
Simulation CPU 0 panic: IPC 2.8e-06 < 0.01
[ERROR_CYCLE] Error added at CPU cycle 1812882279, interval 39, pending count: 1
[DRAM_CYCLE_ERROR] Cycle-based error applied! address=0x537cccda0 additional_latency=2459910500 cycles
Simulation CPU 0 panic: IPC 0 < 0.01
Simulation CPU 0 panic: IPC 6.6e-06 < 0.01
Simulation CPU 0 panic: IPC 1.91e-05 < 0.01
Simulation CPU 0 panic: IPC 1.67e-05 < 0.01
[ERROR_CYCLE] Error added at CPU cycle 1859366441, interval 40, pending count: 1
Simulation CPU 0 panic: IPC 8.9e-06 < 0.01
[DRAM_CYCLE_ERROR] Cycle-based error applied! address=0x537cd2c20 additional_latency=2459910500 cycles
Simulation CPU 0 panic: IPC 0 < 0.01
Simulation CPU 0 panic: IPC 3.79e-05 < 0.01
Simulation CPU 0 panic: IPC 1.4e-05 < 0.01
Simulation CPU 0 panic: IPC 1.65e-05 < 0.01
[ERROR_CYCLE] Error added at CPU cycle 1905850602, interval 41, pending count: 1
[DRAM_CYCLE_ERROR] Cycle-based error applied! address=0x537cd8c28 additional_latency=2459910500 cycles
Simulation CPU 0 panic: IPC 1.19e-05 < 0.01
Simulation CPU 0 panic: IPC 0 < 0.01
Simulation CPU 0 panic: IPC 4.65e-05 < 0.01
Simulation CPU 0 panic: IPC 9.7e-06 < 0.01
Simulation CPU 0 panic: IPC 3.25e-05 < 0.01
[ERROR_CYCLE] Error added at CPU cycle 1952334763, interval 42, pending count: 1
[DRAM_CYCLE_ERROR] Cycle-based error applied! address=0x537cddc38 additional_latency=2459910500 cycles
Simulation CPU 0 panic: IPC 0 < 0.01
Simulation CPU 0 panic: IPC 4.75e-05 < 0.01
Simulation CPU 0 panic: IPC 7.1e-06 < 0.01
Simulation CPU 0 panic: IPC 6.09e-05 < 0.01
[ERROR_CYCLE] Error added at CPU cycle 1998818924, interval 43, pending count: 1
Simulation CPU 0 panic: IPC 1.4e-05 < 0.01
[DRAM_CYCLE_ERROR] Cycle-based error applied! address=0x537ce1990 additional_latency=2459910500 cycles
Simulation CPU 0 panic: IPC 0 < 0.01
Simulation CPU 0 panic: IPC 2.85e-05 < 0.01
Simulation CPU 0 panic: IPC 1.85e-05 < 0.01
Simulation CPU 0 panic: IPC 7.4e-06 < 0.01
[ERROR_CYCLE] Error added at CPU cycle 2045303084, interval 44, pending count: 1
[DRAM_CYCLE_ERROR] Cycle-based error applied! address=0x537ce5fc0 additional_latency=2459910500 cycles
Simulation CPU 0 panic: IPC 1.81e-05 < 0.01
Simulation CPU 0 panic: IPC 0 < 0.01
Simulation CPU 0 panic: IPC 2.8e-06 < 0.01
Simulation CPU 0 panic: IPC 1.65e-05 < 0.01
Simulation CPU 0 panic: IPC 6.59e-05 < 0.01
[ERROR_CYCLE] Error added at CPU cycle 2091787245, interval 45, pending count: 1
[DRAM_CYCLE_ERROR] Cycle-based error applied! address=0x537cebf58 additional_latency=2459910500 cycles
Simulation CPU 0 panic: IPC 0 < 0.01
Simulation CPU 0 panic: IPC 4.72e-05 < 0.01
Simulation CPU 0 panic: IPC 5.42e-05 < 0.01
Simulation CPU 0 panic: IPC 7e-05 < 0.01
[ERROR_CYCLE] Error added at CPU cycle 2138271406, interval 46, pending count: 1
Simulation CPU 0 panic: IPC 0.0001075 < 0.01
[DRAM_CYCLE_ERROR] Cycle-based error applied! address=0x537cefbb0 additional_latency=2459910500 cycles
Simulation CPU 0 panic: IPC 0 < 0.01
Simulation CPU 0 panic: IPC 4.66e-05 < 0.01
Simulation CPU 0 panic: IPC 1.2e-05 < 0.01
Simulation CPU 0 panic: IPC 1.6e-05 < 0.01
[ERROR_CYCLE] Error added at CPU cycle 2184755567, interval 47, pending count: 1
[DRAM_CYCLE_ERROR] Cycle-based error applied! address=0x537cf3a00 additional_latency=2459910500 cycles
Simulation CPU 0 panic: IPC 3.72e-05 < 0.01
Simulation CPU 0 panic: IPC 0 < 0.01
Simulation CPU 0 panic: IPC 5.39e-05 < 0.01
Simulation CPU 0 panic: IPC 5.83e-05 < 0.01
Simulation CPU 0 panic: IPC 7.4e-06 < 0.01
[ERROR_CYCLE] Error added at CPU cycle 2231239728, interval 48, pending count: 1
[DRAM_CYCLE_ERROR] Cycle-based error applied! address=0x537cf7be0 additional_latency=2459910500 cycles
Simulation CPU 0 panic: IPC 9.64e-05 < 0.01
Simulation CPU 0 panic: IPC 3.93e-05 < 0.01
Simulation CPU 0 panic: IPC 4.01e-05 < 0.01
Simulation CPU 0 panic: IPC 5.43e-05 < 0.01
[ERROR_CYCLE] Error added at CPU cycle 2277723889, interval 49, pending count: 1
Simulation CPU 0 panic: IPC 3.28e-05 < 0.01
[DRAM_CYCLE_ERROR] Cycle-based error applied! address=0x537cfee98 additional_latency=2459910500 cycles
Simulation CPU 0 panic: IPC 0 < 0.01
Simulation CPU 0 panic: IPC 8.15e-05 < 0.01
Simulation CPU 0 panic: IPC 0.0001264 < 0.01
Simulation CPU 0 panic: IPC 5.18e-05 < 0.01
[ERROR_CYCLE] Error added at CPU cycle 2324208050, interval 50, pending count: 1
[DRAM_CYCLE_ERROR] Cycle-based error applied! address=0x7d72029c0 additional_latency=2459910500 cycles
Simulation CPU 0 panic: IPC 1.15e-05 < 0.01
Simulation CPU 0 panic: IPC 0 < 0.01
Simulation CPU 0 panic: IPC 9.68e-05 < 0.01
Simulation CPU 0 panic: IPC 0.0001309 < 0.01
Simulation CPU 0 panic: IPC 0.0001174 < 0.01
[ERROR_CYCLE] Error added at CPU cycle 2370692212, interval 51, pending count: 1
[DRAM_CYCLE_ERROR] Cycle-based error applied! address=0x7d7207f80 additional_latency=2459910500 cycles
Simulation CPU 0 panic: IPC 0.0001295 < 0.01
Simulation CPU 0 panic: IPC 1.22e-05 < 0.01
Simulation CPU 0 panic: IPC 0.0001157 < 0.01
Simulation CPU 0 panic: IPC 0.0001207 < 0.01
[ERROR_CYCLE] Error added at CPU cycle 2417176373, interval 52, pending count: 1
[DRAM_CYCLE_ERROR] Cycle-based error applied! address=0x4f2e428f0 additional_latency=2459910500 cycles
Simulation CPU 0 panic: IPC 4e-07 < 0.01
Simulation CPU 0 panic: IPC 8.61e-05 < 0.01
Simulation CPU 0 panic: IPC 0.0002114 < 0.01
Simulation CPU 0 panic: IPC 0.0002879 < 0.01
Simulation CPU 0 panic: IPC 3.03e-05 < 0.01
[ERROR_CYCLE] Error added at CPU cycle 2463660534, interval 53, pending count: 1
[DRAM_CYCLE_ERROR] Cycle-based error applied! address=0x2f4722ef8 additional_latency=2459910500 cycles
Simulation CPU 0 panic: IPC 0 < 0.01
Simulation CPU 0 panic: IPC 7.25e-05 < 0.01
Simulation CPU 0 panic: IPC 6.12e-05 < 0.01
Simulation CPU 0 panic: IPC 1.4e-05 < 0.01
Simulation CPU 0 panic: IPC 5.14e-05 < 0.01
[ERROR_CYCLE] Error added at CPU cycle 2510144695, interval 54, pending count: 1
[DRAM_CYCLE_ERROR] Cycle-based error applied! address=0x8025dc1e0 additional_latency=2459910500 cycles
Simulation CPU 0 panic: IPC 0 < 0.01
Simulation CPU 0 panic: IPC 3.01e-05 < 0.01
Simulation CPU 0 panic: IPC 0.0003067 < 0.01
Simulation CPU 0 panic: IPC 5.18e-05 < 0.01
[ERROR_CYCLE] Error added at CPU cycle 2556628855, interval 55, pending count: 1
[DRAM_CYCLE_ERROR] Cycle-based error applied! address=0xd0d2dd478 additional_latency=2459910500 cycles
Simulation CPU 0 panic: IPC 4e-07 < 0.01
Simulation CPU 0 panic: IPC 0.0001357 < 0.01
Simulation CPU 0 panic: IPC 9.2e-06 < 0.01
Simulation CPU 0 panic: IPC 3.28e-05 < 0.01
Simulation CPU 0 panic: IPC 3.54e-05 < 0.01
[ERROR_CYCLE] Error added at CPU cycle 2603113016, interval 56, pending count: 1
[DRAM_CYCLE_ERROR] Cycle-based error applied! address=0xb3adec9c0 additional_latency=2459910500 cycles
Simulation CPU 0 panic: IPC 0 < 0.01
Simulation CPU 0 panic: IPC 0.0001211 < 0.01
Simulation CPU 0 panic: IPC 7.1e-06 < 0.01
Simulation CPU 0 panic: IPC 2.11e-05 < 0.01
[ERROR_CYCLE] Error added at CPU cycle 2649597177, interval 57, pending count: 1
Simulation CPU 0 panic: IPC 7.08e-05 < 0.01
[DRAM_CYCLE_ERROR] Cycle-based error applied! address=0x6b045e4a0 additional_latency=2459910500 cycles
Simulation CPU 0 panic: IPC 4e-07 < 0.01
Simulation CPU 0 panic: IPC 2.53e-05 < 0.01
Simulation CPU 0 panic: IPC 0.000249 < 0.01
Simulation CPU 0 panic: IPC 0.0003188 < 0.01
[ERROR_CYCLE] Error added at CPU cycle 2696081338, interval 58, pending count: 1
[DRAM_CYCLE_ERROR] Cycle-based error applied! address=0xaa324fe90 additional_latency=2459910500 cycles
Simulation CPU 0 panic: IPC 4e-07 < 0.01
Simulation CPU 0 panic: IPC 8.36e-05 < 0.01
Simulation CPU 0 panic: IPC 5.62e-05 < 0.01
Simulation CPU 0 panic: IPC 0.0001369 < 0.01
Simulation CPU 0 panic: IPC 1.35e-05 < 0.01
[ERROR_CYCLE] Error added at CPU cycle 2742565499, interval 59, pending count: 1
[DRAM_CYCLE_ERROR] Cycle-based error applied! address=0xbfa1a4dd8 additional_latency=2459910500 cycles
Simulation CPU 0 panic: IPC 0 < 0.01
Simulation CPU 0 panic: IPC 4.5e-05 < 0.01
Simulation CPU 0 panic: IPC 0.0001177 < 0.01
Simulation CPU 0 panic: IPC 5.19e-05 < 0.01
[ERROR_CYCLE] Error added at CPU cycle 2789049660, interval 60, pending count: 1
Simulation CPU 0 panic: IPC 0.00012 < 0.01
[DRAM_CYCLE_ERROR] Cycle-based error applied! address=0x2000519f8 additional_latency=2459910500 cycles
Simulation CPU 0 panic: IPC 4e-07 < 0.01
Simulation CPU 0 panic: IPC 5.87e-05 < 0.01
Simulation CPU 0 panic: IPC 0.0002348 < 0.01
Simulation CPU 0 panic: IPC 0.0001573 < 0.01
[ERROR_CYCLE] Error added at CPU cycle 2835533821, interval 61, pending count: 1
[DRAM_CYCLE_ERROR] Cycle-based error applied! address=0x6804fa6c8 additional_latency=2459910500 cycles
Simulation CPU 0 panic: IPC 4e-07 < 0.01
Simulation CPU 0 panic: IPC 6.96e-05 < 0.01
Simulation CPU 0 panic: IPC 7.07e-05 < 0.01
Simulation CPU 0 panic: IPC 0.0001799 < 0.01
Simulation CPU 0 panic: IPC 0.0002571 < 0.01
[ERROR_CYCLE] Error added at CPU cycle 2882017983, interval 62, pending count: 1
[DRAM_CYCLE_ERROR] Cycle-based error applied! address=0x73662c180 additional_latency=2459910500 cycles
Simulation CPU 0 panic: IPC 0 < 0.01
Simulation CPU 0 panic: IPC 8.01e-05 < 0.01
Simulation CPU 0 panic: IPC 2.09e-05 < 0.01
Simulation CPU 0 panic: IPC 0.0001618 < 0.01
[ERROR_CYCLE] Error added at CPU cycle 2928502144, interval 63, pending count: 1
Simulation CPU 0 panic: IPC 2.83e-05 < 0.01
[DRAM_CYCLE_ERROR] Cycle-based error applied! address=0x54c7366a8 additional_latency=2459910500 cycles
Simulation CPU 0 panic: IPC 0 < 0.01
Simulation CPU 0 panic: IPC 0.0003213 < 0.01
Simulation CPU 0 panic: IPC 9.9e-06 < 0.01
Simulation CPU 0 panic: IPC 0.0003967 < 0.01
[ERROR_CYCLE] Error added at CPU cycle 2974986305, interval 64, pending count: 1
[DRAM_CYCLE_ERROR] Cycle-based error applied! address=0x7318d8c00 additional_latency=2459910500 cycles
Simulation CPU 0 panic: IPC 0 < 0.01
Simulation CPU 0 panic: IPC 5.1e-06 < 0.01
Simulation CPU 0 panic: IPC 5e-05 < 0.01
Simulation CPU 0 panic: IPC 3.24e-05 < 0.01
Simulation CPU 0 panic: IPC 7.56e-05 < 0.01
[ERROR_CYCLE] Error added at CPU cycle 3021470466, interval 65, pending count: 1
[DRAM_CYCLE_ERROR] Cycle-based error applied! address=0x247b05180 additional_latency=2459910500 cycles
Simulation CPU 0 panic: IPC 0 < 0.01
Simulation CPU 0 panic: IPC 0.0001378 < 0.01
Simulation CPU 0 panic: IPC 0.0001715 < 0.01
Simulation CPU 0 panic: IPC 4.89e-05 < 0.01
[ERROR_CYCLE] Error added at CPU cycle 3067954626, interval 66, pending count: 1
[DRAM_CYCLE_ERROR] Cycle-based error applied! address=0x7d72439e0 additional_latency=2459910500 cycles
Simulation CPU 0 panic: IPC 2.37e-05 < 0.01
Simulation CPU 0 panic: IPC 0 < 0.01
Simulation CPU 0 panic: IPC 4.61e-05 < 0.01
Simulation CPU 0 panic: IPC 4.7e-05 < 0.01
Simulation CPU 0 panic: IPC 0.0001473 < 0.01
[ERROR_CYCLE] Error added at CPU cycle 3114438787, interval 67, pending count: 1
[DRAM_CYCLE_ERROR] Cycle-based error applied! address=0x7d7248bd0 additional_latency=2459910500 cycles
Simulation CPU 0 panic: IPC 0.0001005 < 0.01
Simulation CPU 0 panic: IPC 2.82e-05 < 0.01
Simulation CPU 0 panic: IPC 0.0003203 < 0.01
Simulation CPU 0 panic: IPC 0.0002769 < 0.01
Simulation CPU 0 panic: IPC 0.0005878 < 0.01
[ERROR_CYCLE] Error added at CPU cycle 3160922948, interval 68, pending count: 1
[DRAM_CYCLE_ERROR] Cycle-based error applied! address=0x7d724cd48 additional_latency=2459910500 cycles
Simulation CPU 0 panic: IPC 0 < 0.01
Simulation CPU 0 panic: IPC 0.0002437 < 0.01
Simulation CPU 0 panic: IPC 2.82e-05 < 0.01
Simulation CPU 0 panic: IPC 1.66e-05 < 0.01
[ERROR_CYCLE] Error added at CPU cycle 3207407109, interval 69, pending count: 1
[DRAM_CYCLE_ERROR] Cycle-based error applied! address=0x7d7250e88 additional_latency=2459910500 cycles
Simulation CPU 0 panic: IPC 0.0002559 < 0.01
Simulation CPU 0 panic: IPC 0 < 0.01
Simulation CPU 0 panic: IPC 0.0002372 < 0.01
Simulation CPU 0 panic: IPC 3.95e-05 < 0.01
Simulation CPU 0 panic: IPC 0.0001235 < 0.01
[ERROR_CYCLE] Error added at CPU cycle 3253891270, interval 70, pending count: 1
[DRAM_CYCLE_ERROR] Cycle-based error applied! address=0x7d72549f8 additional_latency=2459910500 cycles
Simulation CPU 0 panic: IPC 3.95e-05 < 0.01
Simulation CPU 0 panic: IPC 0.0001676 < 0.01
Simulation CPU 0 panic: IPC 0.0002414 < 0.01
Simulation CPU 0 panic: IPC 4.16e-05 < 0.01
Simulation CPU 0 panic: IPC 3.72e-05 < 0.01
[ERROR_CYCLE] Error added at CPU cycle 3300375431, interval 71, pending count: 1
[DRAM_CYCLE_ERROR] Cycle-based error applied! address=0x7d7258ce8 additional_latency=2459910500 cycles
Simulation CPU 0 panic: IPC 4.6e-06 < 0.01
Simulation CPU 0 panic: IPC 0.0001181 < 0.01
Simulation CPU 0 panic: IPC 0.0002476 < 0.01
Simulation CPU 0 panic: IPC 0.0001958 < 0.01
[ERROR_CYCLE] Error added at CPU cycle 3346859592, interval 72, pending count: 1
[DRAM_CYCLE_ERROR] Cycle-based error applied! address=0x7d725e9a8 additional_latency=2459910500 cycles
Simulation CPU 0 panic: IPC 0.0003686 < 0.01
Simulation CPU 0 panic: IPC 0 < 0.01
Simulation CPU 0 panic: IPC 0.0001047 < 0.01
Simulation CPU 0 panic: IPC 0.0001047 < 0.01
Simulation CPU 0 panic: IPC 7.88e-05 < 0.01
[ERROR_CYCLE] Error added at CPU cycle 3393343754, interval 73, pending count: 1
[DRAM_CYCLE_ERROR] Cycle-based error applied! address=0x7d7262980 additional_latency=2459910500 cycles
Simulation CPU 0 panic: IPC 0.000428 < 0.01
Simulation CPU 0 panic: IPC 0 < 0.01
Simulation CPU 0 panic: IPC 0.0003212 < 0.01
Simulation CPU 0 panic: IPC 4.22e-05 < 0.01
[ERROR_CYCLE] Error added at CPU cycle 3439827915, interval 74, pending count: 1
Simulation CPU 0 panic: IPC 3.03e-05 < 0.01
[DRAM_CYCLE_ERROR] Cycle-based error applied! address=0x7d7266090 additional_latency=2459910500 cycles
Simulation CPU 0 panic: IPC 0 < 0.01
Simulation CPU 0 panic: IPC 0.0006245 < 0.01
Simulation CPU 0 panic: IPC 3.49e-05 < 0.01
Simulation CPU 0 panic: IPC 7.48e-05 < 0.01
[ERROR_CYCLE] Error added at CPU cycle 3486312076, interval 75, pending count: 1
[DRAM_CYCLE_ERROR] Cycle-based error applied! address=0x7d726afc8 additional_latency=2459910500 cycles
Simulation CPU 0 panic: IPC 0.0002813 < 0.01
Simulation CPU 0 panic: IPC 0 < 0.01
Simulation CPU 0 panic: IPC 0.0002666 < 0.01
Simulation CPU 0 panic: IPC 0.0003522 < 0.01
Simulation CPU 0 panic: IPC 0.0005807 < 0.01
[ERROR_CYCLE] Error added at CPU cycle 3532796237, interval 76, pending count: 1
[DRAM_CYCLE_ERROR] Cycle-based error applied! address=0x7d726eaa8 additional_latency=2459910500 cycles
Simulation CPU 0 panic: IPC 0.0004421 < 0.01
Simulation CPU 0 panic: IPC 0 < 0.01
Simulation CPU 0 panic: IPC 0.0003817 < 0.01
Simulation CPU 0 panic: IPC 0.0001007 < 0.01
[ERROR_CYCLE] Error added at CPU cycle 3579280397, interval 77, pending count: 1
Simulation CPU 0 panic: IPC 2.53e-05 < 0.01
[DRAM_CYCLE_ERROR] Cycle-based error applied! address=0x7d7272e80 additional_latency=2459910500 cycles
Simulation CPU 0 panic: IPC 0 < 0.01
Simulation CPU 0 panic: IPC 0.0003332 < 0.01
Simulation CPU 0 panic: IPC 7.25e-05 < 0.01
Simulation CPU 0 panic: IPC 2.8e-06 < 0.01
[ERROR_CYCLE] Error added at CPU cycle 3625764558, interval 78, pending count: 1
[DRAM_CYCLE_ERROR] Cycle-based error applied! address=0x7d7276cc8 additional_latency=2459910500 cycles
Simulation CPU 0 panic: IPC 7.21e-05 < 0.01
Simulation CPU 0 panic: IPC 0 < 0.01
Simulation CPU 0 panic: IPC 0.0003807 < 0.01
Simulation CPU 0 panic: IPC 0.0004946 < 0.01
Simulation CPU 0 panic: IPC 0.0003261 < 0.01
[ERROR_CYCLE] Error added at CPU cycle 3672248719, interval 79, pending count: 1
[DRAM_CYCLE_ERROR] Cycle-based error applied! address=0x7d727ad88 additional_latency=2459910500 cycles
Simulation CPU 0 panic: IPC 0.0004985 < 0.01
Simulation CPU 0 panic: IPC 0 < 0.01
Simulation CPU 0 panic: IPC 0.0001152 < 0.01
Simulation CPU 0 panic: IPC 0.0019125 < 0.01
[ERROR_CYCLE] Error added at CPU cycle 3718732880, interval 80, pending count: 1
[DRAM_CYCLE_ERROR] Cycle-based error applied! address=0x5be3df950 additional_latency=2459910500 cycles
Simulation CPU 0 panic: IPC 4e-07 < 0.01
Simulation CPU 0 panic: IPC 6.65e-05 < 0.01
Simulation CPU 0 panic: IPC 1.63e-05 < 0.01
Simulation CPU 0 panic: IPC 0.0004864 < 0.01
Simulation CPU 0 panic: IPC 8.65e-05 < 0.01
[ERROR_CYCLE] Error added at CPU cycle 3765217041, interval 81, pending count: 1
[DRAM_CYCLE_ERROR] Cycle-based error applied! address=0x560b09be8 additional_latency=2459910500 cycles
Simulation CPU 0 panic: IPC 4e-07 < 0.01
Simulation CPU 0 panic: IPC 0.0007661 < 0.01
Simulation CPU 0 panic: IPC 0.0004636 < 0.01
Simulation CPU 0 panic: IPC 0.0003405 < 0.01
Simulation CPU 0 panic: IPC 0.0001647 < 0.01
[ERROR_CYCLE] Error added at CPU cycle 3811701202, interval 82, pending count: 1
[DRAM_CYCLE_ERROR] Cycle-based error applied! address=0x6eb1c15a0 additional_latency=2459910500 cycles
Simulation CPU 0 panic: IPC 4e-07 < 0.01
Simulation CPU 0 panic: IPC 2.97e-05 < 0.01
Simulation CPU 0 panic: IPC 0.000104 < 0.01
Simulation CPU 0 panic: IPC 6.9e-06 < 0.01
[ERROR_CYCLE] Error added at CPU cycle 3858185363, interval 83, pending count: 1
[DRAM_CYCLE_ERROR] Cycle-based error applied! address=0xcfbe59580 additional_latency=2459910500 cycles
Simulation CPU 0 panic: IPC 4.2e-05 < 0.01
Simulation CPU 0 panic: IPC 0.0002971 < 0.01
Simulation CPU 0 panic: IPC 0.0007079 < 0.01
Simulation CPU 0 panic: IPC 0.000117 < 0.01
Simulation CPU 0 panic: IPC 4.2e-05 < 0.01
[ERROR_CYCLE] Error added at CPU cycle 3904669525, interval 84, pending count: 1
[DRAM_CYCLE_ERROR] Cycle-based error applied! address=0xbeee87978 additional_latency=2459910500 cycles
Simulation CPU 0 panic: IPC 4e-07 < 0.01
Simulation CPU 0 panic: IPC 7.94e-05 < 0.01
Simulation CPU 0 panic: IPC 0.0001563 < 0.01
Simulation CPU 0 panic: IPC 0.0002212 < 0.01
Simulation CPU 0 panic: IPC 0.0002193 < 0.01
[ERROR_CYCLE] Error added at CPU cycle 3951153686, interval 85, pending count: 1
[DRAM_CYCLE_ERROR] Cycle-based error applied! address=0xcc382ad48 additional_latency=2459910500 cycles
Simulation CPU 0 panic: IPC 4e-07 < 0.01
Simulation CPU 0 panic: IPC 0.0001868 < 0.01
Simulation CPU 0 panic: IPC 0.0014846 < 0.01
Simulation CPU 0 panic: IPC 0.0002043 < 0.01
[ERROR_CYCLE] Error added at CPU cycle 3997637847, interval 86, pending count: 1
[DRAM_CYCLE_ERROR] Cycle-based error applied! address=0x963820048 additional_latency=2459910500 cycles
Simulation CPU 0 panic: IPC 0.0003216 < 0.01
Simulation CPU 0 panic: IPC 0.0006025 < 0.01
Simulation CPU 0 panic: IPC 0.0002415 < 0.01
Simulation CPU 0 panic: IPC 0.0003871 < 0.01
Simulation CPU 0 panic: IPC 0.0014964 < 0.01
[ERROR_CYCLE] Error added at CPU cycle 4044122008, interval 87, pending count: 1
[DRAM_CYCLE_ERROR] Cycle-based error applied! address=0x706e09080 additional_latency=2459910500 cycles
Simulation CPU 0 panic: IPC 0 < 0.01
Simulation CPU 0 panic: IPC 0.000788 < 0.01
Simulation CPU 0 panic: IPC 6.58e-05 < 0.01
Simulation CPU 0 panic: IPC 0.000169 < 0.01
Simulation CPU 0 panic: IPC 0.0048339 < 0.01
[ERROR_CYCLE] Error added at CPU cycle 4090606168, interval 88, pending count: 1
[DRAM_CYCLE_ERROR] Cycle-based error applied! address=0x24acd2110 additional_latency=2459910500 cycles
Simulation CPU 0 panic: IPC 4e-07 < 0.01
Simulation CPU 0 panic: IPC 0.0019409 < 0.01
Simulation CPU 0 panic: IPC 7.95e-05 < 0.01
Simulation CPU 0 panic: IPC 0.000563 < 0.01
[ERROR_CYCLE] Error added at CPU cycle 4137090329, interval 89, pending count: 1
Simulation CPU 0 panic: IPC 6.52e-05 < 0.01
[DRAM_CYCLE_ERROR] Cycle-based error applied! address=0x9aaa90568 additional_latency=2459910500 cycles
Simulation CPU 0 panic: IPC 4e-07 < 0.01
Simulation CPU 0 panic: IPC 0.0014152 < 0.01
Simulation CPU 0 panic: IPC 0.0006741 < 0.01
Simulation CPU 0 panic: IPC 0.0005227 < 0.01
[ERROR_CYCLE] Error added at CPU cycle 4183574490, interval 90, pending count: 1
[DRAM_CYCLE_ERROR] Cycle-based error applied! address=0xc2a140368 additional_latency=2459910500 cycles
Simulation CPU 0 panic: IPC 4e-07 < 0.01
Simulation CPU 0 panic: IPC 0.0001057 < 0.01
Simulation CPU 0 panic: IPC 0.0033912 < 0.01
Heartbeat CPU 0 instructions: 10000001 cycles: 4220909790 heartbeat IPC: 0.002369 cumulative IPC: 0.002369 (Simulation time: 06 hr 06 min 25 sec)
[ERROR_CYCLE] Error added at CPU cycle 4230058651, interval 91, pending count: 1
[DRAM_CYCLE_ERROR] Cycle-based error applied! address=0xde5c460f8 additional_latency=2459910500 cycles
Simulation CPU 0 panic: IPC 6e-07 < 0.01
Simulation CPU 0 panic: IPC 1.08e-05 < 0.01
Simulation CPU 0 panic: IPC 1.3e-05 < 0.01
Simulation CPU 0 panic: IPC 9.6e-06 < 0.01
[ERROR_CYCLE] Error added at CPU cycle 4276542812, interval 92, pending count: 1
[DRAM_CYCLE_ERROR] Cycle-based error applied! address=0xa677a98d8 additional_latency=2459910500 cycles
Simulation CPU 0 panic: IPC 4e-07 < 0.01
Simulation CPU 0 panic: IPC 1.9e-06 < 0.01
Simulation CPU 0 panic: IPC 2.3e-06 < 0.01
Simulation CPU 0 panic: IPC 5.3e-06 < 0.01
Simulation CPU 0 panic: IPC 6.8e-06 < 0.01
[ERROR_CYCLE] Error added at CPU cycle 4323026973, interval 93, pending count: 1
[DRAM_CYCLE_ERROR] Cycle-based error applied! address=0xe4928ef20 additional_latency=2459910500 cycles
Simulation CPU 0 panic: IPC 4e-07 < 0.01
Simulation CPU 0 panic: IPC 1.9e-06 < 0.01
Simulation CPU 0 panic: IPC 9.2e-06 < 0.01
Simulation CPU 0 panic: IPC 2.8e-06 < 0.01
[ERROR_CYCLE] Error added at CPU cycle 4369511134, interval 94, pending count: 1
Simulation CPU 0 panic: IPC 4.3e-06 < 0.01
[DRAM_CYCLE_ERROR] Cycle-based error applied! address=0x41dff9c10 additional_latency=2459910500 cycles
Simulation CPU 0 panic: IPC 4e-07 < 0.01
Simulation CPU 0 panic: IPC 4.7e-06 < 0.01
Simulation CPU 0 panic: IPC 1.65e-05 < 0.01
Simulation CPU 0 panic: IPC 1.42e-05 < 0.01
[ERROR_CYCLE] Error added at CPU cycle 4415995296, interval 95, pending count: 1
[DRAM_CYCLE_ERROR] Cycle-based error applied! address=0xd2a8267b0 additional_latency=2459910500 cycles
Simulation CPU 0 panic: IPC 4e-07 < 0.01
Simulation CPU 0 panic: IPC 6.2e-06 < 0.01
Simulation CPU 0 panic: IPC 2.3e-06 < 0.01
Simulation CPU 0 panic: IPC 5.1e-06 < 0.01
Simulation CPU 0 panic: IPC 7.1e-06 < 0.01
[ERROR_CYCLE] Error added at CPU cycle 4462479457, interval 96, pending count: 1
[DRAM_CYCLE_ERROR] Cycle-based error applied! address=0x600773fe0 additional_latency=2459910500 cycles
Simulation CPU 0 panic: IPC 4.7e-06 < 0.01
Simulation CPU 0 panic: IPC 2.85e-05 < 0.01
Simulation CPU 0 panic: IPC 2.12e-05 < 0.01
Simulation CPU 0 panic: IPC 9.6e-06 < 0.01
[ERROR_CYCLE] Error added at CPU cycle 4508963618, interval 97, pending count: 1
Simulation CPU 0 panic: IPC 1.24e-05 < 0.01
[DRAM_CYCLE_ERROR] Cycle-based error applied! address=0xb7cba93d8 additional_latency=2459910500 cycles
Simulation CPU 0 panic: IPC 4e-07 < 0.01
Simulation CPU 0 panic: IPC 1.1e-05 < 0.01
Simulation CPU 0 panic: IPC 6.9e-06 < 0.01
Simulation CPU 0 panic: IPC 9.9e-06 < 0.01
[ERROR_CYCLE] Error added at CPU cycle 4555447779, interval 98, pending count: 1
[DRAM_CYCLE_ERROR] Cycle-based error applied! address=0x82da0efc0 additional_latency=2459910500 cycles
Simulation CPU 0 panic: IPC 0 < 0.01
Simulation CPU 0 panic: IPC 2.5e-06 < 0.01
Simulation CPU 0 panic: IPC 9.6e-06 < 0.01
Simulation CPU 0 panic: IPC 1.19e-05 < 0.01
Simulation CPU 0 panic: IPC 1.39e-05 < 0.01
[ERROR_CYCLE] Error added at CPU cycle 4601931939, interval 99, pending count: 1
[DRAM_CYCLE_ERROR] Cycle-based error applied! address=0x43106dca0 additional_latency=2459910500 cycles
Simulation CPU 0 panic: IPC 4e-07 < 0.01
Simulation CPU 0 panic: IPC 2.09e-05 < 0.01
Simulation CPU 0 panic: IPC 5.3e-06 < 0.01
Simulation CPU 0 panic: IPC 9.6e-06 < 0.01
[ERROR_CYCLE] Error added at CPU cycle 4648416100, interval 100, pending count: 1
Simulation CPU 0 panic: IPC 1.25e-05 < 0.01
[DRAM_CYCLE_ERROR] Cycle-based error applied! address=0x40b68d890 additional_latency=2459910500 cycles
Simulation CPU 0 panic: IPC 4e-07 < 0.01
Simulation CPU 0 panic: IPC 9.2e-06 < 0.01
Simulation CPU 0 panic: IPC 2.37e-05 < 0.01
Simulation CPU 0 panic: IPC 2.36e-05 < 0.01
[ERROR_CYCLE] Error added at CPU cycle 4694900261, interval 101, pending count: 1
[DRAM_CYCLE_ERROR] Cycle-based error applied! address=0x13e0ce3d0 additional_latency=2459910500 cycles
Simulation CPU 0 panic: IPC 4e-07 < 0.01
Simulation CPU 0 panic: IPC 1.9e-06 < 0.01
Simulation CPU 0 panic: IPC 2.3e-06 < 0.01
Simulation CPU 0 panic: IPC 5.3e-06 < 0.01
Simulation CPU 0 panic: IPC 2.58e-05 < 0.01
[ERROR_CYCLE] Error added at CPU cycle 4741384422, interval 102, pending count: 1
[DRAM_CYCLE_ERROR] Cycle-based error applied! address=0xfed1735e0 additional_latency=2459910500 cycles
Simulation CPU 0 panic: IPC 4e-07 < 0.01
Simulation CPU 0 panic: IPC 2.14e-05 < 0.01
Simulation CPU 0 panic: IPC 2.33e-05 < 0.01
Simulation CPU 0 panic: IPC 1.93e-05 < 0.01
[ERROR_CYCLE] Error added at CPU cycle 4787868583, interval 103, pending count: 1
Simulation CPU 0 panic: IPC 1.88e-05 < 0.01
[DRAM_CYCLE_ERROR] Cycle-based error applied! address=0x8ffb95058 additional_latency=2459910500 cycles
Simulation CPU 0 panic: IPC 4.7e-06 < 0.01
Simulation CPU 0 panic: IPC 3.29e-05 < 0.01
Simulation CPU 0 panic: IPC 9.6e-06 < 0.01
Simulation CPU 0 panic: IPC 9.6e-06 < 0.01
[ERROR_CYCLE] Error added at CPU cycle 4834352744, interval 104, pending count: 1
[DRAM_CYCLE_ERROR] Cycle-based error applied! address=0x7d72f8150 additional_latency=2459910500 cycles
Simulation CPU 0 panic: IPC 9.4e-06 < 0.01
Simulation CPU 0 panic: IPC 1.67e-05 < 0.01
Simulation CPU 0 panic: IPC 1.64e-05 < 0.01
Simulation CPU 0 panic: IPC 3.13e-05 < 0.01
Simulation CPU 0 panic: IPC 2.36e-05 < 0.01
[ERROR_CYCLE] Error added at CPU cycle 4880836905, interval 105, pending count: 1
[DRAM_CYCLE_ERROR] Cycle-based error applied! address=0x7d72fc200 additional_latency=2459910500 cycles
Simulation CPU 0 panic: IPC 0 < 0.01
Simulation CPU 0 panic: IPC 9.9e-06 < 0.01
Simulation CPU 0 panic: IPC 2.13e-05 < 0.01
Simulation CPU 0 panic: IPC 7.1e-06 < 0.01
[ERROR_CYCLE] Error added at CPU cycle 4927321067, interval 106, pending count: 1
[DRAM_CYCLE_ERROR] Cycle-based error applied! address=0xdf2d01768 additional_latency=2459910500 cycles
Simulation CPU 0 panic: IPC 2.38e-05 < 0.01
Simulation CPU 0 panic: IPC 0 < 0.01
Simulation CPU 0 panic: IPC 5.25e-05 < 0.01
Simulation CPU 0 panic: IPC 2.3e-06 < 0.01
Simulation CPU 0 panic: IPC 1.7e-05 < 0.01
[ERROR_CYCLE] Error added at CPU cycle 4973805228, interval 107, pending count: 1
[DRAM_CYCLE_ERROR] Cycle-based error applied! address=0xdf2d05598 additional_latency=2459910500 cycles
Simulation CPU 0 panic: IPC 3.25e-05 < 0.01
Simulation CPU 0 panic: IPC 2.91e-05 < 0.01
Simulation CPU 0 panic: IPC 4.96e-05 < 0.01
Simulation CPU 0 panic: IPC 8.05e-05 < 0.01
Simulation CPU 0 panic: IPC 3.07e-05 < 0.01
[ERROR_CYCLE] Error added at CPU cycle 5020289389, interval 108, pending count: 1
[DRAM_CYCLE_ERROR] Cycle-based error applied! address=0xdf2d0a348 additional_latency=2459910500 cycles
Simulation CPU 0 panic: IPC 0 < 0.01
Simulation CPU 0 panic: IPC 7.36e-05 < 0.01
Simulation CPU 0 panic: IPC 0.0001648 < 0.01
Simulation CPU 0 panic: IPC 0.0001135 < 0.01
[ERROR_CYCLE] Error added at CPU cycle 5066773550, interval 109, pending count: 1
[DRAM_CYCLE_ERROR] Cycle-based error applied! address=0xdf2d0e1e0 additional_latency=2459910500 cycles
Simulation CPU 0 panic: IPC 2.43e-05 < 0.01
Simulation CPU 0 panic: IPC 0 < 0.01
Simulation CPU 0 panic: IPC 3.09e-05 < 0.01
Simulation CPU 0 panic: IPC 1.92e-05 < 0.01
Simulation CPU 0 panic: IPC 3.12e-05 < 0.01
[ERROR_CYCLE] Error added at CPU cycle 5113257710, interval 110, pending count: 1
[DRAM_CYCLE_ERROR] Cycle-based error applied! address=0xdf2d125d0 additional_latency=2459910500 cycles
Simulation CPU 0 panic: IPC 0.0001283 < 0.01
Simulation CPU 0 panic: IPC 2.5e-06 < 0.01
Simulation CPU 0 panic: IPC 1.83e-05 < 0.01
Simulation CPU 0 panic: IPC 1.63e-05 < 0.01
[ERROR_CYCLE] Error added at CPU cycle 5159741871, interval 111, pending count: 1
Simulation CPU 0 panic: IPC 5.45e-05 < 0.01
[DRAM_CYCLE_ERROR] Cycle-based error applied! address=0xdf2d163c8 additional_latency=2459910500 cycles
Simulation CPU 0 panic: IPC 0 < 0.01
Simulation CPU 0 panic: IPC 1.74e-05 < 0.01
Simulation CPU 0 panic: IPC 3.55e-05 < 0.01
Simulation CPU 0 panic: IPC 1.12e-05 < 0.01
[ERROR_CYCLE] Error added at CPU cycle 5206226032, interval 112, pending count: 1
[DRAM_CYCLE_ERROR] Cycle-based error applied! address=0xdf2d1a318 additional_latency=2459910500 cycles
Simulation CPU 0 panic: IPC 9.96e-05 < 0.01
Simulation CPU 0 panic: IPC 0 < 0.01
Simulation CPU 0 panic: IPC 3.51e-05 < 0.01
Simulation CPU 0 panic: IPC 9.4e-06 < 0.01
Simulation CPU 0 panic: IPC 4.29e-05 < 0.01
[ERROR_CYCLE] Error added at CPU cycle 5252710193, interval 113, pending count: 1
[DRAM_CYCLE_ERROR] Cycle-based error applied! address=0xdf2d1e798 additional_latency=2459910500 cycles
Simulation CPU 0 panic: IPC 0.0002013 < 0.01
Simulation CPU 0 panic: IPC 0 < 0.01
Simulation CPU 0 panic: IPC 9.22e-05 < 0.01
Simulation CPU 0 panic: IPC 5.3e-06 < 0.01
[ERROR_CYCLE] Error added at CPU cycle 5299194354, interval 114, pending count: 1
Simulation CPU 0 panic: IPC 4.03e-05 < 0.01
[DRAM_CYCLE_ERROR] Cycle-based error applied! address=0xdf2d22388 additional_latency=2459910500 cycles
Simulation CPU 0 panic: IPC 0 < 0.01
Simulation CPU 0 panic: IPC 1.6e-05 < 0.01
Simulation CPU 0 panic: IPC 2.85e-05 < 0.01
Simulation CPU 0 panic: IPC 4.93e-05 < 0.01
[ERROR_CYCLE] Error added at CPU cycle 5345678515, interval 115, pending count: 1
[DRAM_CYCLE_ERROR] Cycle-based error applied! address=0xdf2d262a8 additional_latency=2459910500 cycles
Simulation CPU 0 panic: IPC 4.85e-05 < 0.01
Simulation CPU 0 panic: IPC 0 < 0.01
Simulation CPU 0 panic: IPC 8.54e-05 < 0.01
Simulation CPU 0 panic: IPC 5.68e-05 < 0.01
Simulation CPU 0 panic: IPC 5.04e-05 < 0.01
[ERROR_CYCLE] Error added at CPU cycle 5392162676, interval 116, pending count: 1
[DRAM_CYCLE_ERROR] Cycle-based error applied! address=0xdf2d2a238 additional_latency=2459910500 cycles
Simulation CPU 0 panic: IPC 4e-05 < 0.01
Simulation CPU 0 panic: IPC 0 < 0.01
Simulation CPU 0 panic: IPC 0.0001168 < 0.01
Simulation CPU 0 panic: IPC 2.5e-06 < 0.01
[ERROR_CYCLE] Error added at CPU cycle 5438646838, interval 117, pending count: 1
Simulation CPU 0 panic: IPC 0.0001909 < 0.01
[DRAM_CYCLE_ERROR] Cycle-based error applied! address=0xdf2d2e750 additional_latency=2459910500 cycles
Simulation CPU 0 panic: IPC 0 < 0.01
Simulation CPU 0 panic: IPC 9.9e-06 < 0.01
Simulation CPU 0 panic: IPC 0.0001807 < 0.01
Simulation CPU 0 panic: IPC 0.0001314 < 0.01
[ERROR_CYCLE] Error added at CPU cycle 5485130999, interval 118, pending count: 1
[DRAM_CYCLE_ERROR] Cycle-based error applied! address=0x53c9e4c60 additional_latency=2459910500 cycles
Simulation CPU 0 panic: IPC 0 < 0.01
Simulation CPU 0 panic: IPC 0.0001063 < 0.01
Simulation CPU 0 panic: IPC 0.0001095 < 0.01
Simulation CPU 0 panic: IPC 7.85e-05 < 0.01
Simulation CPU 0 panic: IPC 0.0001402 < 0.01
[ERROR_CYCLE] Error added at CPU cycle 5531615160, interval 119, pending count: 1
[DRAM_CYCLE_ERROR] Cycle-based error applied! address=0xe96456ab8 additional_latency=2459910500 cycles
Simulation CPU 0 panic: IPC 4e-07 < 0.01
Simulation CPU 0 panic: IPC 0.0001557 < 0.01
Simulation CPU 0 panic: IPC 0.0001679 < 0.01
Simulation CPU 0 panic: IPC 0.0002038 < 0.01
[ERROR_CYCLE] Error added at CPU cycle 5578099321, interval 120, pending count: 1
[DRAM_CYCLE_ERROR] Cycle-based error applied! address=0xffbabda08 additional_latency=2459910500 cycles
Simulation CPU 0 panic: IPC 4e-07 < 0.01
Simulation CPU 0 panic: IPC 3.37e-05 < 0.01
Simulation CPU 0 panic: IPC 0.0004179 < 0.01
Simulation CPU 0 panic: IPC 0.0002767 < 0.01
Simulation CPU 0 panic: IPC 0.0002127 < 0.01
[ERROR_CYCLE] Error added at CPU cycle 5624583481, interval 121, pending count: 1
[DRAM_CYCLE_ERROR] Cycle-based error applied! address=0xc303e3e68 additional_latency=2459910500 cycles
Simulation CPU 0 panic: IPC 4e-07 < 0.01
Simulation CPU 0 panic: IPC 0.0009851 < 0.01
Simulation CPU 0 panic: IPC 0.0002115 < 0.01
Simulation CPU 0 panic: IPC 5.75e-05 < 0.01
Simulation CPU 0 panic: IPC 0.0001402 < 0.01
[ERROR_CYCLE] Error added at CPU cycle 5671067642, interval 122, pending count: 1
[DRAM_CYCLE_ERROR] Cycle-based error applied! address=0x55fb01508 additional_latency=2459910500 cycles
Simulation CPU 0 panic: IPC 4e-07 < 0.01
Simulation CPU 0 panic: IPC 1.2e-05 < 0.01
Simulation CPU 0 panic: IPC 0.0006533 < 0.01
Simulation CPU 0 panic: IPC 0.0002484 < 0.01
[ERROR_CYCLE] Error added at CPU cycle 5717551803, interval 123, pending count: 1
[DRAM_CYCLE_ERROR] Cycle-based error applied! address=0x132d0a30 additional_latency=2459910500 cycles
Simulation CPU 0 panic: IPC 0.0001172 < 0.01
Simulation CPU 0 panic: IPC 1.58e-05 < 0.01
Simulation CPU 0 panic: IPC 2.41e-05 < 0.01
Simulation CPU 0 panic: IPC 3.78e-05 < 0.01
Simulation CPU 0 panic: IPC 5.17e-05 < 0.01
[ERROR_CYCLE] Error added at CPU cycle 5764035964, interval 124, pending count: 1
[DRAM_CYCLE_ERROR] Cycle-based error applied! address=0xb71607330 additional_latency=2459910500 cycles
Simulation CPU 0 panic: IPC 4e-07 < 0.01
Simulation CPU 0 panic: IPC 4.91e-05 < 0.01
Simulation CPU 0 panic: IPC 0.0002053 < 0.01
Simulation CPU 0 panic: IPC 0.0003816 < 0.01
Simulation CPU 0 panic: IPC 0.0003535 < 0.01
[ERROR_CYCLE] Error added at CPU cycle 5810520125, interval 125, pending count: 1
[DRAM_CYCLE_ERROR] Cycle-based error applied! address=0x8cf4ae48 additional_latency=2459910500 cycles
Simulation CPU 0 panic: IPC 4e-07 < 0.01
Simulation CPU 0 panic: IPC 0.0001451 < 0.01
Simulation CPU 0 panic: IPC 0.0001065 < 0.01
Simulation CPU 0 panic: IPC 0.0006812 < 0.01
[ERROR_CYCLE] Error added at CPU cycle 5857004286, interval 126, pending count: 1
[DRAM_CYCLE_ERROR] Cycle-based error applied! address=0xa9330a1b8 additional_latency=2459910500 cycles
Simulation CPU 0 panic: IPC 3.96e-05 < 0.01
Simulation CPU 0 panic: IPC 0.0001518 < 0.01
Simulation CPU 0 panic: IPC 0.0003459 < 0.01
Simulation CPU 0 panic: IPC 1.39e-05 < 0.01
Simulation CPU 0 panic: IPC 0.0004057 < 0.01
[ERROR_CYCLE] Error added at CPU cycle 5903488448, interval 127, pending count: 1
[DRAM_CYCLE_ERROR] Cycle-based error applied! address=0xcbdda3fd8 additional_latency=2459910500 cycles
Simulation CPU 0 panic: IPC 4e-07 < 0.01
Simulation CPU 0 panic: IPC 3.08e-05 < 0.01
Simulation CPU 0 panic: IPC 1.88e-05 < 0.01
Simulation CPU 0 panic: IPC 1.14e-05 < 0.01
[ERROR_CYCLE] Error added at CPU cycle 5949972609, interval 128, pending count: 1
Simulation CPU 0 panic: IPC 0.000274 < 0.01
[DRAM_CYCLE_ERROR] Cycle-based error applied! address=0x2ee6ffc38 additional_latency=2459910500 cycles
Simulation CPU 0 panic: IPC 4e-07 < 0.01
Simulation CPU 0 panic: IPC 9.63e-05 < 0.01
Simulation CPU 0 panic: IPC 0.0001446 < 0.01
Simulation CPU 0 panic: IPC 0.0001925 < 0.01
[ERROR_CYCLE] Error added at CPU cycle 5996456770, interval 129, pending count: 1
Simulation CPU 0 panic: IPC 0.0002117 < 0.01
[DRAM_CYCLE_ERROR] Cycle-based error applied! address=0x3917307f0 additional_latency=2459910500 cycles
Simulation CPU 0 panic: IPC 4e-07 < 0.01
Simulation CPU 0 panic: IPC 0.0011541 < 0.01
Simulation CPU 0 panic: IPC 0.000161 < 0.01
Simulation CPU 0 panic: IPC 0.0001234 < 0.01
[ERROR_CYCLE] Error added at CPU cycle 6042940931, interval 130, pending count: 1
[DRAM_CYCLE_ERROR] Cycle-based error applied! address=0x86186880 additional_latency=2459910500 cycles
Simulation CPU 0 panic: IPC 0 < 0.01
Simulation CPU 0 panic: IPC 0.0001119 < 0.01
Simulation CPU 0 panic: IPC 7.83e-05 < 0.01
Simulation CPU 0 panic: IPC 0.0006044 < 0.01
[ERROR_CYCLE] Error added at CPU cycle 6089425092, interval 131, pending count: 1
Simulation CPU 0 panic: IPC 1.49e-05 < 0.01
[DRAM_CYCLE_ERROR] Cycle-based error applied! address=0xbc4ff81c8 additional_latency=2459910500 cycles
Simulation CPU 0 panic: IPC 4e-07 < 0.01
Simulation CPU 0 panic: IPC 0.0003008 < 0.01
Simulation CPU 0 panic: IPC 0.0002754 < 0.01
Simulation CPU 0 panic: IPC 5.3e-06 < 0.01
[ERROR_CYCLE] Error added at CPU cycle 6135909252, interval 132, pending count: 1
[DRAM_CYCLE_ERROR] Cycle-based error applied! address=0xdf2d6c5a8 additional_latency=2459910500 cycles
Simulation CPU 0 panic: IPC 0.0002784 < 0.01
Simulation CPU 0 panic: IPC 0 < 0.01
Simulation CPU 0 panic: IPC 0.000492 < 0.01
Simulation CPU 0 panic: IPC 0.0006179 < 0.01
Simulation CPU 0 panic: IPC 1.62e-05 < 0.01
[ERROR_CYCLE] Error added at CPU cycle 6182393413, interval 133, pending count: 1
[DRAM_CYCLE_ERROR] Cycle-based error applied! address=0xdf2d703e0 additional_latency=2459910500 cycles
Simulation CPU 0 panic: IPC 0 < 0.01
Simulation CPU 0 panic: IPC 0.000624 < 0.01
Simulation CPU 0 panic: IPC 0.0004406 < 0.01
Simulation CPU 0 panic: IPC 0.0002682 < 0.01
[ERROR_CYCLE] Error added at CPU cycle 6228877574, interval 134, pending count: 1
[DRAM_CYCLE_ERROR] Cycle-based error applied! address=0xdf2d74dd8 additional_latency=2459910500 cycles
Simulation CPU 0 panic: IPC 0.0004035 < 0.01
Simulation CPU 0 panic: IPC 0 < 0.01
Simulation CPU 0 panic: IPC 0.0007626 < 0.01
Simulation CPU 0 panic: IPC 0.0001954 < 0.01
Simulation CPU 0 panic: IPC 4.92e-05 < 0.01
[ERROR_CYCLE] Error added at CPU cycle 6275361735, interval 135, pending count: 1
[DRAM_CYCLE_ERROR] Cycle-based error applied! address=0xdf2d78f28 additional_latency=2459910500 cycles
Simulation CPU 0 panic: IPC 0.0002524 < 0.01
Simulation CPU 0 panic: IPC 0 < 0.01
Simulation CPU 0 panic: IPC 8.73e-05 < 0.01
Simulation CPU 0 panic: IPC 0.0004392 < 0.01
Simulation CPU 0 panic: IPC 0.0002578 < 0.01
[ERROR_CYCLE] Error added at CPU cycle 6321845896, interval 136, pending count: 1
[DRAM_CYCLE_ERROR] Cycle-based error applied! address=0xdf2d7c720 additional_latency=2459910500 cycles
Simulation CPU 0 panic: IPC 0 < 0.01
Simulation CPU 0 panic: IPC 0.0002692 < 0.01
Simulation CPU 0 panic: IPC 5.2e-05 < 0.01
Simulation CPU 0 panic: IPC 2.56e-05 < 0.01
[ERROR_CYCLE] Error added at CPU cycle 6368330057, interval 137, pending count: 1
Simulation CPU 0 panic: IPC 0.0006772 < 0.01
[DRAM_CYCLE_ERROR] Cycle-based error applied! address=0xdf2d805f0 additional_latency=2459910500 cycles
Simulation CPU 0 panic: IPC 0 < 0.01
Simulation CPU 0 panic: IPC 6.41e-05 < 0.01
Simulation CPU 0 panic: IPC 7.36e-05 < 0.01
Simulation CPU 0 panic: IPC 0.0001944 < 0.01
[ERROR_CYCLE] Error added at CPU cycle 6414814219, interval 138, pending count: 1
[DRAM_CYCLE_ERROR] Cycle-based error applied! address=0xdf2d84ec8 additional_latency=2459910500 cycles
Simulation CPU 0 panic: IPC 7.32e-05 < 0.01
Simulation CPU 0 panic: IPC 0 < 0.01
Simulation CPU 0 panic: IPC 0.0009355 < 0.01
Simulation CPU 0 panic: IPC 0.0004862 < 0.01
Simulation CPU 0 panic: IPC 0.0016742 < 0.01
[ERROR_CYCLE] Error added at CPU cycle 6461298380, interval 139, pending count: 1
[DRAM_CYCLE_ERROR] Cycle-based error applied! address=0xdf2d88690 additional_latency=2459910500 cycles
Simulation CPU 0 panic: IPC 0 < 0.01
Simulation CPU 0 panic: IPC 0.0002276 < 0.01
Simulation CPU 0 panic: IPC 0.0006109 < 0.01
Simulation CPU 0 panic: IPC 0.0003269 < 0.01
[ERROR_CYCLE] Error added at CPU cycle 6507782541, interval 140, pending count: 1
Simulation CPU 0 panic: IPC 0.0001231 < 0.01
[DRAM_CYCLE_ERROR] Cycle-based error applied! address=0xdf2d8c0e0 additional_latency=2459910500 cycles
Simulation CPU 0 panic: IPC 0 < 0.01
Simulation CPU 0 panic: IPC 5.91e-05 < 0.01
Simulation CPU 0 panic: IPC 0.0001871 < 0.01
Simulation CPU 0 panic: IPC 0.0003582 < 0.01
[ERROR_CYCLE] Error added at CPU cycle 6554266702, interval 141, pending count: 1
[DRAM_CYCLE_ERROR] Cycle-based error applied! address=0xdf2d90db8 additional_latency=2459910500 cycles
Simulation CPU 0 panic: IPC 2.36e-05 < 0.01
Simulation CPU 0 panic: IPC 0 < 0.01
Simulation CPU 0 panic: IPC 0.0008499 < 0.01
Simulation CPU 0 panic: IPC 4.06e-05 < 0.01
Simulation CPU 0 panic: IPC 5.74e-05 < 0.01
[ERROR_CYCLE] Error added at CPU cycle 6600750863, interval 142, pending count: 1
[DRAM_CYCLE_ERROR] Cycle-based error applied! address=0xdf2d94e80 additional_latency=2459910500 cycles
Simulation CPU 0 panic: IPC 0.0001566 < 0.01
Simulation CPU 0 panic: IPC 0.0006001 < 0.01
Simulation CPU 0 panic: IPC 5.69e-05 < 0.01
Simulation CPU 0 panic: IPC 9.01e-05 < 0.01
[ERROR_CYCLE] Error added at CPU cycle 6647235023, interval 143, pending count: 1
Simulation CPU 0 panic: IPC 0.0001665 < 0.01
[DRAM_CYCLE_ERROR] Cycle-based error applied! address=0xdf2d98550 additional_latency=2459910500 cycles
Simulation CPU 0 panic: IPC 0 < 0.01
Simulation CPU 0 panic: IPC 0.0002031 < 0.01
Simulation CPU 0 panic: IPC 0.0001226 < 0.01
Simulation CPU 0 panic: IPC 0.0004496 < 0.01
[ERROR_CYCLE] Error added at CPU cycle 6693719184, interval 144, pending count: 1
[DRAM_CYCLE_ERROR] Cycle-based error applied! address=0xdf2d9cd80 additional_latency=2459910500 cycles
Simulation CPU 0 panic: IPC 2.38e-05 < 0.01
Simulation CPU 0 panic: IPC 0 < 0.01
Simulation CPU 0 panic: IPC 0.0011129 < 0.01
Simulation CPU 0 panic: IPC 0.000271 < 0.01
Simulation CPU 0 panic: IPC 0.0003288 < 0.01
[ERROR_CYCLE] Error added at CPU cycle 6740203345, interval 145, pending count: 1
[DRAM_CYCLE_ERROR] Cycle-based error applied! address=0x64c992b08 additional_latency=2459910500 cycles
Simulation CPU 0 panic: IPC 4e-07 < 0.01
Simulation CPU 0 panic: IPC 0.0007473 < 0.01
Simulation CPU 0 panic: IPC 0.0004635 < 0.01
Simulation CPU 0 panic: IPC 1.21e-05 < 0.01
[ERROR_CYCLE] Error added at CPU cycle 6786687506, interval 146, pending count: 1
[DRAM_CYCLE_ERROR] Cycle-based error applied! address=0x77c5367d0 additional_latency=2459910500 cycles
Simulation CPU 0 panic: IPC 0 < 0.01
Simulation CPU 0 panic: IPC 0.0017167 < 0.01
Simulation CPU 0 panic: IPC 0.0001702 < 0.01
Simulation CPU 0 panic: IPC 0.0010633 < 0.01
Simulation CPU 0 panic: IPC 9.7e-05 < 0.01
[ERROR_CYCLE] Error added at CPU cycle 6833171667, interval 147, pending count: 1
[DRAM_CYCLE_ERROR] Cycle-based error applied! address=0xed891b660 additional_latency=2459910500 cycles
Simulation CPU 0 panic: IPC 0 < 0.01
Simulation CPU 0 panic: IPC 0.0004995 < 0.01
Simulation CPU 0 panic: IPC 4.22e-05 < 0.01
Simulation CPU 0 panic: IPC 0.0020236 < 0.01
[ERROR_CYCLE] Error added at CPU cycle 6879655828, interval 148, pending count: 1
Simulation CPU 0 panic: IPC 0.0004137 < 0.01
[DRAM_CYCLE_ERROR] Cycle-based error applied! address=0x64b6953a8 additional_latency=2459910500 cycles
Simulation CPU 0 panic: IPC 4e-07 < 0.01
Simulation CPU 0 panic: IPC 0.0002725 < 0.01
Simulation CPU 0 panic: IPC 0.0040989 < 0.01
Simulation CPU 0 panic: IPC 0.0008909 < 0.01
[ERROR_CYCLE] Error added at CPU cycle 6926139990, interval 149, pending count: 1
[DRAM_CYCLE_ERROR] Cycle-based error applied! address=0xfa15232e8 additional_latency=2459910500 cycles
Simulation CPU 0 panic: IPC 4e-07 < 0.01
Simulation CPU 0 panic: IPC 0.0007021 < 0.01
Simulation CPU 0 panic: IPC 0.0002011 < 0.01
Simulation CPU 0 panic: IPC 8.12e-05 < 0.01
Simulation CPU 0 panic: IPC 0.0003724 < 0.01
[ERROR_CYCLE] Error added at CPU cycle 6972624151, interval 150, pending count: 1
[DRAM_CYCLE_ERROR] Cycle-based error applied! address=0x2988c00a0 additional_latency=2459910500 cycles
Simulation CPU 0 panic: IPC 0 < 0.01
Simulation CPU 0 panic: IPC 0.0004801 < 0.01
Simulation CPU 0 panic: IPC 0.0005158 < 0.01
Simulation CPU 0 panic: IPC 6.88e-05 < 0.01
[ERROR_CYCLE] Error added at CPU cycle 7019108312, interval 151, pending count: 1
Simulation CPU 0 panic: IPC 0.0004272 < 0.01
[DRAM_CYCLE_ERROR] Cycle-based error applied! address=0x3ff7c73a8 additional_latency=2459910500 cycles
Simulation CPU 0 panic: IPC 0 < 0.01
Simulation CPU 0 panic: IPC 4.98e-05 < 0.01
Simulation CPU 0 panic: IPC 0.0019386 < 0.01
Simulation CPU 0 panic: IPC 0.0017789 < 0.01
[ERROR_CYCLE] Error added at CPU cycle 7065592473, interval 152, pending count: 1
[DRAM_CYCLE_ERROR] Cycle-based error applied! address=0x67a6a16f0 additional_latency=2459910500 cycles
Simulation CPU 0 panic: IPC 4e-07 < 0.01
Simulation CPU 0 panic: IPC 7.49e-05 < 0.01
Simulation CPU 0 panic: IPC 0.000909 < 0.01
Simulation CPU 0 panic: IPC 0.0023565 < 0.01
Simulation CPU 0 panic: IPC 2.31e-05 < 0.01
[ERROR_CYCLE] Error added at CPU cycle 7112076634, interval 153, pending count: 1
[DRAM_CYCLE_ERROR] Cycle-based error applied! address=0x70663b268 additional_latency=2459910500 cycles
Simulation CPU 0 panic: IPC 0 < 0.01
Simulation CPU 0 panic: IPC 0.0017323 < 0.01
Simulation CPU 0 panic: IPC 0.0008731 < 0.01
Simulation CPU 0 panic: IPC 0.0003639 < 0.01
[ERROR_CYCLE] Error added at CPU cycle 7158560794, interval 154, pending count: 1
Simulation CPU 0 panic: IPC 0.0002037 < 0.01
[DRAM_CYCLE_ERROR] Cycle-based error applied! address=0x8ef9857e0 additional_latency=2459910500 cycles
Simulation CPU 0 panic: IPC 0 < 0.01
Simulation CPU 0 panic: IPC 0.0004434 < 0.01
Simulation CPU 0 panic: IPC 0.0003872 < 0.01
Simulation CPU 0 panic: IPC 0.0010376 < 0.01
[ERROR_CYCLE] Error added at CPU cycle 7205044955, interval 155, pending count: 1
[DRAM_CYCLE_ERROR] Cycle-based error applied! address=0xf6fbc4900 additional_latency=2459910500 cycles
Simulation CPU 0 panic: IPC 0.0003176 < 0.01
Simulation CPU 0 panic: IPC 0.0002075 < 0.01
Simulation CPU 0 panic: IPC 0.001792 < 0.01
Simulation CPU 0 panic: IPC 0.0015962 < 0.01
Simulation CPU 0 panic: IPC 0.000826 < 0.01
[ERROR_CYCLE] Error added at CPU cycle 7251529116, interval 156, pending count: 1
[DRAM_CYCLE_ERROR] Cycle-based error applied! address=0xdf2dcbcf0 additional_latency=2459910500 cycles
Simulation CPU 0 panic: IPC 0 < 0.01
Simulation CPU 0 panic: IPC 0.0010144 < 0.01
Simulation CPU 0 panic: IPC 0.0014461 < 0.01
Simulation CPU 0 panic: IPC 0.0032179 < 0.01
[ERROR_CYCLE] Error added at CPU cycle 7298013277, interval 157, pending count: 1
[DRAM_CYCLE_ERROR] Cycle-based error applied! address=0xdf2dcfec0 additional_latency=2459910500 cycles
Simulation CPU 0 panic: IPC 0.0002517 < 0.01
Simulation CPU 0 panic: IPC 0 < 0.01
Simulation CPU 0 panic: IPC 0.0011276 < 0.01
Simulation CPU 0 panic: IPC 0.0011061 < 0.01
Simulation CPU 0 panic: IPC 0.0001502 < 0.01
[ERROR_CYCLE] Error added at CPU cycle 7344497438, interval 158, pending count: 1
[DRAM_CYCLE_ERROR] Cycle-based error applied! address=0xdf2dd3cd0 additional_latency=2459910500 cycles
Simulation CPU 0 panic: IPC 0.0002236 < 0.01
Simulation CPU 0 panic: IPC 0 < 0.01
Simulation CPU 0 panic: IPC 0.005502 < 0.01
Simulation CPU 0 warning: IPC 0.043762 < 0.05
Heartbeat CPU 0 instructions: 20000002 cycles: 7386669038 heartbeat IPC: 0.003159 cumulative IPC: 0.002708 (Simulation time: 10 hr 30 min 19 sec)
[ERROR_CYCLE] Error added at CPU cycle 7390981599, interval 159, pending count: 1
[DRAM_CYCLE_ERROR] Cycle-based error applied! address=0xdf2dd64d8 additional_latency=2459910500 cycles
Simulation CPU 0 panic: IPC 0 < 0.01
Simulation CPU 0 panic: IPC 2e-07 < 0.01
Simulation CPU 0 panic: IPC 1.3e-06 < 0.01
Simulation CPU 0 panic: IPC 4.3e-06 < 0.01
[ERROR_CYCLE] Error added at CPU cycle 7437465761, interval 160, pending count: 1
Simulation CPU 0 panic: IPC 2e-07 < 0.01
[DRAM_CYCLE_ERROR] Cycle-based error applied! address=0xdf2ddab70 additional_latency=2459910500 cycles
Simulation CPU 0 panic: IPC 0 < 0.01
Simulation CPU 0 panic: IPC 1.2e-06 < 0.01
Simulation CPU 0 panic: IPC 2.5e-06 < 0.01
Simulation CPU 0 panic: IPC 1.2e-05 < 0.01
[ERROR_CYCLE] Error added at CPU cycle 7483949922, interval 161, pending count: 1
[DRAM_CYCLE_ERROR] Cycle-based error applied! address=0xdf2de0c78 additional_latency=2459910500 cycles
Simulation CPU 0 panic: IPC 1.1e-05 < 0.01
Simulation CPU 0 panic: IPC 0 < 0.01
Simulation CPU 0 panic: IPC 4.6e-06 < 0.01
Simulation CPU 0 panic: IPC 5.1e-06 < 0.01
Simulation CPU 0 panic: IPC 6.8e-06 < 0.01
[ERROR_CYCLE] Error added at CPU cycle 7530434083, interval 162, pending count: 1
[DRAM_CYCLE_ERROR] Cycle-based error applied! address=0xdf2de4f68 additional_latency=2459910500 cycles
Simulation CPU 0 panic: IPC 8.7e-06 < 0.01
Simulation CPU 0 panic: IPC 1.12e-05 < 0.01
Simulation CPU 0 panic: IPC 1.8e-06 < 0.01
Simulation CPU 0 panic: IPC 1.66e-05 < 0.01
[ERROR_CYCLE] Error added at CPU cycle 7576918244, interval 163, pending count: 1
[DRAM_CYCLE_ERROR] Cycle-based error applied! address=0x196c0eea8 additional_latency=2459910500 cycles
Simulation CPU 0 panic: IPC 0 < 0.01
Simulation CPU 0 panic: IPC 6.6e-06 < 0.01
Simulation CPU 0 panic: IPC 2.1e-06 < 0.01
Simulation CPU 0 panic: IPC 4.3e-06 < 0.01
Simulation CPU 0 panic: IPC 1.51e-05 < 0.01
[ERROR_CYCLE] Error added at CPU cycle 7623402405, interval 164, pending count: 1
[DRAM_CYCLE_ERROR] Cycle-based error applied! address=0xb13307188 additional_latency=2459910500 cycles
Simulation CPU 0 panic: IPC 2.8e-06 < 0.01
Simulation CPU 0 panic: IPC 1.11e-05 < 0.01
Simulation CPU 0 panic: IPC 8.9e-06 < 0.01
Simulation CPU 0 panic: IPC 1.04e-05 < 0.01
[ERROR_CYCLE] Error added at CPU cycle 7669886565, interval 165, pending count: 1
Simulation CPU 0 panic: IPC 2.33e-05 < 0.01
[DRAM_CYCLE_ERROR] Cycle-based error applied! address=0x1df4a8890 additional_latency=2459910500 cycles
Simulation CPU 0 panic: IPC 0 < 0.01
Simulation CPU 0 panic: IPC 3.8e-05 < 0.01
Simulation CPU 0 panic: IPC 3.95e-05 < 0.01
Simulation CPU 0 panic: IPC 1.71e-05 < 0.01
[ERROR_CYCLE] Error added at CPU cycle 7716370726, interval 166, pending count: 1
[DRAM_CYCLE_ERROR] Cycle-based error applied! address=0x9e762df70 additional_latency=2459910500 cycles
Simulation CPU 0 panic: IPC 0 < 0.01
Simulation CPU 0 panic: IPC 6.8e-06 < 0.01
Simulation CPU 0 panic: IPC 3.27e-05 < 0.01
Simulation CPU 0 panic: IPC 4.3e-06 < 0.01
Simulation CPU 0 panic: IPC 2.14e-05 < 0.01
[ERROR_CYCLE] Error added at CPU cycle 7762854887, interval 167, pending count: 1
[DRAM_CYCLE_ERROR] Cycle-based error applied! address=0xf032a65a8 additional_latency=2459910500 cycles
Simulation CPU 0 panic: IPC 0 < 0.01
Simulation CPU 0 panic: IPC 4.3e-06 < 0.01
Simulation CPU 0 panic: IPC 2.76e-05 < 0.01
Simulation CPU 0 panic: IPC 7.9e-05 < 0.01
[ERROR_CYCLE] Error added at CPU cycle 7809339048, interval 168, pending count: 1
Simulation CPU 0 panic: IPC 4.05e-05 < 0.01
[DRAM_CYCLE_ERROR] Cycle-based error applied! address=0xb25712ef0 additional_latency=2459910500 cycles
Simulation CPU 0 panic: IPC 4e-07 < 0.01
Simulation CPU 0 panic: IPC 7.13e-05 < 0.01
Simulation CPU 0 panic: IPC 8.59e-05 < 0.01
Simulation CPU 0 panic: IPC 3.5e-05 < 0.01
[ERROR_CYCLE] Error added at CPU cycle 7855823209, interval 169, pending count: 1
[DRAM_CYCLE_ERROR] Cycle-based error applied! address=0x992882240 additional_latency=2459910500 cycles
Simulation CPU 0 panic: IPC 0 < 0.01
Simulation CPU 0 panic: IPC 1.1e-05 < 0.01
Simulation CPU 0 panic: IPC 2.94e-05 < 0.01
Simulation CPU 0 panic: IPC 3.97e-05 < 0.01
Simulation CPU 0 panic: IPC 2.45e-05 < 0.01
[ERROR_CYCLE] Error added at CPU cycle 7902307370, interval 170, pending count: 1
[DRAM_CYCLE_ERROR] Cycle-based error applied! address=0xfab43dda0 additional_latency=2459910500 cycles
Simulation CPU 0 panic: IPC 4e-07 < 0.01
Simulation CPU 0 panic: IPC 0.0001001 < 0.01
Simulation CPU 0 panic: IPC 1.17e-05 < 0.01
Simulation CPU 0 panic: IPC 3.17e-05 < 0.01
[ERROR_CYCLE] Error added at CPU cycle 7948791532, interval 171, pending count: 1
Simulation CPU 0 panic: IPC 0.0001939 < 0.01
[DRAM_CYCLE_ERROR] Cycle-based error applied! address=0x49c2000f0 additional_latency=2459910500 cycles
Simulation CPU 0 panic: IPC 4e-07 < 0.01
Simulation CPU 0 panic: IPC 3.9e-06 < 0.01
Simulation CPU 0 panic: IPC 0.0001479 < 0.01
Simulation CPU 0 panic: IPC 0.0003488 < 0.01
[ERROR_CYCLE] Error added at CPU cycle 7995275693, interval 172, pending count: 1
[DRAM_CYCLE_ERROR] Cycle-based error applied! address=0x9d6329250 additional_latency=2459910500 cycles
Simulation CPU 0 panic: IPC 4e-07 < 0.01
Simulation CPU 0 panic: IPC 4.18e-05 < 0.01
Simulation CPU 0 panic: IPC 4.13e-05 < 0.01
Simulation CPU 0 panic: IPC 7.77e-05 < 0.01
Simulation CPU 0 panic: IPC 8.14e-05 < 0.01
[ERROR_CYCLE] Error added at CPU cycle 8041759854, interval 173, pending count: 1
[DRAM_CYCLE_ERROR] Cycle-based error applied! address=0x7eea42358 additional_latency=2459910500 cycles
Simulation CPU 0 panic: IPC 0 < 0.01
Simulation CPU 0 panic: IPC 3.89e-05 < 0.01
Simulation CPU 0 panic: IPC 5.57e-05 < 0.01
Simulation CPU 0 panic: IPC 0.0001569 < 0.01
[ERROR_CYCLE] Error added at CPU cycle 8088244015, interval 174, pending count: 1
Simulation CPU 0 panic: IPC 1.96e-05 < 0.01
[DRAM_CYCLE_ERROR] Cycle-based error applied! address=0x997ce16c8 additional_latency=2459910500 cycles
Simulation CPU 0 panic: IPC 0 < 0.01
Simulation CPU 0 panic: IPC 0.0001126 < 0.01
Simulation CPU 0 panic: IPC 0.0001277 < 0.01
Simulation CPU 0 panic: IPC 0.0002619 < 0.01
[ERROR_CYCLE] Error added at CPU cycle 8134728176, interval 175, pending count: 1
[DRAM_CYCLE_ERROR] Cycle-based error applied! address=0xd936f68d8 additional_latency=2459910500 cycles
Simulation CPU 0 panic: IPC 0 < 0.01
Simulation CPU 0 panic: IPC 3.95e-05 < 0.01
Simulation CPU 0 panic: IPC 0.0001695 < 0.01
Simulation CPU 0 panic: IPC 0.0001111 < 0.01
Simulation CPU 0 panic: IPC 4.78e-05 < 0.01
[ERROR_CYCLE] Error added at CPU cycle 8181212336, interval 176, pending count: 1
[DRAM_CYCLE_ERROR] Cycle-based error applied! address=0x2b0dffcf8 additional_latency=2459910500 cycles
Simulation CPU 0 panic: IPC 0 < 0.01
Simulation CPU 0 panic: IPC 0.0001252 < 0.01
Simulation CPU 0 panic: IPC 0.0006067 < 0.01
Simulation CPU 0 panic: IPC 0.00024 < 0.01
[ERROR_CYCLE] Error added at CPU cycle 8227696497, interval 177, pending count: 1
[DRAM_CYCLE_ERROR] Cycle-based error applied! address=0x83b025680 additional_latency=2459910500 cycles
Simulation CPU 0 panic: IPC 2.17e-05 < 0.01
Simulation CPU 0 panic: IPC 0 < 0.01
Simulation CPU 0 panic: IPC 1.62e-05 < 0.01
Simulation CPU 0 panic: IPC 7.3e-05 < 0.01
Simulation CPU 0 panic: IPC 0.0005032 < 0.01
[ERROR_CYCLE] Error added at CPU cycle 8274180658, interval 178, pending count: 1
[DRAM_CYCLE_ERROR] Cycle-based error applied! address=0x83b029078 additional_latency=2459910500 cycles
Simulation CPU 0 panic: IPC 0 < 0.01
Simulation CPU 0 panic: IPC 2.04e-05 < 0.01
Simulation CPU 0 panic: IPC 4.33e-05 < 0.01
Simulation CPU 0 panic: IPC 0.0001348 < 0.01
Simulation CPU 0 panic: IPC 7.92e-05 < 0.01
[ERROR_CYCLE] Error added at CPU cycle 8320664819, interval 179, pending count: 1
[DRAM_CYCLE_ERROR] Cycle-based error applied! address=0x83b02d828 additional_latency=2459910500 cycles
Simulation CPU 0 panic: IPC 0 < 0.01
Simulation CPU 0 panic: IPC 8.1e-05 < 0.01
Simulation CPU 0 panic: IPC 2.71e-05 < 0.01
Simulation CPU 0 panic: IPC 0.0001261 < 0.01
[ERROR_CYCLE] Error added at CPU cycle 8367148980, interval 180, pending count: 1
[DRAM_CYCLE_ERROR] Cycle-based error applied! address=0x83b031ad0 additional_latency=2459910500 cycles
Simulation CPU 0 panic: IPC 2.67e-05 < 0.01
Simulation CPU 0 panic: IPC 0 < 0.01
Simulation CPU 0 panic: IPC 6.01e-05 < 0.01
Simulation CPU 0 panic: IPC 1.54e-05 < 0.01
Simulation CPU 0 panic: IPC 2.63e-05 < 0.01
[ERROR_CYCLE] Error added at CPU cycle 8413633141, interval 181, pending count: 1
[DRAM_CYCLE_ERROR] Cycle-based error applied! address=0x83b035398 additional_latency=2459910500 cycles
Simulation CPU 0 panic: IPC 5.7e-06 < 0.01
Simulation CPU 0 panic: IPC 0.0001868 < 0.01
Simulation CPU 0 panic: IPC 2.55e-05 < 0.01
Simulation CPU 0 panic: IPC 1.31e-05 < 0.01
Simulation CPU 0 panic: IPC 0.0004005 < 0.01
[ERROR_CYCLE] Error added at CPU cycle 8460117303, interval 182, pending count: 1
[DRAM_CYCLE_ERROR] Cycle-based error applied! address=0x83b039028 additional_latency=2459910500 cycles
Simulation CPU 0 panic: IPC 0 < 0.01
Simulation CPU 0 panic: IPC 0.0001294 < 0.01
Simulation CPU 0 panic: IPC 7.55e-05 < 0.01
Simulation CPU 0 panic: IPC 0.00038 < 0.01
[ERROR_CYCLE] Error added at CPU cycle 8506601464, interval 183, pending count: 1
[DRAM_CYCLE_ERROR] Cycle-based error applied! address=0x83b03dd40 additional_latency=2459910500 cycles
Simulation CPU 0 panic: IPC 5.57e-05 < 0.01
Simulation CPU 0 panic: IPC 0 < 0.01
Simulation CPU 0 panic: IPC 0.0001482 < 0.01
Simulation CPU 0 panic: IPC 4.92e-05 < 0.01
Simulation CPU 0 panic: IPC 0.0005786 < 0.01
[ERROR_CYCLE] Error added at CPU cycle 8553085625, interval 184, pending count: 1
[DRAM_CYCLE_ERROR] Cycle-based error applied! address=0x83b041ee0 additional_latency=2459910500 cycles
Simulation CPU 0 panic: IPC 9.4e-06 < 0.01
Simulation CPU 0 panic: IPC 1.19e-05 < 0.01
Simulation CPU 0 panic: IPC 0.0002427 < 0.01
Simulation CPU 0 panic: IPC 0.0002509 < 0.01
[ERROR_CYCLE] Error added at CPU cycle 8599569786, interval 185, pending count: 1
Simulation CPU 0 panic: IPC 5.56e-05 < 0.01
[DRAM_CYCLE_ERROR] Cycle-based error applied! address=0x83b045238 additional_latency=2459910500 cycles
Simulation CPU 0 panic: IPC 0 < 0.01
Simulation CPU 0 panic: IPC 0.0001706 < 0.01
Simulation CPU 0 panic: IPC 4.04e-05 < 0.01
Simulation CPU 0 panic: IPC 0.0001518 < 0.01
[ERROR_CYCLE] Error added at CPU cycle 8646053947, interval 186, pending count: 1
[DRAM_CYCLE_ERROR] Cycle-based error applied! address=0x83b04ae30 additional_latency=2459910500 cycles
Simulation CPU 0 panic: IPC 0.0001326 < 0.01
Simulation CPU 0 panic: IPC 0 < 0.01
Simulation CPU 0 panic: IPC 6.49e-05 < 0.01
Simulation CPU 0 panic: IPC 0.0001179 < 0.01
Simulation CPU 0 panic: IPC 7.61e-05 < 0.01
[ERROR_CYCLE] Error added at CPU cycle 8692538107, interval 187, pending count: 1
[DRAM_CYCLE_ERROR] Cycle-based error applied! address=0x83b04ef98 additional_latency=2459910500 cycles
Simulation CPU 0 panic: IPC 3.4e-05 < 0.01
Simulation CPU 0 panic: IPC 0 < 0.01
Simulation CPU 0 panic: IPC 0.0007622 < 0.01
Simulation CPU 0 panic: IPC 4.8e-05 < 0.01
[ERROR_CYCLE] Error added at CPU cycle 8739022268, interval 188, pending count: 1
Simulation CPU 0 panic: IPC 0.0001112 < 0.01
[DRAM_CYCLE_ERROR] Cycle-based error applied! address=0x83b0522d8 additional_latency=2459910500 cycles
Simulation CPU 0 panic: IPC 0 < 0.01
Simulation CPU 0 panic: IPC 6.21e-05 < 0.01
Simulation CPU 0 panic: IPC 0.0001095 < 0.01
Simulation CPU 0 panic: IPC 0.0001 < 0.01
[ERROR_CYCLE] Error added at CPU cycle 8785506429, interval 189, pending count: 1
[DRAM_CYCLE_ERROR] Cycle-based error applied! address=0x83b0564b8 additional_latency=2459910500 cycles
Simulation CPU 0 panic: IPC 0.0001861 < 0.01
Simulation CPU 0 panic: IPC 0 < 0.01
Simulation CPU 0 panic: IPC 0.0001314 < 0.01
Simulation CPU 0 panic: IPC 0.0002772 < 0.01
Simulation CPU 0 panic: IPC 0.0006393 < 0.01
[ERROR_CYCLE] Error added at CPU cycle 8831990590, interval 190, pending count: 1
[DRAM_CYCLE_ERROR] Cycle-based error applied! address=0x83b05a240 additional_latency=2459910500 cycles
Simulation CPU 0 panic: IPC 9.4e-06 < 0.01
Simulation CPU 0 panic: IPC 0 < 0.01
Simulation CPU 0 panic: IPC 8.56e-05 < 0.01
Simulation CPU 0 panic: IPC 0.0001674 < 0.01
[ERROR_CYCLE] Error added at CPU cycle 8878474751, interval 191, pending count: 1
[DRAM_CYCLE_ERROR] Cycle-based error applied! address=0x70ae40fc8 additional_latency=2459910500 cycles
Simulation CPU 0 panic: IPC 0 < 0.01
Simulation CPU 0 panic: IPC 2.9e-05 < 0.01
Simulation CPU 0 panic: IPC 0.0001897 < 0.01
Simulation CPU 0 panic: IPC 2.61e-05 < 0.01
Simulation CPU 0 panic: IPC 1.86e-05 < 0.01
[ERROR_CYCLE] Error added at CPU cycle 8924958912, interval 192, pending count: 1
[DRAM_CYCLE_ERROR] Cycle-based error applied! address=0x86f6e9780 additional_latency=2459910500 cycles
Simulation CPU 0 panic: IPC 0 < 0.01
Simulation CPU 0 panic: IPC 3.14e-05 < 0.01
Simulation CPU 0 panic: IPC 8.29e-05 < 0.01
Simulation CPU 0 panic: IPC 0.0003039 < 0.01
Simulation CPU 0 panic: IPC 4.3e-05 < 0.01
[ERROR_CYCLE] Error added at CPU cycle 8971443074, interval 193, pending count: 1
[DRAM_CYCLE_ERROR] Cycle-based error applied! address=0xd443cf610 additional_latency=2459910500 cycles
Simulation CPU 0 panic: IPC 0 < 0.01
Simulation CPU 0 panic: IPC 0.000116 < 0.01
Simulation CPU 0 panic: IPC 0.0002337 < 0.01
Simulation CPU 0 panic: IPC 0.0005124 < 0.01
[ERROR_CYCLE] Error added at CPU cycle 9017927235, interval 194, pending count: 1
[DRAM_CYCLE_ERROR] Cycle-based error applied! address=0x385ee460 additional_latency=2459910500 cycles
Simulation CPU 0 panic: IPC 4e-07 < 0.01
Simulation CPU 0 panic: IPC 0.0001086 < 0.01
Simulation CPU 0 panic: IPC 0.0005098 < 0.01
Simulation CPU 0 panic: IPC 0.0002056 < 0.01
Simulation CPU 0 panic: IPC 9.7e-06 < 0.01
[ERROR_CYCLE] Error added at CPU cycle 9064411396, interval 195, pending count: 1
[DRAM_CYCLE_ERROR] Cycle-based error applied! address=0xd34cbfa0 additional_latency=2459910500 cycles
Simulation CPU 0 panic: IPC 0 < 0.01
Simulation CPU 0 panic: IPC 5.89e-05 < 0.01
Simulation CPU 0 panic: IPC 0.0003568 < 0.01
Simulation CPU 0 panic: IPC 0.0001968 < 0.01
Simulation CPU 0 panic: IPC 0.0003042 < 0.01
[ERROR_CYCLE] Error added at CPU cycle 9110895557, interval 196, pending count: 1
[DRAM_CYCLE_ERROR] Cycle-based error applied! address=0x7fd1d1880 additional_latency=2459910500 cycles
Simulation CPU 0 panic: IPC 0 < 0.01
Simulation CPU 0 panic: IPC 0.0001578 < 0.01
Simulation CPU 0 panic: IPC 1.3e-05 < 0.01
Simulation CPU 0 panic: IPC 0.0002553 < 0.01
[ERROR_CYCLE] Error added at CPU cycle 9157379718, interval 197, pending count: 1
[DRAM_CYCLE_ERROR] Cycle-based error applied! address=0x88c61ec88 additional_latency=2459910500 cycles
Simulation CPU 0 panic: IPC 0.000135 < 0.01
Simulation CPU 0 panic: IPC 8.39e-05 < 0.01
Simulation CPU 0 panic: IPC 0.0003554 < 0.01
Simulation CPU 0 panic: IPC 0.0011507 < 0.01
Simulation CPU 0 panic: IPC 0.0003622 < 0.01
[ERROR_CYCLE] Error added at CPU cycle 9203863878, interval 198, pending count: 1
[DRAM_CYCLE_ERROR] Cycle-based error applied! address=0x69cc7fd8 additional_latency=2459910500 cycles
Simulation CPU 0 panic: IPC 0 < 0.01
Simulation CPU 0 panic: IPC 0.0001338 < 0.01
Simulation CPU 0 panic: IPC 0.0002468 < 0.01
Simulation CPU 0 panic: IPC 0.000304 < 0.01
Simulation CPU 0 panic: IPC 1.71e-05 < 0.01
[ERROR_CYCLE] Error added at CPU cycle 9250348039, interval 199, pending count: 1
[DRAM_CYCLE_ERROR] Cycle-based error applied! address=0x2efa07040 additional_latency=2459910500 cycles
Simulation CPU 0 panic: IPC 0 < 0.01
Simulation CPU 0 panic: IPC 5.51e-05 < 0.01
Simulation CPU 0 panic: IPC 2.9e-05 < 0.01
Simulation CPU 0 panic: IPC 0.0002507 < 0.01
[ERROR_CYCLE] Error added at CPU cycle 9296832200, interval 200, pending count: 1
Simulation CPU 0 panic: IPC 0.0004052 < 0.01
[DRAM_CYCLE_ERROR] Cycle-based error applied! address=0xaabff0170 additional_latency=2459910500 cycles
Simulation CPU 0 panic: IPC 0.0001712 < 0.01
Simulation CPU 0 panic: IPC 1.04e-05 < 0.01
Simulation CPU 0 panic: IPC 3.87e-05 < 0.01
Simulation CPU 0 panic: IPC 0.00014 < 0.01
[ERROR_CYCLE] Error added at CPU cycle 9343316361, interval 201, pending count: 1
[DRAM_CYCLE_ERROR] Cycle-based error applied! address=0xe79a9d788 additional_latency=2459910500 cycles
Simulation CPU 0 panic: IPC 4e-07 < 0.01
Simulation CPU 0 panic: IPC 4e-06 < 0.01
Simulation CPU 0 panic: IPC 0.0011559 < 0.01
Simulation CPU 0 panic: IPC 0.0002521 < 0.01
[ERROR_CYCLE] Error added at CPU cycle 9389800522, interval 202, pending count: 1
Simulation CPU 0 panic: IPC 0.0003425 < 0.01
[DRAM_CYCLE_ERROR] Cycle-based error applied! address=0x1951ce400 additional_latency=2459910500 cycles
Simulation CPU 0 panic: IPC 0 < 0.01
Simulation CPU 0 panic: IPC 4.42e-05 < 0.01
Simulation CPU 0 panic: IPC 9.35e-05 < 0.01
Simulation CPU 0 panic: IPC 6.83e-05 < 0.01
[ERROR_CYCLE] Error added at CPU cycle 9436284683, interval 203, pending count: 1
Simulation CPU 0 panic: IPC 0.0001484 < 0.01
[DRAM_CYCLE_ERROR] Cycle-based error applied! address=0x5a7b3d5b0 additional_latency=2459910500 cycles
Simulation CPU 0 panic: IPC 0 < 0.01
Simulation CPU 0 panic: IPC 0.0002789 < 0.01
Simulation CPU 0 panic: IPC 0.0001228 < 0.01
Simulation CPU 0 panic: IPC 1.46e-05 < 0.01
[ERROR_CYCLE] Error added at CPU cycle 9482768845, interval 204, pending count: 1
[DRAM_CYCLE_ERROR] Cycle-based error applied! address=0x83b091290 additional_latency=2459910500 cycles
Simulation CPU 0 panic: IPC 0 < 0.01
Simulation CPU 0 panic: IPC 0.0001518 < 0.01
Simulation CPU 0 panic: IPC 0.0001631 < 0.01
Simulation CPU 0 panic: IPC 0.0001727 < 0.01
[ERROR_CYCLE] Error added at CPU cycle 9529253006, interval 205, pending count: 1
[DRAM_CYCLE_ERROR] Cycle-based error applied! address=0x83b095b28 additional_latency=2459910500 cycles
Simulation CPU 0 panic: IPC 0.0003224 < 0.01
Simulation CPU 0 panic: IPC 0 < 0.01
Simulation CPU 0 panic: IPC 9.1e-06 < 0.01
Simulation CPU 0 panic: IPC 4.28e-05 < 0.01
Simulation CPU 0 panic: IPC 0.0004744 < 0.01
[...]
Simulation CPU 0 warning: IPC 0.023208 < 0.05
Simulation CPU 0 warning: IPC 0.023079 < 0.05
Simulation CPU 0 critical: IPC 0.016864 < 0.02
Simulation CPU 0 warning: IPC 0.044993 < 0.05
[ERROR_CYCLE] Error added at CPU cycle 18361243595, interval 395, pending count: 1
[DRAM_CYCLE_ERROR] Cycle-based error applied! address=0xfaa7377b0 additional_latency=2459910500 cycles
Simulation CPU 0 panic: IPC 0.0024563 < 0.01
Simulation CPU 0 critical: IPC 0.011955 < 0.02
Simulation CPU 0 warning: IPC 0.021798 < 0.05
Simulation CPU 0 critical: IPC 0.010878 < 0.02
[ERROR_CYCLE] Error added at CPU cycle 18407727756, interval 396, pending count: 1
Simulation CPU 0 warning: IPC 0.024586 < 0.05
[DRAM_CYCLE_ERROR] Cycle-based error applied! address=0x3574bf6f0 additional_latency=2459910500 cycles
Simulation CPU 0 panic: IPC 0 < 0.01
Simulation CPU 0 critical: IPC 0.017296 < 0.02
Simulation CPU 0 warning: IPC 0.026737 < 0.05
[ERROR_CYCLE] Error added at CPU cycle 18454211917, interval 397, pending count: 1
[DRAM_CYCLE_ERROR] Cycle-based error applied! address=0xc7c5f4ec8 additional_latency=2459910500 cycles
Simulation CPU 0 panic: IPC 0 < 0.01
Simulation CPU 0 critical: IPC 0.019242 < 0.02
Simulation CPU 0 critical: IPC 0.016679 < 0.02
Simulation CPU 0 warning: IPC 0.035373 < 0.05
Simulation CPU 0 panic: IPC 0.0001573 < 0.01
[ERROR_CYCLE] Error added at CPU cycle 18500696078, interval 398, pending count: 1
[DRAM_CYCLE_ERROR] Cycle-based error applied! address=0xd817becf8 additional_latency=2459910500 cycles
Simulation CPU 0 panic: IPC 0 < 0.01
Heartbeat CPU 0 instructions: 560000054 cycles: 18539026206 heartbeat IPC: 0.02566 cumulative IPC: 0.03021 (Simulation time: 01 hr 31 min 19 sec)
Simulation CPU 0 warning: IPC 0.0331 < 0.05
[ERROR_CYCLE] Error added at CPU cycle 18547180239, interval 399, pending count: 1
[DRAM_CYCLE_ERROR] Cycle-based error applied! address=0xb4e3b6d0 additional_latency=2459910500 cycles
Simulation CPU 0 panic: IPC 0 < 0.01
Simulation CPU 0 warning: IPC 0.033308 < 0.05
Simulation CPU 0 warning: IPC 0.025707 < 0.05
Simulation CPU 0 critical: IPC 0.015364 < 0.02
[ERROR_CYCLE] Error added at CPU cycle 18593664400, interval 400, pending count: 1
[DRAM_CYCLE_ERROR] Cycle-based error applied! address=0x19c7b8f0 additional_latency=2459910500 cycles
Simulation CPU 0 panic: IPC 0.0055084 < 0.01
Simulation CPU 0 warning: IPC 0.031121 < 0.05
Simulation CPU 0 critical: IPC 0.011111 < 0.02
Simulation CPU 0 warning: IPC 0.036228 < 0.05
[ERROR_CYCLE] Error added at CPU cycle 18640148562, interval 401, pending count: 1
[DRAM_CYCLE_ERROR] Cycle-based error applied! address=0xb4e42278 additional_latency=2459910500 cycles
Simulation CPU 0 panic: IPC 0 < 0.01
Simulation CPU 0 warning: IPC 0.035095 < 0.05
Simulation CPU 0 panic: IPC 0.0002298 < 0.01
Simulation CPU 0 warning: IPC 0.046408 < 0.05
[ERROR_CYCLE] Error added at CPU cycle 18686632723, interval 402, pending count: 1
Simulation CPU 0 warning: IPC 0.023132 < 0.05
[DRAM_CYCLE_ERROR] Cycle-based error applied! address=0x543b82240 additional_latency=2459910500 cycles
Simulation CPU 0 panic: IPC 0 < 0.01
Simulation CPU 0 critical: IPC 0.010524 < 0.02
Simulation CPU 0 panic: IPC 0.0078878 < 0.01
[ERROR_CYCLE] Error added at CPU cycle 18733116884, interval 403, pending count: 1
[DRAM_CYCLE_ERROR] Cycle-based error applied! address=0xb62870070 additional_latency=2459910500 cycles
Simulation CPU 0 panic: IPC 0 < 0.01
Simulation CPU 0 warning: IPC 0.026456 < 0.05
Simulation CPU 0 critical: IPC 0.018831 < 0.02
Simulation CPU 0 warning: IPC 0.033282 < 0.05
[ERROR_CYCLE] Error added at CPU cycle 18779601045, interval 404, pending count: 1
Simulation CPU 0 warning: IPC 0.030388 < 0.05
[DRAM_CYCLE_ERROR] Cycle-based error applied! address=0xb4e4c240 additional_latency=2459910500 cycles
Simulation CPU 0 panic: IPC 0 < 0.01
Simulation CPU 0 critical: IPC 0.018478 < 0.02
Simulation CPU 0 warning: IPC 0.025989 < 0.05
[ERROR_CYCLE] Error added at CPU cycle 18826085206, interval 405, pending count: 1
[DRAM_CYCLE_ERROR] Cycle-based error applied! address=0xab85ed6f8 additional_latency=2459910500 cycles
Simulation CPU 0 panic: IPC 0 < 0.01
Simulation CPU 0 panic: IPC 0.0023976 < 0.01
Simulation CPU 0 warning: IPC 0.03435 < 0.05
Simulation CPU 0 critical: IPC 0.019637 < 0.02
Simulation CPU 0 critical: IPC 0.018006 < 0.02
[ERROR_CYCLE] Error added at CPU cycle 18872569366, interval 406, pending count: 1
[DRAM_CYCLE_ERROR] Cycle-based error applied! address=0xcf5d5cda0 additional_latency=2459910500 cycles
Simulation CPU 0 panic: IPC 0.0055529 < 0.01
Heartbeat CPU 0 instructions: 570000057 cycles: 18892438282 heartbeat IPC: 0.0283 cumulative IPC: 0.03017 (Simulation time: 02 hr 02 min 38 sec)
Simulation CPU 0 warning: IPC 0.042097 < 0.05
[ERROR_CYCLE] Error added at CPU cycle 18919053527, interval 407, pending count: 1
[DRAM_CYCLE_ERROR] Cycle-based error applied! address=0xb4e56208 additional_latency=2459910500 cycles
Simulation CPU 0 panic: IPC 0 < 0.01
Simulation CPU 0 warning: IPC 0.046819 < 0.05
Simulation CPU 0 panic: IPC 0.0071088 < 0.01
Simulation CPU 0 panic: IPC 0.0062214 < 0.01
[ERROR_CYCLE] Error added at CPU cycle 18965537688, interval 408, pending count: 1
[DRAM_CYCLE_ERROR] Cycle-based error applied! address=0xab0671360 additional_latency=2459910500 cycles
Simulation CPU 0 panic: IPC 0 < 0.01
Simulation CPU 0 warning: IPC 0.030995 < 0.05
Simulation CPU 0 critical: IPC 0.01748 < 0.02
[ERROR_CYCLE] Error added at CPU cycle 19012021849, interval 409, pending count: 1
[DRAM_CYCLE_ERROR] Cycle-based error applied! address=0x2c4ee8d10 additional_latency=2459910500 cycles
Simulation CPU 0 critical: IPC 0.013729 < 0.02
Simulation CPU 0 panic: IPC 0.0043728 < 0.01
Simulation CPU 0 warning: IPC 0.044109 < 0.05
Simulation CPU 0 warning: IPC 0.044658 < 0.05
[ERROR_CYCLE] Error added at CPU cycle 19058506010, interval 410, pending count: 1
[DRAM_CYCLE_ERROR] Cycle-based error applied! address=0xb4e601d8 additional_latency=2459910500 cycles
Simulation CPU 0 warning: IPC 0.026924 < 0.05
Simulation CPU 0 panic: IPC 0 < 0.01
Simulation CPU 0 warning: IPC 0.031409 < 0.05
Simulation CPU 0 critical: IPC 0.018697 < 0.02
[ERROR_CYCLE] Error added at CPU cycle 19104990171, interval 411, pending count: 1
[DRAM_CYCLE_ERROR] Cycle-based error applied! address=0x7938b9be8 additional_latency=2459910500 cycles
Simulation CPU 0 panic: IPC 0 < 0.01
Simulation CPU 0 warning: IPC 0.032509 < 0.05
Simulation CPU 0 critical: IPC 0.012886 < 0.02
Simulation CPU 0 warning: IPC 0.020668 < 0.05
[ERROR_CYCLE] Error added at CPU cycle 19151474333, interval 412, pending count: 1
[DRAM_CYCLE_ERROR] Cycle-based error applied! address=0xb4e67190 additional_latency=2459910500 cycles
Simulation CPU 0 panic: IPC 0 < 0.01
Simulation CPU 0 warning: IPC 0.046885 < 0.05
Simulation CPU 0 critical: IPC 0.016922 < 0.02
Heartbeat CPU 0 instructions: 580000060 cycles: 19197633141 heartbeat IPC: 0.03277 cumulative IPC: 0.03021 (Simulation time: 02 hr 29 min 09 sec)
[ERROR_CYCLE] Error added at CPU cycle 19197958494, interval 413, pending count: 1
[DRAM_CYCLE_ERROR] Cycle-based error applied! address=0xb5464f500 additional_latency=2459910500 cycles
Simulation CPU 0 panic: IPC 0.006639 < 0.01
Simulation CPU 0 warning: IPC 0.029352 < 0.05
Simulation CPU 0 critical: IPC 0.015188 < 0.02
Simulation CPU 0 critical: IPC 0.016003 < 0.02
[ERROR_CYCLE] Error added at CPU cycle 19244442655, interval 414, pending count: 1
[DRAM_CYCLE_ERROR] Cycle-based error applied! address=0x19ffe16c8 additional_latency=2459910500 cycles
Simulation CPU 0 panic: IPC 0 < 0.01
Simulation CPU 0 warning: IPC 0.041837 < 0.05
Simulation CPU 0 warning: IPC 0.031826 < 0.05
Simulation CPU 0 warning: IPC 0.04053 < 0.05
Simulation CPU 0 critical: IPC 0.01024 < 0.02
[ERROR_CYCLE] Error added at CPU cycle 19290926816, interval 415, pending count: 1
[DRAM_CYCLE_ERROR] Cycle-based error applied! address=0x9b53bc718 additional_latency=2459910500 cycles
Simulation CPU 0 panic: IPC 0.0056689 < 0.01
Simulation CPU 0 warning: IPC 0.021148 < 0.05
Simulation CPU 0 warning: IPC 0.040834 < 0.05
[ERROR_CYCLE] Error added at CPU cycle 19337410976, interval 416, pending count: 1
[DRAM_CYCLE_ERROR] Cycle-based error applied! address=0xb4e74160 additional_latency=2459910500 cycles
Simulation CPU 0 panic: IPC 0 < 0.01
Simulation CPU 0 critical: IPC 0.011358 < 0.02
Simulation CPU 0 critical: IPC 0.017973 < 0.02
[ERROR_CYCLE] Error added at CPU cycle 19383895137, interval 417, pending count: 1
[DRAM_CYCLE_ERROR] Cycle-based error applied! address=0xb4e77150 additional_latency=2459910500 cycles
Simulation CPU 0 panic: IPC 0 < 0.01
Simulation CPU 0 critical: IPC 0.016929 < 0.02
Simulation CPU 0 warning: IPC 0.029282 < 0.05
Simulation CPU 0 panic: IPC 0.002456 < 0.01
Simulation CPU 0 warning: IPC 0.038036 < 0.05
[ERROR_CYCLE] Error added at CPU cycle 19430379298, interval 418, pending count: 1
[DRAM_CYCLE_ERROR] Cycle-based error applied! address=0x65f62878 additional_latency=2459910500 cycles
Simulation CPU 0 panic: IPC 0.0093155 < 0.01
Simulation CPU 0 warning: IPC 0.029386 < 0.05
Simulation CPU 0 critical: IPC 0.013559 < 0.02
[ERROR_CYCLE] Error added at CPU cycle 19476863459, interval 419, pending count: 1
[DRAM_CYCLE_ERROR] Cycle-based error applied! address=0xb4e7e130 additional_latency=2459910500 cycles
Simulation CPU 0 warning: IPC 0.035856 < 0.05
Simulation CPU 0 panic: IPC 0 < 0.01
Simulation CPU 0 panic: IPC 0.007594 < 0.01
[ERROR_CYCLE] Error added at CPU cycle 19523347620, interval 420, pending count: 1
[DRAM_CYCLE_ERROR] Cycle-based error applied! address=0xb4e81500 additional_latency=2459910500 cycles
Simulation CPU 0 panic: IPC 0 < 0.01
Simulation CPU 0 warning: IPC 0.022444 < 0.05
Heartbeat CPU 0 instructions: 590000060 cycles: 19541651604 heartbeat IPC: 0.02907 cumulative IPC: 0.03019 (Simulation time: 02 hr 53 min 50 sec)
Simulation CPU 0 warning: IPC 0.039885 < 0.05
Simulation CPU 0 panic: IPC 0.0041199 < 0.01
[ERROR_CYCLE] Error added at CPU cycle 19569831781, interval 421, pending count: 1
Simulation CPU 0 warning: IPC 0.027465 < 0.05
[DRAM_CYCLE_ERROR] Cycle-based error applied! address=0x12af9930 additional_latency=2459910500 cycles
Simulation CPU 0 panic: IPC 0 < 0.01
Simulation CPU 0 warning: IPC 0.04616 < 0.05
Simulation CPU 0 warning: IPC 0.024143 < 0.05
Simulation CPU 0 warning: IPC 0.033369 < 0.05
[ERROR_CYCLE] Error added at CPU cycle 19616315942, interval 422, pending count: 1
[DRAM_CYCLE_ERROR] Cycle-based error applied! address=0xb4e880f8 additional_latency=2459910500 cycles
Simulation CPU 0 warning: IPC 0.047584 < 0.05
Simulation CPU 0 panic: IPC 0 < 0.01
Simulation CPU 0 panic: IPC 0.0012692 < 0.01
Simulation CPU 0 warning: IPC 0.041674 < 0.05
[ERROR_CYCLE] Error added at CPU cycle 19662800104, interval 423, pending count: 1
[DRAM_CYCLE_ERROR] Cycle-based error applied! address=0xf4cca9c60 additional_latency=2459910500 cycles
Simulation CPU 0 panic: IPC 0 < 0.01
Simulation CPU 0 panic: IPC 0.0068431 < 0.01
Simulation CPU 0 warning: IPC 0.048138 < 0.05
[ERROR_CYCLE] Error added at CPU cycle 19709284265, interval 424, pending count: 1
[DRAM_CYCLE_ERROR] Cycle-based error applied! address=0x2045d4b38 additional_latency=2459910500 cycles
Simulation CPU 0 critical: IPC 0.014502 < 0.02
Simulation CPU 0 panic: IPC 0.0047298 < 0.01
Simulation CPU 0 warning: IPC 0.032948 < 0.05
Simulation CPU 0 warning: IPC 0.031218 < 0.05
[ERROR_CYCLE] Error added at CPU cycle 19755768426, interval 425, pending count: 1
[DRAM_CYCLE_ERROR] Cycle-based error applied! address=0xb4e920b8 additional_latency=2459910500 cycles
Simulation CPU 0 warning: IPC 0.029572 < 0.05
Simulation CPU 0 panic: IPC 0 < 0.01
Simulation CPU 0 warning: IPC 0.039243 < 0.05
Simulation CPU 0 critical: IPC 0.010804 < 0.02
[ERROR_CYCLE] Error added at CPU cycle 19802252587, interval 426, pending count: 1
[DRAM_CYCLE_ERROR] Cycle-based error applied! address=0xb4e950a8 additional_latency=2459910500 cycles
Simulation CPU 0 panic: IPC 0 < 0.01
Simulation CPU 0 warning: IPC 0.026604 < 0.05
Simulation CPU 0 panic: IPC 0.0081844 < 0.01
[ERROR_CYCLE] Error added at CPU cycle 19848736747, interval 427, pending count: 1
[DRAM_CYCLE_ERROR] Cycle-based error applied! address=0xb550b5b10 additional_latency=2459910500 cycles
Simulation CPU 0 panic: IPC 0.0029477 < 0.01
Simulation CPU 0 critical: IPC 0.018263 < 0.02
Simulation CPU 0 warning: IPC 0.029135 < 0.05
Simulation CPU 0 warning: IPC 0.048365 < 0.05
Heartbeat CPU 0 instructions: 600000061 cycles: 19884363337 heartbeat IPC: 0.02918 cumulative IPC: 0.03017 (Simulation time: 03 hr 21 min 48 sec)
[ERROR_CYCLE] Error added at CPU cycle 19895220908, interval 428, pending count: 1
[DRAM_CYCLE_ERROR] Cycle-based error applied! address=0xe3fe5000 additional_latency=2459910500 cycles
Simulation CPU 0 warning: IPC 0.031075 < 0.05
Simulation CPU 0 critical: IPC 0.015344 < 0.02
Simulation CPU 0 panic: IPC 0.0054729 < 0.01
[ERROR_CYCLE] Error added at CPU cycle 19941705069, interval 429, pending count: 1
[DRAM_CYCLE_ERROR] Cycle-based error applied! address=0xb4ea0530 additional_latency=2459910500 cycles
Simulation CPU 0 panic: IPC 0 < 0.01
Simulation CPU 0 critical: IPC 0.017458 < 0.02
Simulation CPU 0 panic: IPC 0.0069889 < 0.01
[ERROR_CYCLE] Error added at CPU cycle 19988189230, interval 430, pending count: 1
[DRAM_CYCLE_ERROR] Cycle-based error applied! address=0xdf0e45e18 additional_latency=2459910500 cycles
Simulation CPU 0 panic: IPC 0 < 0.01
Simulation CPU 0 warning: IPC 0.032207 < 0.05
Simulation CPU 0 critical: IPC 0.0181 < 0.02
Simulation CPU 0 critical: IPC 0.011574 < 0.02
[ERROR_CYCLE] Error added at CPU cycle 20034673391, interval 431, pending count: 1
[DRAM_CYCLE_ERROR] Cycle-based error applied! address=0x8e352f9e0 additional_latency=2459910500 cycles
Simulation CPU 0 critical: IPC 0.014874 < 0.02
Simulation CPU 0 panic: IPC 0.0089719 < 0.01
Simulation CPU 0 critical: IPC 0.016907 < 0.02
Simulation CPU 0 critical: IPC 0.019814 < 0.02
[ERROR_CYCLE] Error added at CPU cycle 20081157552, interval 432, pending count: 1
[DRAM_CYCLE_ERROR] Cycle-based error applied! address=0xb4eaa540 additional_latency=2459910500 cycles
Simulation CPU 0 critical: IPC 0.014379 < 0.02
Simulation CPU 0 panic: IPC 0.0013234 < 0.01
Simulation CPU 0 warning: IPC 0.020188 < 0.05
Simulation CPU 0 warning: IPC 0.023858 < 0.05
[ERROR_CYCLE] Error added at CPU cycle 20127641713, interval 433, pending count: 1
Simulation CPU 0 critical: IPC 0.012736 < 0.02
[DRAM_CYCLE_ERROR] Cycle-based error applied! address=0x5ecfc5920 additional_latency=2459910500 cycles
Simulation CPU 0 panic: IPC 0.0018073 < 0.01
Simulation CPU 0 warning: IPC 0.029138 < 0.05
Simulation CPU 0 panic: IPC 0.000718 < 0.01
[ERROR_CYCLE] Error added at CPU cycle 20174125875, interval 434, pending count: 1
[DRAM_CYCLE_ERROR] Cycle-based error applied! address=0xb4eb1018 additional_latency=2459910500 cycles
Simulation CPU 0 warning: IPC 0.027769 < 0.05
Simulation CPU 0 panic: IPC 0 < 0.01
Simulation CPU 0 warning: IPC 0.046593 < 0.05
Simulation CPU 0 panic: IPC 0.0017862 < 0.01
[ERROR_CYCLE] Error added at CPU cycle 20220610036, interval 435, pending count: 1
[DRAM_CYCLE_ERROR] Cycle-based error applied! address=0x1b9e6f098 additional_latency=2459910500 cycles
Simulation CPU 0 panic: IPC 0 < 0.01
Heartbeat CPU 0 instructions: 610000062 cycles: 20236574455 heartbeat IPC: 0.02839 cumulative IPC: 0.03014 (Simulation time: 03 hr 53 min 04 sec)
Simulation CPU 0 warning: IPC 0.037617 < 0.05
Simulation CPU 0 warning: IPC 0.036536 < 0.05
[ERROR_CYCLE] Error added at CPU cycle 20267094197, interval 436, pending count: 1
[DRAM_CYCLE_ERROR] Cycle-based error applied! address=0xb4eb7fe8 additional_latency=2459910500 cycles
Simulation CPU 0 panic: IPC 0 < 0.01
Simulation CPU 0 panic: IPC 0.0025563 < 0.01
[ERROR_CYCLE] Error added at CPU cycle 20313578358, interval 437, pending count: 1
[DRAM_CYCLE_ERROR] Cycle-based error applied! address=0xc41e296c0 additional_latency=2459910500 cycles
Heartbeat CPU 0 instructions: 620000063 cycles: 20322942945 heartbeat IPC: 0.1158 cumulative IPC: 0.03051 (Simulation time: 04 hr 01 min 09 sec)
[ERROR_CYCLE] Error added at CPU cycle 20360062518, interval 438, pending count: 1
[DRAM_CYCLE_ERROR] Cycle-based error applied! address=0xf9e1014c0 additional_latency=2459910500 cycles
Heartbeat CPU 0 instructions: 630000063 cycles: 20361983695 heartbeat IPC: 0.2561 cumulative IPC: 0.03094 (Simulation time: 04 hr 04 min 24 sec)
Heartbeat CPU 0 instructions: 640000065 cycles: 20399364971 heartbeat IPC: 0.2675 cumulative IPC: 0.03137 (Simulation time: 04 hr 07 min 37 sec)
[ERROR_CYCLE] Error added at CPU cycle 20406546679, interval 439, pending count: 1
[DRAM_CYCLE_ERROR] Cycle-based error applied! address=0xcb981c848 additional_latency=2459910500 cycles
Heartbeat CPU 0 instructions: 650000065 cycles: 20452046088 heartbeat IPC: 0.1898 cumulative IPC: 0.03178 (Simulation time: 04 hr 12 min 31 sec)
[ERROR_CYCLE] Error added at CPU cycle 20453030840, interval 440, pending count: 1
[DRAM_CYCLE_ERROR] Cycle-based error applied! address=0xb5468b0f8 additional_latency=2459910500 cycles
Heartbeat CPU 0 instructions: 660000066 cycles: 20498770347 heartbeat IPC: 0.214 cumulative IPC: 0.0322 (Simulation time: 04 hr 16 min 43 sec)
[ERROR_CYCLE] Error added at CPU cycle 20499515001, interval 441, pending count: 1
[DRAM_CYCLE_ERROR] Cycle-based error applied! address=0x81cab8aa0 additional_latency=2459910500 cycles
Simulation CPU 0 critical: IPC 0.013819 < 0.02
[ERROR_CYCLE] Error added at CPU cycle 20545999162, interval 442, pending count: 1
[DRAM_CYCLE_ERROR] Cycle-based error applied! address=0xdc964cb30 additional_latency=2459910500 cycles
Heartbeat CPU 0 instructions: 670000066 cycles: 20565862965 heartbeat IPC: 0.149 cumulative IPC: 0.03258 (Simulation time: 04 hr 22 min 25 sec)
[ERROR_CYCLE] Error added at CPU cycle 20592483323, interval 443, pending count: 1
[DRAM_CYCLE_ERROR] Cycle-based error applied! address=0x42513a260 additional_latency=2459910500 cycles
Simulation CPU 0 warning: IPC 0.048402 < 0.05
Heartbeat CPU 0 instructions: 680000067 cycles: 20621876476 heartbeat IPC: 0.1785 cumulative IPC: 0.03297 (Simulation time: 04 hr 26 min 52 sec)
[ERROR_CYCLE] Error added at CPU cycle 20638967484, interval 444, pending count: 1
[DRAM_CYCLE_ERROR] Cycle-based error applied! address=0x8f9b66208 additional_latency=2459910500 cycles
Simulation CPU 0 warning: IPC 0.03574 < 0.05
Heartbeat CPU 0 instructions: 690000068 cycles: 20664145348 heartbeat IPC: 0.2366 cumulative IPC: 0.03339 (Simulation time: 04 hr 31 min 08 sec)
Heartbeat CPU 0 instructions: 700000069 cycles: 20679341791 heartbeat IPC: 0.658 cumulative IPC: 0.03385 (Simulation time: 04 hr 32 min 51 sec)
[ERROR_CYCLE] Error added at CPU cycle 20685451646, interval 445, pending count: 1
[DRAM_CYCLE_ERROR] Cycle-based error applied! address=0x78dabca20 additional_latency=2459910500 cycles
Heartbeat CPU 0 instructions: 710000072 cycles: 20698441408 heartbeat IPC: 0.5236 cumulative IPC: 0.0343 (Simulation time: 04 hr 35 min 02 sec)
Heartbeat CPU 0 instructions: 720000074 cycles: 20711368621 heartbeat IPC: 0.7736 cumulative IPC: 0.03476 (Simulation time: 04 hr 36 min 33 sec)
Heartbeat CPU 0 instructions: 730000076 cycles: 20722837263 heartbeat IPC: 0.8719 cumulative IPC: 0.03523 (Simulation time: 04 hr 37 min 55 sec)
Heartbeat CPU 0 instructions: 740000076 cycles: 20731271406 heartbeat IPC: 1.186 cumulative IPC: 0.03569 (Simulation time: 04 hr 38 min 45 sec)
[ERROR_CYCLE] Error added at CPU cycle 20731935807, interval 446, pending count: 1
[DRAM_CYCLE_ERROR] Cycle-based error applied! address=0xf227e4df0 additional_latency=2459910500 cycles
Heartbeat CPU 0 instructions: 750000078 cycles: 20756688740 heartbeat IPC: 0.3934 cumulative IPC: 0.03613 (Simulation time: 04 hr 41 min 10 sec)
Heartbeat CPU 0 instructions: 760000079 cycles: 20765141538 heartbeat IPC: 1.183 cumulative IPC: 0.0366 (Simulation time: 04 hr 42 min 15 sec)
Heartbeat CPU 0 instructions: 770000081 cycles: 20774629418 heartbeat IPC