
*** ChampSim Multicore Out-of-Order Simulator ***
Warmup Instructions: 0
Simulation Instructions: 9223372036854775807
Number of CPUs: 1
Page size: 2097152

Off-chip DRAM Size: 128 GiB Channels: 2 Width: 32-bit Data Rate: 4807 MT/s
[ERROR_PAGE_MANAGER] Error latency: 1990500 
[ERROR_PAGE_MANAGER] Random seed: 54321 (fixed for preload reproducibility)
[ERROR_PAGE_MANAGER] Cycle-based error modeling enabled
[ERROR_PAGE_MANAGER] Errors per interval: 1
[ERROR_PAGE_MANAGER] Error cycle interval: 25763047 cycles

=== ERROR PAGE STATISTICS ===
Mode: CYCLE
Error Cycle Interval: 25763047 CPU cycles
Total Error Accesses: 0
==============================
Warmup finished CPU 0 instructions: 0 cycles: 1 cumulative IPC: 0 (Simulation time: 00 hr 00 min 00 sec)
Warmup complete CPU 0 instructions: 0 cycles: 1 cumulative IPC: 0 (Simulation time: 00 hr 00 min 00 sec)
[ERROR_CYCLE] Error added at CPU cycle 25763048, interval 1, pending count: 1
[DRAM_CYCLE_ERROR] Cycle-based error applied! address=0x1389e4b8d0 additional_latency=1990500 cycles
Heartbeat CPU 0 instructions: 10000002 cycles: 26606737 heartbeat IPC: 0.3758 cumulative IPC: 0.3758 (Simulation time: 00 hr 02 min 26 sec)
[ERROR_CYCLE] Error added at CPU cycle 51526094, interval 2, pending count: 1
[DRAM_CYCLE_ERROR] Cycle-based error applied! address=0x1fe34d3408 additional_latency=1990500 cycles
Heartbeat CPU 0 instructions: 20000002 cycles: 53040532 heartbeat IPC: 0.3783 cumulative IPC: 0.3771 (Simulation time: 00 hr 05 min 08 sec)
[ERROR_CYCLE] Error added at CPU cycle 77289142, interval 3, pending count: 1
[DRAM_CYCLE_ERROR] Cycle-based error applied! address=0x13833c3590 additional_latency=1990500 cycles
Heartbeat CPU 0 instructions: 30000004 cycles: 79455488 heartbeat IPC: 0.3786 cumulative IPC: 0.3776 (Simulation time: 00 hr 07 min 22 sec)
[ERROR_CYCLE] Error added at CPU cycle 103052188, interval 4, pending count: 1
[DRAM_CYCLE_ERROR] Cycle-based error applied! address=0x19a7e76ae0 additional_latency=1990500 cycles
Heartbeat CPU 0 instructions: 40000005 cycles: 105941046 heartbeat IPC: 0.3776 cumulative IPC: 0.3776 (Simulation time: 00 hr 09 min 54 sec)
[ERROR_CYCLE] Error added at CPU cycle 128815235, interval 5, pending count: 1
[DRAM_CYCLE_ERROR] Cycle-based error applied! address=0x1a12c29a88 additional_latency=1990500 cycles
Heartbeat CPU 0 instructions: 50000009 cycles: 132342697 heartbeat IPC: 0.3788 cumulative IPC: 0.3778 (Simulation time: 00 hr 12 min 29 sec)
[ERROR_CYCLE] Error added at CPU cycle 154578283, interval 6, pending count: 1
[DRAM_CYCLE_ERROR] Cycle-based error applied! address=0xe03cd7198 additional_latency=1990500 cycles
Heartbeat CPU 0 instructions: 60000012 cycles: 158783939 heartbeat IPC: 0.3782 cumulative IPC: 0.3779 (Simulation time: 00 hr 14 min 50 sec)
[ERROR_CYCLE] Error added at CPU cycle 180341329, interval 7, pending count: 1
[DRAM_CYCLE_ERROR] Cycle-based error applied! address=0x1281c51880 additional_latency=1990500 cycles
Heartbeat CPU 0 instructions: 70000012 cycles: 185267923 heartbeat IPC: 0.3776 cumulative IPC: 0.3778 (Simulation time: 00 hr 17 min 31 sec)
[ERROR_CYCLE] Error added at CPU cycle 206104376, interval 8, pending count: 1
[DRAM_CYCLE_ERROR] Cycle-based error applied! address=0xa9d67a240 additional_latency=1990500 cycles
Heartbeat CPU 0 instructions: 80000016 cycles: 211812541 heartbeat IPC: 0.3767 cumulative IPC: 0.3777 (Simulation time: 00 hr 20 min 08 sec)
[ERROR_CYCLE] Error added at CPU cycle 231867424, interval 9, pending count: 1
[DRAM_CYCLE_ERROR] Cycle-based error applied! address=0xd9def410 additional_latency=1990500 cycles
Heartbeat CPU 0 instructions: 90000018 cycles: 238240440 heartbeat IPC: 0.3784 cumulative IPC: 0.3778 (Simulation time: 00 hr 22 min 28 sec)
[ERROR_CYCLE] Error added at CPU cycle 257630470, interval 10, pending count: 1
[DRAM_CYCLE_ERROR] Cycle-based error applied! address=0xe9ad58c8 additional_latency=1990500 cycles
Heartbeat CPU 0 instructions: 100000020 cycles: 264615933 heartbeat IPC: 0.3791 cumulative IPC: 0.3779 (Simulation time: 00 hr 25 min 08 sec)
[ERROR_CYCLE] Error added at CPU cycle 283393517, interval 11, pending count: 1
[DRAM_CYCLE_ERROR] Cycle-based error applied! address=0x5e8fe3890 additional_latency=1990500 cycles
Heartbeat CPU 0 instructions: 110000020 cycles: 291084371 heartbeat IPC: 0.3778 cumulative IPC: 0.3779 (Simulation time: 00 hr 26 min 59 sec)
[ERROR_CYCLE] Error added at CPU cycle 309156565, interval 12, pending count: 1
[DRAM_CYCLE_ERROR] Cycle-based error applied! address=0x277a24ae0 additional_latency=1990500 cycles
Heartbeat CPU 0 instructions: 120000024 cycles: 317556370 heartbeat IPC: 0.3778 cumulative IPC: 0.3779 (Simulation time: 00 hr 29 min 06 sec)
[ERROR_CYCLE] Error added at CPU cycle 334919611, interval 13, pending count: 1
[DRAM_CYCLE_ERROR] Cycle-based error applied! address=0x48f6d32a0 additional_latency=1990500 cycles
Heartbeat CPU 0 instructions: 130000024 cycles: 344036793 heartbeat IPC: 0.3776 cumulative IPC: 0.3779 (Simulation time: 00 hr 31 min 47 sec)
[ERROR_CYCLE] Error added at CPU cycle 360682659, interval 14, pending count: 1
[DRAM_CYCLE_ERROR] Cycle-based error applied! address=0x1924288ec0 additional_latency=1990500 cycles
Heartbeat CPU 0 instructions: 140000027 cycles: 370415043 heartbeat IPC: 0.3791 cumulative IPC: 0.378 (Simulation time: 00 hr 34 min 27 sec)
[ERROR_CYCLE] Error added at CPU cycle 386445705, interval 15, pending count: 1
[DRAM_CYCLE_ERROR] Cycle-based error applied! address=0x22f223a50 additional_latency=1990500 cycles
Heartbeat CPU 0 instructions: 150000029 cycles: 396795047 heartbeat IPC: 0.3791 cumulative IPC: 0.378 (Simulation time: 00 hr 37 min 07 sec)
[ERROR_CYCLE] Error added at CPU cycle 412208752, interval 16, pending count: 1
[DRAM_CYCLE_ERROR] Cycle-based error applied! address=0x1b150dfe48 additional_latency=1990500 cycles
Heartbeat CPU 0 instructions: 160000031 cycles: 423270107 heartbeat IPC: 0.3777 cumulative IPC: 0.378 (Simulation time: 00 hr 39 min 47 sec)
[ERROR_CYCLE] Error added at CPU cycle 437971800, interval 17, pending count: 1
[DRAM_CYCLE_ERROR] Cycle-based error applied! address=0x30a9c40c8 additional_latency=1990500 cycles
Heartbeat CPU 0 instructions: 170000034 cycles: 449670695 heartbeat IPC: 0.3788 cumulative IPC: 0.3781 (Simulation time: 00 hr 42 min 27 sec)
[ERROR_CYCLE] Error added at CPU cycle 463734846, interval 18, pending count: 1
[DRAM_CYCLE_ERROR] Cycle-based error applied! address=0x1f5640adc0 additional_latency=1990500 cycles
Heartbeat CPU 0 instructions: 180000036 cycles: 476080616 heartbeat IPC: 0.3786 cumulative IPC: 0.3781 (Simulation time: 00 hr 45 min 07 sec)
[ERROR_CYCLE] Error added at CPU cycle 489497893, interval 19, pending count: 1
[DRAM_CYCLE_ERROR] Cycle-based error applied! address=0x1ff8a04808 additional_latency=1990500 cycles
Heartbeat CPU 0 instructions: 190000039 cycles: 502599140 heartbeat IPC: 0.3771 cumulative IPC: 0.378 (Simulation time: 00 hr 47 min 36 sec)
[ERROR_CYCLE] Error added at CPU cycle 515260941, interval 20, pending count: 1
[DRAM_CYCLE_ERROR] Cycle-based error applied! address=0x19ce4ddfd0 additional_latency=1990500 cycles
Heartbeat CPU 0 instructions: 200000040 cycles: 528975236 heartbeat IPC: 0.3791 cumulative IPC: 0.3781 (Simulation time: 00 hr 50 min 15 sec)
[ERROR_CYCLE] Error added at CPU cycle 541023987, interval 21, pending count: 1
[DRAM_CYCLE_ERROR] Cycle-based error applied! address=0x1f5b369980 additional_latency=1990500 cycles
Heartbeat CPU 0 instructions: 210000042 cycles: 555358897 heartbeat IPC: 0.379 cumulative IPC: 0.3781 (Simulation time: 00 hr 52 min 54 sec)
[ERROR_CYCLE] Error added at CPU cycle 566787034, interval 22, pending count: 1
[DRAM_CYCLE_ERROR] Cycle-based error applied! address=0x862063248 additional_latency=1990500 cycles
Heartbeat CPU 0 instructions: 220000045 cycles: 581821301 heartbeat IPC: 0.3779 cumulative IPC: 0.3781 (Simulation time: 00 hr 55 min 34 sec)
[ERROR_CYCLE] Error added at CPU cycle 592550082, interval 23, pending count: 1
[DRAM_CYCLE_ERROR] Cycle-based error applied! address=0xa439e78f0 additional_latency=1990500 cycles
Heartbeat CPU 0 instructions: 230000046 cycles: 608255059 heartbeat IPC: 0.3783 cumulative IPC: 0.3781 (Simulation time: 00 hr 58 min 16 sec)
[ERROR_CYCLE] Error added at CPU cycle 618313128, interval 24, pending count: 1
[DRAM_CYCLE_ERROR] Cycle-based error applied! address=0x99d0de158 additional_latency=1990500 cycles
Heartbeat CPU 0 instructions: 240000047 cycles: 634697500 heartbeat IPC: 0.3782 cumulative IPC: 0.3781 (Simulation time: 01 hr 00 min 57 sec)
[ERROR_CYCLE] Error added at CPU cycle 644076176, interval 25, pending count: 1
[DRAM_CYCLE_ERROR] Cycle-based error applied! address=0x1c45eba458 additional_latency=1990500 cycles
Heartbeat CPU 0 instructions: 250000047 cycles: 661095852 heartbeat IPC: 0.3788 cumulative IPC: 0.3782 (Simulation time: 01 hr 03 min 39 sec)
[ERROR_CYCLE] Error added at CPU cycle 669839223, interval 26, pending count: 1
[DRAM_CYCLE_ERROR] Cycle-based error applied! address=0x7a7c43008 additional_latency=1990500 cycles
Heartbeat CPU 0 instructions: 260000051 cycles: 687553039 heartbeat IPC: 0.378 cumulative IPC: 0.3782 (Simulation time: 01 hr 06 min 06 sec)
[ERROR_CYCLE] Error added at CPU cycle 695602269, interval 27, pending count: 1
[DRAM_CYCLE_ERROR] Cycle-based error applied! address=0x218706390 additional_latency=1990500 cycles
Heartbeat CPU 0 instructions: 270000051 cycles: 713997699 heartbeat IPC: 0.3781 cumulative IPC: 0.3782 (Simulation time: 01 hr 08 min 45 sec)
[ERROR_CYCLE] Error added at CPU cycle 721365317, interval 28, pending count: 1
[DRAM_CYCLE_ERROR] Cycle-based error applied! address=0xd0c7003d0 additional_latency=1990500 cycles
Heartbeat CPU 0 instructions: 280000052 cycles: 740415809 heartbeat IPC: 0.3785 cumulative IPC: 0.3782 (Simulation time: 01 hr 11 min 20 sec)
[ERROR_CYCLE] Error added at CPU cycle 747128363, interval 29, pending count: 1
[DRAM_CYCLE_ERROR] Cycle-based error applied! address=0xa17a6d948 additional_latency=1990500 cycles
Heartbeat CPU 0 instructions: 290000052 cycles: 766814539 heartbeat IPC: 0.3788 cumulative IPC: 0.3782 (Simulation time: 01 hr 13 min 35 sec)
[ERROR_CYCLE] Error added at CPU cycle 772891410, interval 30, pending count: 1
[DRAM_CYCLE_ERROR] Cycle-based error applied! address=0xe7057c188 additional_latency=1990500 cycles
Heartbeat CPU 0 instructions: 300000056 cycles: 793216332 heartbeat IPC: 0.3788 cumulative IPC: 0.3782 (Simulation time: 01 hr 15 min 44 sec)
[ERROR_CYCLE] Error added at CPU cycle 798654458, interval 31, pending count: 1
[DRAM_CYCLE_ERROR] Cycle-based error applied! address=0x1e30e6a148 additional_latency=1990500 cycles
Heartbeat CPU 0 instructions: 310000056 cycles: 819631035 heartbeat IPC: 0.3786 cumulative IPC: 0.3782 (Simulation time: 01 hr 18 min 20 sec)
[ERROR_CYCLE] Error added at CPU cycle 824417504, interval 32, pending count: 1
[DRAM_CYCLE_ERROR] Cycle-based error applied! address=0x1119a3b6d0 additional_latency=1990500 cycles
Heartbeat CPU 0 instructions: 320000059 cycles: 846055017 heartbeat IPC: 0.3784 cumulative IPC: 0.3782 (Simulation time: 01 hr 20 min 46 sec)
[ERROR_CYCLE] Error added at CPU cycle 850180551, interval 33, pending count: 1
[DRAM_CYCLE_ERROR] Cycle-based error applied! address=0x11b4d49508 additional_latency=1990500 cycles
Heartbeat CPU 0 instructions: 330000059 cycles: 872472195 heartbeat IPC: 0.3785 cumulative IPC: 0.3782 (Simulation time: 01 hr 22 min 58 sec)
[ERROR_CYCLE] Error added at CPU cycle 875943599, interval 34, pending count: 1
[DRAM_CYCLE_ERROR] Cycle-based error applied! address=0x1f06d8d40 additional_latency=1990500 cycles
Heartbeat CPU 0 instructions: 340000061 cycles: 898918585 heartbeat IPC: 0.3781 cumulative IPC: 0.3782 (Simulation time: 01 hr 24 min 48 sec)
[ERROR_CYCLE] Error added at CPU cycle 901706645, interval 35, pending count: 1
[DRAM_CYCLE_ERROR] Cycle-based error applied! address=0x17ce911998 additional_latency=1990500 cycles
Heartbeat CPU 0 instructions: 350000063 cycles: 925323578 heartbeat IPC: 0.3787 cumulative IPC: 0.3782 (Simulation time: 01 hr 27 min 13 sec)
[ERROR_CYCLE] Error added at CPU cycle 927469692, interval 36, pending count: 1
[DRAM_CYCLE_ERROR] Cycle-based error applied! address=0x9ead3310 additional_latency=1990500 cycles
Heartbeat CPU 0 instructions: 360000064 cycles: 951718674 heartbeat IPC: 0.3789 cumulative IPC: 0.3783 (Simulation time: 01 hr 29 min 21 sec)
[ERROR_CYCLE] Error added at CPU cycle 953232740, interval 37, pending count: 1
[DRAM_CYCLE_ERROR] Cycle-based error applied! address=0x13a959de48 additional_latency=1990500 cycles
Heartbeat CPU 0 instructions: 370000067 cycles: 978093204 heartbeat IPC: 0.3792 cumulative IPC: 0.3783 (Simulation time: 01 hr 31 min 57 sec)
[ERROR_CYCLE] Error added at CPU cycle 978995786, interval 38, pending count: 1
[DRAM_CYCLE_ERROR] Cycle-based error applied! address=0xf6eca89e0 additional_latency=1990500 cycles
Heartbeat CPU 0 instructions: 380000068 cycles: 1004563263 heartbeat IPC: 0.3778 cumulative IPC: 0.3783 (Simulation time: 01 hr 34 min 37 sec)
[ERROR_CYCLE] Error added at CPU cycle 1004758834, interval 39, pending count: 1
[DRAM_CYCLE_ERROR] Cycle-based error applied! address=0x791853a70 additional_latency=1990500 cycles
[ERROR_CYCLE] Error added at CPU cycle 1030521880, interval 40, pending count: 1
[DRAM_CYCLE_ERROR] Cycle-based error applied! address=0x1877d44e80 additional_latency=1990500 cycles
Heartbeat CPU 0 instructions: 390000071 cycles: 1031016031 heartbeat IPC: 0.378 cumulative IPC: 0.3783 (Simulation time: 01 hr 37 min 15 sec)
[ERROR_CYCLE] Error added at CPU cycle 1056284927, interval 41, pending count: 1
[DRAM_CYCLE_ERROR] Cycle-based error applied! address=0xf0b0a5c8 additional_latency=1990500 cycles
Heartbeat CPU 0 instructions: 400000074 cycles: 1057474516 heartbeat IPC: 0.378 cumulative IPC: 0.3783 (Simulation time: 01 hr 39 min 56 sec)
[ERROR_CYCLE] Error added at CPU cycle 1082047975, interval 42, pending count: 1
[DRAM_CYCLE_ERROR] Cycle-based error applied! address=0x1227dfc980 additional_latency=1990500 cycles
Heartbeat CPU 0 instructions: 410000076 cycles: 1083930895 heartbeat IPC: 0.378 cumulative IPC: 0.3783 (Simulation time: 01 hr 42 min 33 sec)
[ERROR_CYCLE] Error added at CPU cycle 1107811021, interval 43, pending count: 1
[DRAM_CYCLE_ERROR] Cycle-based error applied! address=0x1a6891ea0 additional_latency=1990500 cycles
Heartbeat CPU 0 instructions: 420000076 cycles: 1110362386 heartbeat IPC: 0.3783 cumulative IPC: 0.3783 (Simulation time: 01 hr 44 min 39 sec)
[ERROR_CYCLE] Error added at CPU cycle 1133574068, interval 44, pending count: 1
[DRAM_CYCLE_ERROR] Cycle-based error applied! address=0xb87053548 additional_latency=1990500 cycles
Heartbeat CPU 0 instructions: 430000076 cycles: 1136756142 heartbeat IPC: 0.3789 cumulative IPC: 0.3783 (Simulation time: 01 hr 46 min 48 sec)
[ERROR_CYCLE] Error added at CPU cycle 1159337116, interval 45, pending count: 1
[DRAM_CYCLE_ERROR] Cycle-based error applied! address=0x16f71dd388 additional_latency=1990500 cycles
Heartbeat CPU 0 instructions: 440000080 cycles: 1163168350 heartbeat IPC: 0.3786 cumulative IPC: 0.3783 (Simulation time: 01 hr 48 min 55 sec)
[ERROR_CYCLE] Error added at CPU cycle 1185100162, interval 46, pending count: 1
[DRAM_CYCLE_ERROR] Cycle-based error applied! address=0x1e44e6d888 additional_latency=1990500 cycles
Heartbeat CPU 0 instructions: 450000081 cycles: 1189575504 heartbeat IPC: 0.3787 cumulative IPC: 0.3783 (Simulation time: 01 hr 51 min 18 sec)
[ERROR_CYCLE] Error added at CPU cycle 1210863209, interval 47, pending count: 1
[DRAM_CYCLE_ERROR] Cycle-based error applied! address=0x80a5c0808 additional_latency=1990500 cycles
Heartbeat CPU 0 instructions: 460000083 cycles: 1215928479 heartbeat IPC: 0.3795 cumulative IPC: 0.3783 (Simulation time: 01 hr 53 min 21 sec)
[ERROR_CYCLE] Error added at CPU cycle 1236626257, interval 48, pending count: 1
[DRAM_CYCLE_ERROR] Cycle-based error applied! address=0x181f5e0598 additional_latency=1990500 cycles
Heartbeat CPU 0 instructions: 470000085 cycles: 1242263971 heartbeat IPC: 0.3797 cumulative IPC: 0.3783 (Simulation time: 01 hr 56 min 02 sec)
[ERROR_CYCLE] Error added at CPU cycle 1262389303, interval 49, pending count: 1
[DRAM_CYCLE_ERROR] Cycle-based error applied! address=0x6e9485398 additional_latency=1990500 cycles
Heartbeat CPU 0 instructions: 480000086 cycles: 1268617494 heartbeat IPC: 0.3795 cumulative IPC: 0.3784 (Simulation time: 01 hr 58 min 41 sec)
[ERROR_CYCLE] Error added at CPU cycle 1288152351, interval 50, pending count: 1
[DRAM_CYCLE_ERROR] Cycle-based error applied! address=0x10fb652a90 additional_latency=1990500 cycles
Heartbeat CPU 0 instructions: 490000086 cycles: 1294951086 heartbeat IPC: 0.3797 cumulative IPC: 0.3784 (Simulation time: 02 hr 01 min 21 sec)
[ERROR_CYCLE] Error added at CPU cycle 1313915398, interval 51, pending count: 1
[DRAM_CYCLE_ERROR] Cycle-based error applied! address=0xc9ab30f00 additional_latency=1990500 cycles
Heartbeat CPU 0 instructions: 500000086 cycles: 1321396040 heartbeat IPC: 0.3781 cumulative IPC: 0.3784 (Simulation time: 02 hr 03 min 41 sec)
[ERROR_CYCLE] Error added at CPU cycle 1339678444, interval 52, pending count: 1
[DRAM_CYCLE_ERROR] Cycle-based error applied! address=0x1f45a01b00 additional_latency=1990500 cycles
Heartbeat CPU 0 instructions: 510000087 cycles: 1347783002 heartbeat IPC: 0.379 cumulative IPC: 0.3784 (Simulation time: 02 hr 06 min 18 sec)
[ERROR_CYCLE] Error added at CPU cycle 1365441492, interval 53, pending count: 1
[DRAM_CYCLE_ERROR] Cycle-based error applied! address=0x5d3140408 additional_latency=1990500 cycles
Heartbeat CPU 0 instructions: 520000087 cycles: 1374138327 heartbeat IPC: 0.3794 cumulative IPC: 0.3784 (Simulation time: 02 hr 08 min 55 sec)
[ERROR_CYCLE] Error added at CPU cycle 1391204538, interval 54, pending count: 1
[DRAM_CYCLE_ERROR] Cycle-based error applied! address=0x16cebb1a90 additional_latency=1990500 cycles
Heartbeat CPU 0 instructions: 530000091 cycles: 1400516015 heartbeat IPC: 0.3791 cumulative IPC: 0.3784 (Simulation time: 02 hr 11 min 31 sec)
[ERROR_CYCLE] Error added at CPU cycle 1416967585, interval 55, pending count: 1
[DRAM_CYCLE_ERROR] Cycle-based error applied! address=0x18d9a3eed8 additional_latency=1990500 cycles
Heartbeat CPU 0 instructions: 540000093 cycles: 1426968668 heartbeat IPC: 0.378 cumulative IPC: 0.3784 (Simulation time: 02 hr 14 min 10 sec)
[ERROR_CYCLE] Error added at CPU cycle 1442730633, interval 56, pending count: 1
[DRAM_CYCLE_ERROR] Cycle-based error applied! address=0x1beb129818 additional_latency=1990500 cycles
Heartbeat CPU 0 instructions: 550000093 cycles: 1453346431 heartbeat IPC: 0.3791 cumulative IPC: 0.3784 (Simulation time: 02 hr 16 min 48 sec)
[ERROR_CYCLE] Error added at CPU cycle 1468493679, interval 57, pending count: 1
[DRAM_CYCLE_ERROR] Cycle-based error applied! address=0x750f57fc0 additional_latency=1990500 cycles
Heartbeat CPU 0 instructions: 560000095 cycles: 1479752203 heartbeat IPC: 0.3787 cumulative IPC: 0.3784 (Simulation time: 02 hr 19 min 28 sec)
[ERROR_CYCLE] Error added at CPU cycle 1494256726, interval 58, pending count: 1
[DRAM_CYCLE_ERROR] Cycle-based error applied! address=0x34f5a5088 additional_latency=1990500 cycles
Heartbeat CPU 0 instructions: 570000095 cycles: 1506158125 heartbeat IPC: 0.3787 cumulative IPC: 0.3784 (Simulation time: 02 hr 21 min 47 sec)
[ERROR_CYCLE] Error added at CPU cycle 1520019774, interval 59, pending count: 1
[DRAM_CYCLE_ERROR] Cycle-based error applied! address=0xc8d01f658 additional_latency=1990500 cycles
Heartbeat CPU 0 instructions: 580000099 cycles: 1532565352 heartbeat IPC: 0.3787 cumulative IPC: 0.3785 (Simulation time: 02 hr 23 min 57 sec)
[ERROR_CYCLE] Error added at CPU cycle 1545782820, interval 60, pending count: 1
[DRAM_CYCLE_ERROR] Cycle-based error applied! address=0x1fa8e3be80 additional_latency=1990500 cycles
Heartbeat CPU 0 instructions: 590000102 cycles: 1558969368 heartbeat IPC: 0.3787 cumulative IPC: 0.3785 (Simulation time: 02 hr 25 min 55 sec)
[ERROR_CYCLE] Error added at CPU cycle 1571545867, interval 61, pending count: 1
[DRAM_CYCLE_ERROR] Cycle-based error applied! address=0x5145be350 additional_latency=1990500 cycles
Heartbeat CPU 0 instructions: 600000104 cycles: 1585420259 heartbeat IPC: 0.3781 cumulative IPC: 0.3784 (Simulation time: 02 hr 28 min 14 sec)
[ERROR_CYCLE] Error added at CPU cycle 1597308915, interval 62, pending count: 1
[DRAM_CYCLE_ERROR] Cycle-based error applied! address=0x53b7cf50 additional_latency=1990500 cycles
Heartbeat CPU 0 instructions: 610000105 cycles: 1611879832 heartbeat IPC: 0.3779 cumulative IPC: 0.3784 (Simulation time: 02 hr 30 min 54 sec)
[ERROR_CYCLE] Error added at CPU cycle 1623071961, interval 63, pending count: 1
[DRAM_CYCLE_ERROR] Cycle-based error applied! address=0x5ef5bb6a0 additional_latency=1990500 cycles
Heartbeat CPU 0 instructions: 620000107 cycles: 1640294153 heartbeat IPC: 0.3519 cumulative IPC: 0.378 (Simulation time: 02 hr 33 min 34 sec)
[ERROR_CYCLE] Error added at CPU cycle 1648835009, interval 64, pending count: 1
[DRAM_CYCLE_ERROR] Cycle-based error applied! address=0x2a5a3f2c0 additional_latency=1990500 cycles
Heartbeat CPU 0 instructions: 630000107 cycles: 1667499407 heartbeat IPC: 0.3676 cumulative IPC: 0.3778 (Simulation time: 02 hr 36 min 02 sec)
[ERROR_CYCLE] Error added at CPU cycle 1674598055, interval 65, pending count: 1
[DRAM_CYCLE_ERROR] Cycle-based error applied! address=0x1c3a8c9c80 additional_latency=1990500 cycles
Heartbeat CPU 0 instructions: 640000107 cycles: 1694257716 heartbeat IPC: 0.3737 cumulative IPC: 0.3777 (Simulation time: 02 hr 38 min 23 sec)
[ERROR_CYCLE] Error added at CPU cycle 1700361102, interval 66, pending count: 1
[DRAM_CYCLE_ERROR] Cycle-based error applied! address=0x107a6dada0 additional_latency=1990500 cycles
Heartbeat CPU 0 instructions: 650000107 cycles: 1721227212 heartbeat IPC: 0.3708 cumulative IPC: 0.3776 (Simulation time: 02 hr 40 min 26 sec)
[ERROR_CYCLE] Error added at CPU cycle 1726124150, interval 67, pending count: 1
[DRAM_CYCLE_ERROR] Cycle-based error applied! address=0x19665d6d80 additional_latency=1990500 cycles
Heartbeat CPU 0 instructions: 660000108 cycles: 1747762179 heartbeat IPC: 0.3769 cumulative IPC: 0.3776 (Simulation time: 02 hr 42 min 45 sec)
[ERROR_CYCLE] Error added at CPU cycle 1751887196, interval 68, pending count: 1
[DRAM_CYCLE_ERROR] Cycle-based error applied! address=0x18a8d40d50 additional_latency=1990500 cycles
Heartbeat CPU 0 instructions: 670000109 cycles: 1774213852 heartbeat IPC: 0.378 cumulative IPC: 0.3776 (Simulation time: 02 hr 45 min 23 sec)
[ERROR_CYCLE] Error added at CPU cycle 1777650243, interval 69, pending count: 1
[DRAM_CYCLE_ERROR] Cycle-based error applied! address=0x18fd439d30 additional_latency=1990500 cycles
Heartbeat CPU 0 instructions: 680000110 cycles: 1800628468 heartbeat IPC: 0.3786 cumulative IPC: 0.3776 (Simulation time: 02 hr 48 min 00 sec)
[ERROR_CYCLE] Error added at CPU cycle 1803413291, interval 70, pending count: 1
[DRAM_CYCLE_ERROR] Cycle-based error applied! address=0xaa7680980 additional_latency=1990500 cycles
Heartbeat CPU 0 instructions: 690000111 cycles: 1826953211 heartbeat IPC: 0.3799 cumulative IPC: 0.3777 (Simulation time: 02 hr 50 min 37 sec)
[ERROR_CYCLE] Error added at CPU cycle 1829176337, interval 71, pending count: 1
[DRAM_CYCLE_ERROR] Cycle-based error applied! address=0xb3fd18aa0 additional_latency=1990500 cycles
Heartbeat CPU 0 instructions: 700000115 cycles: 1853266485 heartbeat IPC: 0.38 cumulative IPC: 0.3777 (Simulation time: 02 hr 52 min 55 sec)
[ERROR_CYCLE] Error added at CPU cycle 1854939384, interval 72, pending count: 1
[DRAM_CYCLE_ERROR] Cycle-based error applied! address=0xcfc441c8 additional_latency=1990500 cycles
Heartbeat CPU 0 instructions: 710000116 cycles: 1879595928 heartbeat IPC: 0.3798 cumulative IPC: 0.3777 (Simulation time: 02 hr 54 min 57 sec)
[ERROR_CYCLE] Error added at CPU cycle 1880702432, interval 73, pending count: 1
[DRAM_CYCLE_ERROR] Cycle-based error applied! address=0x13e4d70990 additional_latency=1990500 cycles
Heartbeat CPU 0 instructions: 720000117 cycles: 1905918327 heartbeat IPC: 0.3799 cumulative IPC: 0.3778 (Simulation time: 02 hr 56 min 53 sec)
[ERROR_CYCLE] Error added at CPU cycle 1906465478, interval 74, pending count: 1
[DRAM_CYCLE_ERROR] Cycle-based error applied! address=0xd768ae910 additional_latency=1990500 cycles
[ERROR_CYCLE] Error added at CPU cycle 1932228526, interval 75, pending count: 1
[DRAM_CYCLE_ERROR] Cycle-based error applied! address=0xb832b0c60 additional_latency=1990500 cycles
Heartbeat CPU 0 instructions: 730000120 cycles: 1932298398 heartbeat IPC: 0.3791 cumulative IPC: 0.3778 (Simulation time: 02 hr 58 min 58 sec)
[ERROR_CYCLE] Error added at CPU cycle 1957991572, interval 76, pending count: 1
[DRAM_CYCLE_ERROR] Cycle-based error applied! address=0x18e3c57308 additional_latency=1990500 cycles
Heartbeat CPU 0 instructions: 740000121 cycles: 1958752100 heartbeat IPC: 0.378 cumulative IPC: 0.3778 (Simulation time: 03 hr 01 min 31 sec)
[ERROR_CYCLE] Error added at CPU cycle 1983754619, interval 77, pending count: 1
[DRAM_CYCLE_ERROR] Cycle-based error applied! address=0x1e3b8c50c8 additional_latency=1990500 cycles
Heartbeat CPU 0 instructions: 750000122 cycles: 1985173293 heartbeat IPC: 0.3785 cumulative IPC: 0.3778 (Simulation time: 03 hr 03 min 37 sec)
[ERROR_CYCLE] Error added at CPU cycle 2009517667, interval 78, pending count: 1
[DRAM_CYCLE_ERROR] Cycle-based error applied! address=0xe30999758 additional_latency=1990500 cycles
Heartbeat CPU 0 instructions: 760000122 cycles: 2011596039 heartbeat IPC: 0.3785 cumulative IPC: 0.3778 (Simulation time: 03 hr 05 min 55 sec)
[ERROR_CYCLE] Error added at CPU cycle 2035280713, interval 79, pending count: 1
[DRAM_CYCLE_ERROR] Cycle-based error applied! address=0x782ea6c50 additional_latency=1990500 cycles
Heartbeat CPU 0 instructions: 770000122 cycles: 2037990733 heartbeat IPC: 0.3789 cumulative IPC: 0.3778 (Simulation time: 03 hr 08 min 33 sec)
[ERROR_CYCLE] Error added at CPU cycle 2061043760, interval 80, pending count: 1
[DRAM_CYCLE_ERROR] Cycle-based error applied! address=0x531871f88 additional_latency=1990500 cycles
Heartbeat CPU 0 instructions: 780000124 cycles: 2064371016 heartbeat IPC: 0.3791 cumulative IPC: 0.3778 (Simulation time: 03 hr 10 min 49 sec)
[ERROR_CYCLE] Error added at CPU cycle 2086806808, interval 81, pending count: 1
[DRAM_CYCLE_ERROR] Cycle-based error applied! address=0x909be7008 additional_latency=1990500 cycles
Heartbeat CPU 0 instructions: 790000127 cycles: 2090698217 heartbeat IPC: 0.3798 cumulative IPC: 0.3779 (Simulation time: 03 hr 13 min 02 sec)
[ERROR_CYCLE] Error added at CPU cycle 2112569854, interval 82, pending count: 1
[DRAM_CYCLE_ERROR] Cycle-based error applied! address=0xd93a4cd40 additional_latency=1990500 cycles
Heartbeat CPU 0 instructions: 800000128 cycles: 2117128457 heartbeat IPC: 0.3784 cumulative IPC: 0.3779 (Simulation time: 03 hr 15 min 24 sec)
[ERROR_CYCLE] Error added at CPU cycle 2138332901, interval 83, pending count: 1
[DRAM_CYCLE_ERROR] Cycle-based error applied! address=0x9b3fada08 additional_latency=1990500 cycles
Heartbeat CPU 0 instructions: 810000128 cycles: 2143515756 heartbeat IPC: 0.379 cumulative IPC: 0.3779 (Simulation time: 03 hr 17 min 22 sec)
[ERROR_CYCLE] Error added at CPU cycle 2164095949, interval 84, pending count: 1
[DRAM_CYCLE_ERROR] Cycle-based error applied! address=0x1f1c327680 additional_latency=1990500 cycles
Heartbeat CPU 0 instructions: 820000128 cycles: 2169931571 heartbeat IPC: 0.3786 cumulative IPC: 0.3779 (Simulation time: 03 hr 19 min 36 sec)
[ERROR_CYCLE] Error added at CPU cycle 2189858995, interval 85, pending count: 1
[DRAM_CYCLE_ERROR] Cycle-based error applied! address=0x22249f140 additional_latency=1990500 cycles
Heartbeat CPU 0 instructions: 830000128 cycles: 2196326105 heartbeat IPC: 0.3789 cumulative IPC: 0.3779 (Simulation time: 03 hr 22 min 09 sec)
[ERROR_CYCLE] Error added at CPU cycle 2215622043, interval 86, pending count: 1
[DRAM_CYCLE_ERROR] Cycle-based error applied! address=0x1f09e1b300 additional_latency=1990500 cycles
Heartbeat CPU 0 instructions: 840000128 cycles: 2222732060 heartbeat IPC: 0.3787 cumulative IPC: 0.3779 (Simulation time: 03 hr 24 min 47 sec)
[ERROR_CYCLE] Error added at CPU cycle 2241385090, interval 87, pending count: 1
[DRAM_CYCLE_ERROR] Cycle-based error applied! address=0xd3d497000 additional_latency=1990500 cycles
Heartbeat CPU 0 instructions: 850000131 cycles: 2249139872 heartbeat IPC: 0.3787 cumulative IPC: 0.3779 (Simulation time: 03 hr 27 min 17 sec)
[ERROR_CYCLE] Error added at CPU cycle 2267148136, interval 88, pending count: 1
[DRAM_CYCLE_ERROR] Cycle-based error applied! address=0x238562f48 additional_latency=1990500 cycles
Heartbeat CPU 0 instructions: 860000134 cycles: 2275452908 heartbeat IPC: 0.38 cumulative IPC: 0.3779 (Simulation time: 03 hr 29 min 15 sec)
[ERROR_CYCLE] Error added at CPU cycle 2292911184, interval 89, pending count: 1
[DRAM_CYCLE_ERROR] Cycle-based error applied! address=0x11613a1810 additional_latency=1990500 cycles
Heartbeat CPU 0 instructions: 870000134 cycles: 2301785886 heartbeat IPC: 0.3798 cumulative IPC: 0.378 (Simulation time: 03 hr 31 min 26 sec)
[ERROR_CYCLE] Error added at CPU cycle 2318674230, interval 90, pending count: 1
[DRAM_CYCLE_ERROR] Cycle-based error applied! address=0x1c7f51790 additional_latency=1990500 cycles
Heartbeat CPU 0 instructions: 880000136 cycles: 2328100052 heartbeat IPC: 0.38 cumulative IPC: 0.378 (Simulation time: 03 hr 33 min 14 sec)
[ERROR_CYCLE] Error added at CPU cycle 2344437277, interval 91, pending count: 1
[DRAM_CYCLE_ERROR] Cycle-based error applied! address=0x254b9cc0 additional_latency=1990500 cycles
Heartbeat CPU 0 instructions: 890000137 cycles: 2354466482 heartbeat IPC: 0.3793 cumulative IPC: 0.378 (Simulation time: 03 hr 35 min 09 sec)
[ERROR_CYCLE] Error added at CPU cycle 2370200325, interval 92, pending count: 1
[DRAM_CYCLE_ERROR] Cycle-based error applied! address=0x510b97580 additional_latency=1990500 cycles
Heartbeat CPU 0 instructions: 900000137 cycles: 2380815998 heartbeat IPC: 0.3795 cumulative IPC: 0.378 (Simulation time: 03 hr 37 min 04 sec)
[ERROR_CYCLE] Error added at CPU cycle 2395963371, interval 93, pending count: 1
[DRAM_CYCLE_ERROR] Cycle-based error applied! address=0xb66583500 additional_latency=1990500 cycles
Heartbeat CPU 0 instructions: 910000140 cycles: 2407163618 heartbeat IPC: 0.3795 cumulative IPC: 0.378 (Simulation time: 03 hr 39 min 25 sec)
[ERROR_CYCLE] Error added at CPU cycle 2421726418, interval 94, pending count: 1
[DRAM_CYCLE_ERROR] Cycle-based error applied! address=0x701544ed0 additional_latency=1990500 cycles
Heartbeat CPU 0 instructions: 920000140 cycles: 2433493967 heartbeat IPC: 0.3798 cumulative IPC: 0.3781 (Simulation time: 03 hr 41 min 24 sec)
[ERROR_CYCLE] Error added at CPU cycle 2447489466, interval 95, pending count: 1
[DRAM_CYCLE_ERROR] Cycle-based error applied! address=0x1a4b02ff58 additional_latency=1990500 cycles
Heartbeat CPU 0 instructions: 930000140 cycles: 2459828626 heartbeat IPC: 0.3797 cumulative IPC: 0.3781 (Simulation time: 03 hr 43 min 41 sec)
[ERROR_CYCLE] Error added at CPU cycle 2473252512, interval 96, pending count: 1
[DRAM_CYCLE_ERROR] Cycle-based error applied! address=0x1b0ebe1160 additional_latency=1990500 cycles
Heartbeat CPU 0 instructions: 940000144 cycles: 2486177454 heartbeat IPC: 0.3795 cumulative IPC: 0.3781 (Simulation time: 03 hr 45 min 22 sec)
[ERROR_CYCLE] Error added at CPU cycle 2499015559, interval 97, pending count: 1
[DRAM_CYCLE_ERROR] Cycle-based error applied! address=0x10d27eff58 additional_latency=1990500 cycles
Heartbeat CPU 0 instructions: 950000147 cycles: 2512514955 heartbeat IPC: 0.3797 cumulative IPC: 0.3781 (Simulation time: 03 hr 47 min 42 sec)
[ERROR_CYCLE] Error added at CPU cycle 2524778607, interval 98, pending count: 1
[DRAM_CYCLE_ERROR] Cycle-based error applied! address=0x1b2ffb8750 additional_latency=1990500 cycles
Heartbeat CPU 0 instructions: 960000147 cycles: 2538857757 heartbeat IPC: 0.3796 cumulative IPC: 0.3781 (Simulation time: 03 hr 50 min 21 sec)
[ERROR_CYCLE] Error added at CPU cycle 2550541653, interval 99, pending count: 1
[DRAM_CYCLE_ERROR] Cycle-based error applied! address=0x31eaf4218 additional_latency=1990500 cycles
Heartbeat CPU 0 instructions: 970000149 cycles: 2565184176 heartbeat IPC: 0.3798 cumulative IPC: 0.3781 (Simulation time: 03 hr 52 min 23 sec)
[ERROR_CYCLE] Error added at CPU cycle 2576304701, interval 100, pending count: 1
[DRAM_CYCLE_ERROR] Cycle-based error applied! address=0x2404de980 additional_latency=1990500 cycles
Heartbeat CPU 0 instructions: 980000150 cycles: 2591521587 heartbeat IPC: 0.3797 cumulative IPC: 0.3782 (Simulation time: 03 hr 54 min 13 sec)
[ERROR_CYCLE] Error added at CPU cycle 2602067747, interval 101, pending count: 1
[DRAM_CYCLE_ERROR] Cycle-based error applied! address=0x555fd9400 additional_latency=1990500 cycles
Heartbeat CPU 0 instructions: 990000150 cycles: 2617831176 heartbeat IPC: 0.3801 cumulative IPC: 0.3782 (Simulation time: 03 hr 56 min 18 sec)
[ERROR_CYCLE] Error added at CPU cycle 2627830794, interval 102, pending count: 1
[DRAM_CYCLE_ERROR] Cycle-based error applied! address=0x69e8165e0 additional_latency=1990500 cycles
Heartbeat CPU 0 instructions: 1000000152 cycles: 2644191940 heartbeat IPC: 0.3794 cumulative IPC: 0.3782 (Simulation time: 03 hr 58 min 28 sec)
[ERROR_CYCLE] Error added at CPU cycle 2653593842, interval 103, pending count: 1
[DRAM_CYCLE_ERROR] Cycle-based error applied! address=0x15e5bbea10 additional_latency=1990500 cycles
Heartbeat CPU 0 instructions: 1010000153 cycles: 2670514239 heartbeat IPC: 0.3799 cumulative IPC: 0.3782 (Simulation time: 04 hr 00 min 36 sec)
[ERROR_CYCLE] Error added at CPU cycle 2679356888, interval 104, pending count: 1
[DRAM_CYCLE_ERROR] Cycle-based error applied! address=0x1a6b745460 additional_latency=1990500 cycles
Heartbeat CPU 0 instructions: 1020000155 cycles: 2696829561 heartbeat IPC: 0.38 cumulative IPC: 0.3782 (Simulation time: 04 hr 02 min 46 sec)
[ERROR_CYCLE] Error added at CPU cycle 2705119935, interval 105, pending count: 1
[DRAM_CYCLE_ERROR] Cycle-based error applied! address=0x9760dd190 additional_latency=1990500 cycles
Heartbeat CPU 0 instructions: 1030000155 cycles: 2723160947 heartbeat IPC: 0.3798 cumulative IPC: 0.3782 (Simulation time: 04 hr 04 min 57 sec)
[ERROR_CYCLE] Error added at CPU cycle 2730882983, interval 106, pending count: 1
[DRAM_CYCLE_ERROR] Cycle-based error applied! address=0x895d12288 additional_latency=1990500 cycles
Heartbeat CPU 0 instructions: 1040000157 cycles: 2749497305 heartbeat IPC: 0.3797 cumulative IPC: 0.3783 (Simulation time: 04 hr 07 min 03 sec)
[ERROR_CYCLE] Error added at CPU cycle 2756646029, interval 107, pending count: 1
[DRAM_CYCLE_ERROR] Cycle-based error applied! address=0x46e92c258 additional_latency=1990500 cycles
Heartbeat CPU 0 instructions: 1050000160 cycles: 2775814988 heartbeat IPC: 0.38 cumulative IPC: 0.3783 (Simulation time: 04 hr 09 min 07 sec)
[ERROR_CYCLE] Error added at CPU cycle 2782409076, interval 108, pending count: 1
[DRAM_CYCLE_ERROR] Cycle-based error applied! address=0x1e64fdda60 additional_latency=1990500 cycles
Heartbeat CPU 0 instructions: 1060000161 cycles: 2802163050 heartbeat IPC: 0.3795 cumulative IPC: 0.3783 (Simulation time: 04 hr 11 min 25 sec)
[ERROR_CYCLE] Error added at CPU cycle 2808172124, interval 109, pending count: 1
[DRAM_CYCLE_ERROR] Cycle-based error applied! address=0x197e139e20 additional_latency=1990500 cycles
Heartbeat CPU 0 instructions: 1070000162 cycles: 2828492981 heartbeat IPC: 0.3798 cumulative IPC: 0.3783 (Simulation time: 04 hr 14 min 05 sec)
[ERROR_CYCLE] Error added at CPU cycle 2833935170, interval 110, pending count: 1
[DRAM_CYCLE_ERROR] Cycle-based error applied! address=0x1eff654980 additional_latency=1990500 cycles
Heartbeat CPU 0 instructions: 1080000163 cycles: 2854833097 heartbeat IPC: 0.3796 cumulative IPC: 0.3783 (Simulation time: 04 hr 16 min 44 sec)
[ERROR_CYCLE] Error added at CPU cycle 2859698218, interval 111, pending count: 1
[DRAM_CYCLE_ERROR] Cycle-based error applied! address=0x1db1882308 additional_latency=1990500 cycles
Heartbeat CPU 0 instructions: 1090000163 cycles: 2881161480 heartbeat IPC: 0.3798 cumulative IPC: 0.3783 (Simulation time: 04 hr 19 min 24 sec)
[ERROR_CYCLE] Error added at CPU cycle 2885461265, interval 112, pending count: 1
[DRAM_CYCLE_ERROR] Cycle-based error applied! address=0x450f97700 additional_latency=1990500 cycles
Heartbeat CPU 0 instructions: 1100000164 cycles: 2907539994 heartbeat IPC: 0.3791 cumulative IPC: 0.3783 (Simulation time: 04 hr 21 min 53 sec)
[ERROR_CYCLE] Error added at CPU cycle 2911224311, interval 113, pending count: 1
[DRAM_CYCLE_ERROR] Cycle-based error applied! address=0x1d7c8c2718 additional_latency=1990500 cycles
Heartbeat CPU 0 instructions: 1110000164 cycles: 2933893131 heartbeat IPC: 0.3795 cumulative IPC: 0.3783 (Simulation time: 04 hr 24 min 32 sec)
[ERROR_CYCLE] Error added at CPU cycle 2936987359, interval 114, pending count: 1
[DRAM_CYCLE_ERROR] Cycle-based error applied! address=0x2d48721e0 additional_latency=1990500 cycles
Heartbeat CPU 0 instructions: 1120000166 cycles: 2960230174 heartbeat IPC: 0.3797 cumulative IPC: 0.3783 (Simulation time: 04 hr 27 min 00 sec)
[ERROR_CYCLE] Error added at CPU cycle 2962750405, interval 115, pending count: 1
[DRAM_CYCLE_ERROR] Cycle-based error applied! address=0x118ee00050 additional_latency=1990500 cycles
Heartbeat CPU 0 instructions: 1130000166 cycles: 2986556567 heartbeat IPC: 0.3798 cumulative IPC: 0.3784 (Simulation time: 04 hr 28 min 59 sec)
[ERROR_CYCLE] Error added at CPU cycle 2988513452, interval 116, pending count: 1
[DRAM_CYCLE_ERROR] Cycle-based error applied! address=0x37551dc88 additional_latency=1990500 cycles
Heartbeat CPU 0 instructions: 1140000169 cycles: 3012884921 heartbeat IPC: 0.3798 cumulative IPC: 0.3784 (Simulation time: 04 hr 31 min 28 sec)
[ERROR_CYCLE] Error added at CPU cycle 3014276500, interval 117, pending count: 1
[DRAM_CYCLE_ERROR] Cycle-based error applied! address=0x18b7e18540 additional_latency=1990500 cycles
Heartbeat CPU 0 instructions: 1150000169 cycles: 3039279197 heartbeat IPC: 0.3789 cumulative IPC: 0.3784 (Simulation time: 04 hr 33 min 29 sec)
[ERROR_CYCLE] Error added at CPU cycle 3040039546, interval 118, pending count: 1
[DRAM_CYCLE_ERROR] Cycle-based error applied! address=0x1a387eb2b0 additional_latency=1990500 cycles
Heartbeat CPU 0 instructions: 1160000171 cycles: 3065633488 heartbeat IPC: 0.3794 cumulative IPC: 0.3784 (Simulation time: 04 hr 36 min 06 sec)
[ERROR_CYCLE] Error added at CPU cycle 3065802593, interval 119, pending count: 1
[DRAM_CYCLE_ERROR] Cycle-based error applied! address=0xa70be5d08 additional_latency=1990500 cycles
[ERROR_CYCLE] Error added at CPU cycle 3091565641, interval 120, pending count: 1
[DRAM_CYCLE_ERROR] Cycle-based error applied! address=0xb4e963f58 additional_latency=1990500 cycles
Heartbeat CPU 0 instructions: 1170000172 cycles: 3091758880 heartbeat IPC: 0.3828 cumulative IPC: 0.3784 (Simulation time: 04 hr 38 min 35 sec)
[ERROR_CYCLE] Error added at CPU cycle 3117328687, interval 121, pending count: 1
[DRAM_CYCLE_ERROR] Cycle-based error applied! address=0x304278210 additional_latency=1990500 cycles
Heartbeat CPU 0 instructions: 1180000173 cycles: 3118047774 heartbeat IPC: 0.3804 cumulative IPC: 0.3784 (Simulation time: 04 hr 40 min 40 sec)
[ERROR_CYCLE] Error added at CPU cycle 3143091734, interval 122, pending count: 1
[DRAM_CYCLE_ERROR] Cycle-based error applied! address=0x16deaf8718 additional_latency=1990500 cycles
Heartbeat CPU 0 instructions: 1190000173 cycles: 3144380646 heartbeat IPC: 0.3798 cumulative IPC: 0.3785 (Simulation time: 04 hr 43 min 10 sec)
[ERROR_CYCLE] Error added at CPU cycle 3168854782, interval 123, pending count: 1
[DRAM_CYCLE_ERROR] Cycle-based error applied! address=0x621cb2100 additional_latency=1990500 cycles
Heartbeat CPU 0 instructions: 1200000173 cycles: 3170700888 heartbeat IPC: 0.3799 cumulative IPC: 0.3785 (Simulation time: 04 hr 45 min 52 sec)
[ERROR_CYCLE] Error added at CPU cycle 3194617828, interval 124, pending count: 1
[DRAM_CYCLE_ERROR] Cycle-based error applied! address=0x8645b208 additional_latency=1990500 cycles
Heartbeat CPU 0 instructions: 1210000174 cycles: 3197032816 heartbeat IPC: 0.3798 cumulative IPC: 0.3785 (Simulation time: 04 hr 48 min 32 sec)
[ERROR_CYCLE] Error added at CPU cycle 3220380876, interval 125, pending count: 1
[DRAM_CYCLE_ERROR] Cycle-based error applied! address=0x108155ef98 additional_latency=1990500 cycles
Heartbeat CPU 0 instructions: 1220000178 cycles: 3223359856 heartbeat IPC: 0.3798 cumulative IPC: 0.3785 (Simulation time: 04 hr 51 min 11 sec)
[ERROR_CYCLE] Error added at CPU cycle 3246143922, interval 126, pending count: 1
[DRAM_CYCLE_ERROR] Cycle-based error applied! address=0x1256bfb410 additional_latency=1990500 cycles
Heartbeat CPU 0 instructions: 1230000181 cycles: 3249581231 heartbeat IPC: 0.3814 cumulative IPC: 0.3785 (Simulation time: 04 hr 53 min 38 sec)
[ERROR_CYCLE] Error added at CPU cycle 3271906969, interval 127, pending count: 1
[DRAM_CYCLE_ERROR] Cycle-based error applied! address=0x153d668608 additional_latency=1990500 cycles
Heartbeat CPU 0 instructions: 1240000182 cycles: 3275867454 heartbeat IPC: 0.3804 cumulative IPC: 0.3785 (Simulation time: 04 hr 55 min 42 sec)
[ERROR_CYCLE] Error added at CPU cycle 3297670017, interval 128, pending count: 1
[DRAM_CYCLE_ERROR] Cycle-based error applied! address=0x115224f4d0 additional_latency=1990500 cycles
Heartbeat CPU 0 instructions: 1250000185 cycles: 3302200063 heartbeat IPC: 0.3798 cumulative IPC: 0.3785 (Simulation time: 04 hr 58 min 19 sec)
[ERROR_CYCLE] Error added at CPU cycle 3323433063, interval 129, pending count: 1
[DRAM_CYCLE_ERROR] Cycle-based error applied! address=0x965a66ac8 additional_latency=1990500 cycles
Heartbeat CPU 0 instructions: 1260000185 cycles: 3328443730 heartbeat IPC: 0.381 cumulative IPC: 0.3786 (Simulation time: 05 hr 00 min 10 sec)
[ERROR_CYCLE] Error added at CPU cycle 3349196110, interval 130, pending count: 1
[DRAM_CYCLE_ERROR] Cycle-based error applied! address=0x13ace23600 additional_latency=1990500 cycles
Heartbeat CPU 0 instructions: 1270000185 cycles: 3354769697 heartbeat IPC: 0.3799 cumulative IPC: 0.3786 (Simulation time: 05 hr 02 min 38 sec)
[ERROR_CYCLE] Error added at CPU cycle 3374959158, interval 131, pending count: 1
[DRAM_CYCLE_ERROR] Cycle-based error applied! address=0x829355ba0 additional_latency=1990500 cycles
Heartbeat CPU 0 instructions: 1280000186 cycles: 3381189305 heartbeat IPC: 0.3785 cumulative IPC: 0.3786 (Simulation time: 05 hr 05 min 14 sec)
[ERROR_CYCLE] Error added at CPU cycle 3400722204, interval 132, pending count: 1
[DRAM_CYCLE_ERROR] Cycle-based error applied! address=0x48465b708 additional_latency=1990500 cycles
Heartbeat CPU 0 instructions: 1290000186 cycles: 3407644810 heartbeat IPC: 0.378 cumulative IPC: 0.3786 (Simulation time: 05 hr 07 min 51 sec)
[ERROR_CYCLE] Error added at CPU cycle 3426485251, interval 133, pending count: 1
[DRAM_CYCLE_ERROR] Cycle-based error applied! address=0x1a088922c0 additional_latency=1990500 cycles
Heartbeat CPU 0 instructions: 1300000190 cycles: 3434012932 heartbeat IPC: 0.3792 cumulative IPC: 0.3786 (Simulation time: 05 hr 10 min 27 sec)
[ERROR_CYCLE] Error added at CPU cycle 3452248299, interval 134, pending count: 1
[DRAM_CYCLE_ERROR] Cycle-based error applied! address=0xd1e63dc00 additional_latency=1990500 cycles
Heartbeat CPU 0 instructions: 1310000190 cycles: 3460456210 heartbeat IPC: 0.3782 cumulative IPC: 0.3786 (Simulation time: 05 hr 13 min 03 sec)
[ERROR_CYCLE] Error added at CPU cycle 3478011345, interval 135, pending count: 1
[DRAM_CYCLE_ERROR] Cycle-based error applied! address=0x4764aabc0 additional_latency=1990500 cycles
Heartbeat CPU 0 instructions: 1320000190 cycles: 3486884578 heartbeat IPC: 0.3784 cumulative IPC: 0.3786 (Simulation time: 05 hr 15 min 29 sec)
[ERROR_CYCLE] Error added at CPU cycle 3503774393, interval 136, pending count: 1
[DRAM_CYCLE_ERROR] Cycle-based error applied! address=0x1a9fa37790 additional_latency=1990500 cycles
Heartbeat CPU 0 instructions: 1330000190 cycles: 3513314545 heartbeat IPC: 0.3784 cumulative IPC: 0.3786 (Simulation time: 05 hr 18 min 05 sec)
[ERROR_CYCLE] Error added at CPU cycle 3529537440, interval 137, pending count: 1
[DRAM_CYCLE_ERROR] Cycle-based error applied! address=0xd1e7f2ac8 additional_latency=1990500 cycles
Heartbeat CPU 0 instructions: 1340000190 cycles: 3539653994 heartbeat IPC: 0.3797 cumulative IPC: 0.3786 (Simulation time: 05 hr 20 min 45 sec)
[ERROR_CYCLE] Error added at CPU cycle 3555300486, interval 138, pending count: 1
[DRAM_CYCLE_ERROR] Cycle-based error applied! address=0x10644d7760 additional_latency=1990500 cycles
Heartbeat CPU 0 instructions: 1350000192 cycles: 3565957897 heartbeat IPC: 0.3802 cumulative IPC: 0.3786 (Simulation time: 05 hr 23 min 24 sec)
[ERROR_CYCLE] Error added at CPU cycle 3581063534, interval 139, pending count: 1
[DRAM_CYCLE_ERROR] Cycle-based error applied! address=0x189f42bfd0 additional_latency=1990500 cycles
Heartbeat CPU 0 instructions: 1360000193 cycles: 3592261355 heartbeat IPC: 0.3802 cumulative IPC: 0.3786 (Simulation time: 05 hr 26 min 04 sec)
[ERROR_CYCLE] Error added at CPU cycle 3606826580, interval 140, pending count: 1
[DRAM_CYCLE_ERROR] Cycle-based error applied! address=0x2695dbec8 additional_latency=1990500 cycles
Heartbeat CPU 0 instructions: 1370000194 cycles: 3618631072 heartbeat IPC: 0.3792 cumulative IPC: 0.3786 (Simulation time: 05 hr 28 min 43 sec)
[ERROR_CYCLE] Error added at CPU cycle 3632589627, interval 141, pending count: 1
[DRAM_CYCLE_ERROR] Cycle-based error applied! address=0x1a65971c18 additional_latency=1990500 cycles
Heartbeat CPU 0 instructions: 1380000197 cycles: 3645000081 heartbeat IPC: 0.3792 cumulative IPC: 0.3786 (Simulation time: 05 hr 31 min 23 sec)
[ERROR_CYCLE] Error added at CPU cycle 3658352675, interval 142, pending count: 1
[DRAM_CYCLE_ERROR] Cycle-based error applied! address=0x1987053fc0 additional_latency=1990500 cycles
Heartbeat CPU 0 instructions: 1390000201 cycles: 3671319752 heartbeat IPC: 0.3799 cumulative IPC: 0.3786 (Simulation time: 05 hr 34 min 02 sec)
[ERROR_CYCLE] Error added at CPU cycle 3684115721, interval 143, pending count: 1
[DRAM_CYCLE_ERROR] Cycle-based error applied! address=0x1adb6a19d8 additional_latency=1990500 cycles
Heartbeat CPU 0 instructions: 1400000204 cycles: 3697663621 heartbeat IPC: 0.3796 cumulative IPC: 0.3786 (Simulation time: 05 hr 36 min 41 sec)
[ERROR_CYCLE] Error added at CPU cycle 3709878768, interval 144, pending count: 1
[DRAM_CYCLE_ERROR] Cycle-based error applied! address=0xf6f96a740 additional_latency=1990500 cycles
Heartbeat CPU 0 instructions: 1410000206 cycles: 3724042172 heartbeat IPC: 0.3791 cumulative IPC: 0.3786 (Simulation time: 05 hr 39 min 21 sec)
[ERROR_CYCLE] Error added at CPU cycle 3735641816, interval 145, pending count: 1
[DRAM_CYCLE_ERROR] Cycle-based error applied! address=0x1306609540 additional_latency=1990500 cycles
Heartbeat CPU 0 instructions: 1420000206 cycles: 3750572246 heartbeat IPC: 0.3769 cumulative IPC: 0.3786 (Simulation time: 05 hr 42 min 01 sec)
[ERROR_CYCLE] Error added at CPU cycle 3761404862, interval 146, pending count: 1
[DRAM_CYCLE_ERROR] Cycle-based error applied! address=0xf9e209308 additional_latency=1990500 cycles
Heartbeat CPU 0 instructions: 1430000209 cycles: 3777223762 heartbeat IPC: 0.3752 cumulative IPC: 0.3786 (Simulation time: 05 hr 44 min 42 sec)
[ERROR_CYCLE] Error added at CPU cycle 3787167910, interval 147, pending count: 1
[DRAM_CYCLE_ERROR] Cycle-based error applied! address=0x129de0f658 additional_latency=1990500 cycles
Heartbeat CPU 0 instructions: 1440000211 cycles: 3805595633 heartbeat IPC: 0.3525 cumulative IPC: 0.3784 (Simulation time: 05 hr 47 min 38 sec)
[ERROR_CYCLE] Error added at CPU cycle 3812930957, interval 148, pending count: 1
[DRAM_CYCLE_ERROR] Cycle-based error applied! address=0xe6277eb08 additional_latency=1990500 cycles
Heartbeat CPU 0 instructions: 1450000214 cycles: 3831707591 heartbeat IPC: 0.383 cumulative IPC: 0.3784 (Simulation time: 05 hr 50 min 16 sec)
[ERROR_CYCLE] Error added at CPU cycle 3838694003, interval 149, pending count: 1
[DRAM_CYCLE_ERROR] Cycle-based error applied! address=0xd9c4ca18 additional_latency=1990500 cycles
Heartbeat CPU 0 instructions: 1460000214 cycles: 3858080686 heartbeat IPC: 0.3792 cumulative IPC: 0.3784 (Simulation time: 05 hr 52 min 56 sec)
[ERROR_CYCLE] Error added at CPU cycle 3864457051, interval 150, pending count: 1
[DRAM_CYCLE_ERROR] Cycle-based error applied! address=0x11b9e2c520 additional_latency=1990500 cycles
Heartbeat CPU 0 instructions: 1470000214 cycles: 3884441131 heartbeat IPC: 0.3794 cumulative IPC: 0.3784 (Simulation time: 05 hr 55 min 37 sec)
[ERROR_CYCLE] Error added at CPU cycle 3890220097, interval 151, pending count: 1
[DRAM_CYCLE_ERROR] Cycle-based error applied! address=0x186bfef10 additional_latency=1990500 cycles
Heartbeat CPU 0 instructions: 1480000216 cycles: 3910805001 heartbeat IPC: 0.3793 cumulative IPC: 0.3784 (Simulation time: 05 hr 58 min 17 sec)
[ERROR_CYCLE] Error added at CPU cycle 3915983144, interval 152, pending count: 1
[DRAM_CYCLE_ERROR] Cycle-based error applied! address=0x1c7b1df088 additional_latency=1990500 cycles
Heartbeat CPU 0 instructions: 1490000220 cycles: 3937145816 heartbeat IPC: 0.3796 cumulative IPC: 0.3784 (Simulation time: 06 hr 00 min 58 sec)
[ERROR_CYCLE] Error added at CPU cycle 3941746192, interval 153, pending count: 1
[DRAM_CYCLE_ERROR] Cycle-based error applied! address=0x1bcded6d00 additional_latency=1990500 cycles
Heartbeat CPU 0 instructions: 1500000220 cycles: 3963494728 heartbeat IPC: 0.3795 cumulative IPC: 0.3785 (Simulation time: 06 hr 03 min 39 sec)
[ERROR_CYCLE] Error added at CPU cycle 3967509238, interval 154, pending count: 1
[DRAM_CYCLE_ERROR] Cycle-based error applied! address=0x1752187448 additional_latency=1990500 cycles
Heartbeat CPU 0 instructions: 1510000220 cycles: 3989810521 heartbeat IPC: 0.38 cumulative IPC: 0.3785 (Simulation time: 06 hr 06 min 14 sec)
[ERROR_CYCLE] Error added at CPU cycle 3993272285, interval 155, pending count: 1
[DRAM_CYCLE_ERROR] Cycle-based error applied! address=0x191e67e0c8 additional_latency=1990500 cycles
Heartbeat CPU 0 instructions: 1520000222 cycles: 4016224667 heartbeat IPC: 0.3786 cumulative IPC: 0.3785 (Simulation time: 06 hr 08 min 55 sec)
[ERROR_CYCLE] Error added at CPU cycle 4019035333, interval 156, pending count: 1
[DRAM_CYCLE_ERROR] Cycle-based error applied! address=0x13384cff80 additional_latency=1990500 cycles
Heartbeat CPU 0 instructions: 1530000222 cycles: 4042625079 heartbeat IPC: 0.3788 cumulative IPC: 0.3785 (Simulation time: 06 hr 11 min 36 sec)
[ERROR_CYCLE] Error added at CPU cycle 4044798379, interval 157, pending count: 1
[DRAM_CYCLE_ERROR] Cycle-based error applied! address=0x100be24d00 additional_latency=1990500 cycles
Heartbeat CPU 0 instructions: 1540000223 cycles: 4068913379 heartbeat IPC: 0.3804 cumulative IPC: 0.3785 (Simulation time: 06 hr 14 min 17 sec)
[ERROR_CYCLE] Error added at CPU cycle 4070561426, interval 158, pending count: 1
[DRAM_CYCLE_ERROR] Cycle-based error applied! address=0x10c6ff28c8 additional_latency=1990500 cycles
Heartbeat CPU 0 instructions: 1550000223 cycles: 4095061448 heartbeat IPC: 0.3824 cumulative IPC: 0.3785 (Simulation time: 06 hr 16 min 56 sec)
[ERROR_CYCLE] Error added at CPU cycle 4096324474, interval 159, pending count: 1
[DRAM_CYCLE_ERROR] Cycle-based error applied! address=0xf663e9f48 additional_latency=1990500 cycles
Heartbeat CPU 0 instructions: 1560000225 cycles: 4121309469 heartbeat IPC: 0.381 cumulative IPC: 0.3785 (Simulation time: 06 hr 19 min 36 sec)
[ERROR_CYCLE] Error added at CPU cycle 4122087520, interval 160, pending count: 1
[DRAM_CYCLE_ERROR] Cycle-based error applied! address=0x1fed650a90 additional_latency=1990500 cycles
Heartbeat CPU 0 instructions: 1570000225 cycles: 4147515190 heartbeat IPC: 0.3816 cumulative IPC: 0.3785 (Simulation time: 06 hr 22 min 15 sec)
[ERROR_CYCLE] Error added at CPU cycle 4147850568, interval 161, pending count: 1
[DRAM_CYCLE_ERROR] Cycle-based error applied! address=0xcb2b34b08 additional_latency=1990500 cycles
[ERROR_CYCLE] Error added at CPU cycle 4173613614, interval 162, pending count: 1
[DRAM_CYCLE_ERROR] Cycle-based error applied! address=0x15dc44b280 additional_latency=1990500 cycles
Heartbeat CPU 0 instructions: 1580000227 cycles: 4173766253 heartbeat IPC: 0.3809 cumulative IPC: 0.3786 (Simulation time: 06 hr 24 min 54 sec)
[ERROR_CYCLE] Error added at CPU cycle 4199376661, interval 163, pending count: 1
[DRAM_CYCLE_ERROR] Cycle-based error applied! address=0x1ed7893950 additional_latency=1990500 cycles
Heartbeat CPU 0 instructions: 1590000231 cycles: 4200001503 heartbeat IPC: 0.3812 cumulative IPC: 0.3786 (Simulation time: 06 hr 27 min 34 sec)
[ERROR_CYCLE] Error added at CPU cycle 4225139709, interval 164, pending count: 1
[DRAM_CYCLE_ERROR] Cycle-based error applied! address=0xad0ab7040 additional_latency=1990500 cycles
Heartbeat CPU 0 instructions: 1600000231 cycles: 4226247723 heartbeat IPC: 0.381 cumulative IPC: 0.3786 (Simulation time: 06 hr 30 min 14 sec)
[ERROR_CYCLE] Error added at CPU cycle 4250902755, interval 165, pending count: 1
[DRAM_CYCLE_ERROR] Cycle-based error applied! address=0x1c8a0ed6d0 additional_latency=1990500 cycles
Heartbeat CPU 0 instructions: 1610000231 cycles: 4252486152 heartbeat IPC: 0.3811 cumulative IPC: 0.3786 (Simulation time: 06 hr 32 min 53 sec)
[ERROR_CYCLE] Error added at CPU cycle 4276665802, interval 166, pending count: 1
[DRAM_CYCLE_ERROR] Cycle-based error applied! address=0x73a514790 additional_latency=1990500 cycles
Heartbeat CPU 0 instructions: 1620000232 cycles: 4278734272 heartbeat IPC: 0.381 cumulative IPC: 0.3786 (Simulation time: 06 hr 35 min 32 sec)
[ERROR_CYCLE] Error added at CPU cycle 4302428850, interval 167, pending count: 1
[DRAM_CYCLE_ERROR] Cycle-based error applied! address=0x19ca7a6a48 additional_latency=1990500 cycles
Heartbeat CPU 0 instructions: 1630000233 cycles: 4304989819 heartbeat IPC: 0.3809 cumulative IPC: 0.3786 (Simulation time: 06 hr 38 min 11 sec)
[ERROR_CYCLE] Error added at CPU cycle 4328191896, interval 168, pending count: 1
[DRAM_CYCLE_ERROR] Cycle-based error applied! address=0x16cb203600 additional_latency=1990500 cycles
Heartbeat CPU 0 instructions: 1640000234 cycles: 4331237133 heartbeat IPC: 0.381 cumulative IPC: 0.3786 (Simulation time: 06 hr 40 min 49 sec)
[ERROR_CYCLE] Error added at CPU cycle 4353954943, interval 169, pending count: 1
[DRAM_CYCLE_ERROR] Cycle-based error applied! address=0x17bfc9ab18 additional_latency=1990500 cycles
Heartbeat CPU 0 instructions: 1650000235 cycles: 4357495273 heartbeat IPC: 0.3808 cumulative IPC: 0.3787 (Simulation time: 06 hr 43 min 28 sec)
[ERROR_CYCLE] Error added at CPU cycle 4379717991, interval 170, pending count: 1
[DRAM_CYCLE_ERROR] Cycle-based error applied! address=0xce7ec9758 additional_latency=1990500 cycles
Heartbeat CPU 0 instructions: 1660000235 cycles: 4383739802 heartbeat IPC: 0.381 cumulative IPC: 0.3787 (Simulation time: 06 hr 45 min 22 sec)
[ERROR_CYCLE] Error added at CPU cycle 4405481037, interval 171, pending count: 1
[DRAM_CYCLE_ERROR] Cycle-based error applied! address=0x1954f338d8 additional_latency=1990500 cycles
Heartbeat CPU 0 instructions: 1670000235 cycles: 4409991522 heartbeat IPC: 0.3809 cumulative IPC: 0.3787 (Simulation time: 06 hr 47 min 53 sec)
[ERROR_CYCLE] Error added at CPU cycle 4431244085, interval 172, pending count: 1
[DRAM_CYCLE_ERROR] Cycle-based error applied! address=0x156d14a5d0 additional_latency=1990500 cycles
Heartbeat CPU 0 instructions: 1680000237 cycles: 4436236583 heartbeat IPC: 0.381 cumulative IPC: 0.3787 (Simulation time: 06 hr 50 min 33 sec)
[ERROR_CYCLE] Error added at CPU cycle 4457007132, interval 173, pending count: 1
[DRAM_CYCLE_ERROR] Cycle-based error applied! address=0x177e064750 additional_latency=1990500 cycles
Heartbeat CPU 0 instructions: 1690000237 cycles: 4462504388 heartbeat IPC: 0.3807 cumulative IPC: 0.3787 (Simulation time: 06 hr 53 min 14 sec)
[ERROR_CYCLE] Error added at CPU cycle 4482770178, interval 174, pending count: 1
[DRAM_CYCLE_ERROR] Cycle-based error applied! address=0x1811e0b8c0 additional_latency=1990500 cycles
Heartbeat CPU 0 instructions: 1700000241 cycles: 4488753404 heartbeat IPC: 0.381 cumulative IPC: 0.3787 (Simulation time: 06 hr 55 min 53 sec)
[ERROR_CYCLE] Error added at CPU cycle 4508533226, interval 175, pending count: 1
[DRAM_CYCLE_ERROR] Cycle-based error applied! address=0x17ddd5ac40 additional_latency=1990500 cycles
Heartbeat CPU 0 instructions: 1710000242 cycles: 4514987331 heartbeat IPC: 0.3812 cumulative IPC: 0.3787 (Simulation time: 06 hr 58 min 34 sec)
[ERROR_CYCLE] Error added at CPU cycle 4534296272, interval 176, pending count: 1
[DRAM_CYCLE_ERROR] Cycle-based error applied! address=0xf28ce4530 additional_latency=1990500 cycles
Heartbeat CPU 0 instructions: 1720000243 cycles: 4541213261 heartbeat IPC: 0.3813 cumulative IPC: 0.3788 (Simulation time: 07 hr 01 min 14 sec)
[ERROR_CYCLE] Error added at CPU cycle 4560059319, interval 177, pending count: 1
[DRAM_CYCLE_ERROR] Cycle-based error applied! address=0x473f62790 additional_latency=1990500 cycles
Heartbeat CPU 0 instructions: 1730000243 cycles: 4567479787 heartbeat IPC: 0.3807 cumulative IPC: 0.3788 (Simulation time: 07 hr 03 min 55 sec)
[ERROR_CYCLE] Error added at CPU cycle 4585822367, interval 178, pending count: 1
[DRAM_CYCLE_ERROR] Cycle-based error applied! address=0xaa2f0d110 additional_latency=1990500 cycles
Heartbeat CPU 0 instructions: 1740000246 cycles: 4593729901 heartbeat IPC: 0.381 cumulative IPC: 0.3788 (Simulation time: 07 hr 06 min 28 sec)
[ERROR_CYCLE] Error added at CPU cycle 4611585413, interval 179, pending count: 1
[DRAM_CYCLE_ERROR] Cycle-based error applied! address=0x1c2eccf7c0 additional_latency=1990500 cycles
Heartbeat CPU 0 instructions: 1750000247 cycles: 4619970685 heartbeat IPC: 0.3811 cumulative IPC: 0.3788 (Simulation time: 07 hr 09 min 08 sec)
[ERROR_CYCLE] Error added at CPU cycle 4637348460, interval 180, pending count: 1
[DRAM_CYCLE_ERROR] Cycle-based error applied! address=0xad0435ae0 additional_latency=1990500 cycles
Heartbeat CPU 0 instructions: 1760000248 cycles: 4646225187 heartbeat IPC: 0.3809 cumulative IPC: 0.3788 (Simulation time: 07 hr 11 min 48 sec)
[ERROR_CYCLE] Error added at CPU cycle 4663111508, interval 181, pending count: 1
[DRAM_CYCLE_ERROR] Cycle-based error applied! address=0xd8e49a650 additional_latency=1990500 cycles
Heartbeat CPU 0 instructions: 1770000252 cycles: 4672477321 heartbeat IPC: 0.3809 cumulative IPC: 0.3788 (Simulation time: 07 hr 14 min 28 sec)
[ERROR_CYCLE] Error added at CPU cycle 4688874554, interval 182, pending count: 1
[DRAM_CYCLE_ERROR] Cycle-based error applied! address=0x1934470380 additional_latency=1990500 cycles
Heartbeat CPU 0 instructions: 1780000252 cycles: 4698728508 heartbeat IPC: 0.3809 cumulative IPC: 0.3788 (Simulation time: 07 hr 17 min 08 sec)
[ERROR_CYCLE] Error added at CPU cycle 4714637601, interval 183, pending count: 1
[DRAM_CYCLE_ERROR] Cycle-based error applied! address=0x1a751cc510 additional_latency=1990500 cycles
Heartbeat CPU 0 instructions: 1790000252 cycles: 4724980510 heartbeat IPC: 0.3809 cumulative IPC: 0.3788 (Simulation time: 07 hr 19 min 48 sec)
[ERROR_CYCLE] Error added at CPU cycle 4740400649, interval 184, pending count: 1
[DRAM_CYCLE_ERROR] Cycle-based error applied! address=0x1ff758a2c0 additional_latency=1990500 cycles
Heartbeat CPU 0 instructions: 1800000252 cycles: 4751252615 heartbeat IPC: 0.3806 cumulative IPC: 0.3788 (Simulation time: 07 hr 22 min 29 sec)
[ERROR_CYCLE] Error added at CPU cycle 4766163695, interval 185, pending count: 1
[DRAM_CYCLE_ERROR] Cycle-based error applied! address=0x1a8016bd00 additional_latency=1990500 cycles
Heartbeat CPU 0 instructions: 1810000253 cycles: 4777500040 heartbeat IPC: 0.381 cumulative IPC: 0.3789 (Simulation time: 07 hr 25 min 10 sec)
[ERROR_CYCLE] Error added at CPU cycle 4791926743, interval 186, pending count: 1
[DRAM_CYCLE_ERROR] Cycle-based error applied! address=0x10c2a2da0 additional_latency=1990500 cycles
Heartbeat CPU 0 instructions: 1820000255 cycles: 4803726567 heartbeat IPC: 0.3813 cumulative IPC: 0.3789 (Simulation time: 07 hr 27 min 51 sec)
[ERROR_CYCLE] Error added at CPU cycle 4817689789, interval 187, pending count: 1
[DRAM_CYCLE_ERROR] Cycle-based error applied! address=0x13bf513810 additional_latency=1990500 cycles
Heartbeat CPU 0 instructions: 1830000257 cycles: 4829989395 heartbeat IPC: 0.3808 cumulative IPC: 0.3789 (Simulation time: 07 hr 30 min 31 sec)
[ERROR_CYCLE] Error added at CPU cycle 4843452836, interval 188, pending count: 1
[DRAM_CYCLE_ERROR] Cycle-based error applied! address=0x1051fbb948 additional_latency=1990500 cycles
Heartbeat CPU 0 instructions: 1840000259 cycles: 4856223857 heartbeat IPC: 0.3812 cumulative IPC: 0.3789 (Simulation time: 07 hr 33 min 11 sec)
[ERROR_CYCLE] Error added at CPU cycle 4869215884, interval 189, pending count: 1
[DRAM_CYCLE_ERROR] Cycle-based error applied! address=0x192db8d200 additional_latency=1990500 cycles
Heartbeat CPU 0 instructions: 1850000259 cycles: 4882458439 heartbeat IPC: 0.3812 cumulative IPC: 0.3789 (Simulation time: 07 hr 35 min 49 sec)
[ERROR_CYCLE] Error added at CPU cycle 4894978930, interval 190, pending count: 1
[DRAM_CYCLE_ERROR] Cycle-based error applied! address=0x20772ca08 additional_latency=1990500 cycles
Heartbeat CPU 0 instructions: 1860000262 cycles: 4908707799 heartbeat IPC: 0.381 cumulative IPC: 0.3789 (Simulation time: 07 hr 38 min 27 sec)
[ERROR_CYCLE] Error added at CPU cycle 4920741977, interval 191, pending count: 1
[DRAM_CYCLE_ERROR] Cycle-based error applied! address=0x1a308fcf08 additional_latency=1990500 cycles
Heartbeat CPU 0 instructions: 1870000263 cycles: 4934964541 heartbeat IPC: 0.3809 cumulative IPC: 0.3789 (Simulation time: 07 hr 41 min 07 sec)
[ERROR_CYCLE] Error added at CPU cycle 4946505025, interval 192, pending count: 1
[DRAM_CYCLE_ERROR] Cycle-based error applied! address=0x135e3bc308 additional_latency=1990500 cycles
Heartbeat CPU 0 instructions: 1880000264 cycles: 4961233310 heartbeat IPC: 0.3807 cumulative IPC: 0.3789 (Simulation time: 07 hr 42 min 59 sec)
[ERROR_CYCLE] Error added at CPU cycle 4972268071, interval 193, pending count: 1
[DRAM_CYCLE_ERROR] Cycle-based error applied! address=0x12c00b55d8 additional_latency=1990500 cycles
Heartbeat CPU 0 instructions: 1890000267 cycles: 4987479597 heartbeat IPC: 0.381 cumulative IPC: 0.3789 (Simulation time: 07 hr 44 min 48 sec)
[ERROR_CYCLE] Error added at CPU cycle 4998031118, interval 194, pending count: 1
[DRAM_CYCLE_ERROR] Cycle-based error applied! address=0x9075d7748 additional_latency=1990500 cycles
Heartbeat CPU 0 instructions: 1900000271 cycles: 5013745672 heartbeat IPC: 0.3807 cumulative IPC: 0.379 (Simulation time: 07 hr 47 min 12 sec)
[ERROR_CYCLE] Error added at CPU cycle 5023794166, interval 195, pending count: 1
[DRAM_CYCLE_ERROR] Cycle-based error applied! address=0xafaa3bb00 additional_latency=1990500 cycles
Heartbeat CPU 0 instructions: 1910000274 cycles: 5040006252 heartbeat IPC: 0.3808 cumulative IPC: 0.379 (Simulation time: 07 hr 49 min 31 sec)
[ERROR_CYCLE] Error added at CPU cycle 5049557212, interval 196, pending count: 1
[DRAM_CYCLE_ERROR] Cycle-based error applied! address=0x9384edad0 additional_latency=1990500 cycles
Heartbeat CPU 0 instructions: 1920000278 cycles: 5066212980 heartbeat IPC: 0.3816 cumulative IPC: 0.379 (Simulation time: 07 hr 52 min 12 sec)
[ERROR_CYCLE] Error added at CPU cycle 5075320260, interval 197, pending count: 1
[DRAM_CYCLE_ERROR] Cycle-based error applied! address=0x1dd888b420 additional_latency=1990500 cycles
Heartbeat CPU 0 instructions: 1930000280 cycles: 5092475814 heartbeat IPC: 0.3808 cumulative IPC: 0.379 (Simulation time: 07 hr 54 min 39 sec)
[ERROR_CYCLE] Error added at CPU cycle 5101083307, interval 198, pending count: 1
[DRAM_CYCLE_ERROR] Cycle-based error applied! address=0x6da847dc8 additional_latency=1990500 cycles
Heartbeat CPU 0 instructions: 1940000280 cycles: 5118725582 heartbeat IPC: 0.381 cumulative IPC: 0.379 (Simulation time: 07 hr 57 min 19 sec)
[ERROR_CYCLE] Error added at CPU cycle 5126846353, interval 199, pending count: 1
[DRAM_CYCLE_ERROR] Cycle-based error applied! address=0x1227d7e940 additional_latency=1990500 cycles
Heartbeat CPU 0 instructions: 1950000281 cycles: 5144938424 heartbeat IPC: 0.3815 cumulative IPC: 0.379 (Simulation time: 08 hr 00 min 00 sec)
[ERROR_CYCLE] Error added at CPU cycle 5152609401, interval 200, pending count: 1
[DRAM_CYCLE_ERROR] Cycle-based error applied! address=0x1a68c7190 additional_latency=1990500 cycles
Heartbeat CPU 0 instructions: 1960000284 cycles: 5171162659 heartbeat IPC: 0.3813 cumulative IPC: 0.379 (Simulation time: 08 hr 02 min 36 sec)
[ERROR_CYCLE] Error added at CPU cycle 5178372447, interval 201, pending count: 1
[DRAM_CYCLE_ERROR] Cycle-based error applied! address=0x6544d3c80 additional_latency=1990500 cycles
Heartbeat CPU 0 instructions: 1970000284 cycles: 5197381777 heartbeat IPC: 0.3814 cumulative IPC: 0.379 (Simulation time: 08 hr 05 min 02 sec)
[ERROR_CYCLE] Error added at CPU cycle 5204135494, interval 202, pending count: 1
[DRAM_CYCLE_ERROR] Cycle-based error applied! address=0x18386981d8 additional_latency=1990500 cycles
Heartbeat CPU 0 instructions: 1980000285 cycles: 5223635667 heartbeat IPC: 0.3809 cumulative IPC: 0.379 (Simulation time: 08 hr 07 min 02 sec)
[ERROR_CYCLE] Error added at CPU cycle 5229898542, interval 203, pending count: 1
[DRAM_CYCLE_ERROR] Cycle-based error applied! address=0x397d53840 additional_latency=1990500 cycles
Heartbeat CPU 0 instructions: 1990000285 cycles: 5249897928 heartbeat IPC: 0.3808 cumulative IPC: 0.3791 (Simulation time: 08 hr 09 min 16 sec)
[ERROR_CYCLE] Error added at CPU cycle 5255661588, interval 204, pending count: 1
[DRAM_CYCLE_ERROR] Cycle-based error applied! address=0xd6eef2280 additional_latency=1990500 cycles

=== ERROR PAGE STATISTICS ===
Mode: CYCLE
Error Cycle Interval: 25763047 CPU cycles
Total Error Accesses: 204
==============================
Simulation finished CPU 0 instructions: 1999999981 cycles: 5276139185 cumulative IPC: 0.3791 (Simulation time: 08 hr 11 min 44 sec)
Simulation complete CPU 0 instructions: 1999999981 cycles: 5276139185 cumulative IPC: 0.3791 (Simulation time: 08 hr 11 min 44 sec)

ChampSim completed all CPUs

=== Simulation ===
CPU 0 runs test_traces/602.gcc_s-1850B.champsimtrace.xz

Region of Interest Statistics

CPU 0 cumulative IPC: 0.3791 instructions: 1999999981 cycles: 5276139185
CPU 0 Branch Prediction Accuracy: 92.26% MPKI: 19.84 Average ROB Occupancy at Mispredict: 28.45
Branch type MPKI
BRANCH_DIRECT_JUMP: 0.0104
BRANCH_INDIRECT: 0
BRANCH_CONDITIONAL: 19.83
BRANCH_DIRECT_CALL: 8.5e-06
BRANCH_INDIRECT_CALL: 0
BRANCH_RETURN: 7e-06

cpu0->cpu0_STLB TOTAL        ACCESS:      15986 HIT:      12647 MISS:       3339 MSHR_MERGE:          0
cpu0->cpu0_STLB LOAD         ACCESS:      15986 HIT:      12647 MISS:       3339 MSHR_MERGE:          0
cpu0->cpu0_STLB RFO          ACCESS:          0 HIT:          0 MISS:          0 MSHR_MERGE:          0
cpu0->cpu0_STLB PREFETCH     ACCESS:          0 HIT:          0 MISS:          0 MSHR_MERGE:          0
cpu0->cpu0_STLB WRITE        ACCESS:          0 HIT:          0 MISS:          0 MSHR_MERGE:          0
cpu0->cpu0_STLB TRANSLATION  ACCESS:          0 HIT:          0 MISS:          0 MSHR_MERGE:          0
cpu0->cpu0_STLB PREFETCH REQUESTED:          0 ISSUED:          0 USEFUL:          0 USELESS:          0
cpu0->cpu0_STLB AVERAGE MISS LATENCY: 6464 cycles
cpu0->cpu0_L2C TOTAL        ACCESS:   48249141 HIT:   12597991 MISS:   35651150 MSHR_MERGE:          0
cpu0->cpu0_L2C LOAD         ACCESS:   48104276 HIT:   12470009 MISS:   35634267 MSHR_MERGE:          0
cpu0->cpu0_L2C RFO          ACCESS:      16945 HIT:        111 MISS:      16834 MSHR_MERGE:          0
cpu0->cpu0_L2C PREFETCH     ACCESS:          0 HIT:          0 MISS:          0 MSHR_MERGE:          0
cpu0->cpu0_L2C WRITE        ACCESS:     127920 HIT:     127871 MISS:         49 MSHR_MERGE:          0
cpu0->cpu0_L2C TRANSLATION  ACCESS:          0 HIT:          0 MISS:          0 MSHR_MERGE:          0
cpu0->cpu0_L2C PREFETCH REQUESTED:          0 ISSUED:          0 USEFUL:          0 USELESS:          0
cpu0->cpu0_L2C AVERAGE MISS LATENCY: 95.72 cycles
cpu0->cpu0_L1I TOTAL        ACCESS:      78348 HIT:      78288 MISS:         60 MSHR_MERGE:          3
cpu0->cpu0_L1I LOAD         ACCESS:      78348 HIT:      78288 MISS:         60 MSHR_MERGE:          3
cpu0->cpu0_L1I RFO          ACCESS:          0 HIT:          0 MISS:          0 MSHR_MERGE:          0
cpu0->cpu0_L1I PREFETCH     ACCESS:          0 HIT:          0 MISS:          0 MSHR_MERGE:          0
cpu0->cpu0_L1I WRITE        ACCESS:          0 HIT:          0 MISS:          0 MSHR_MERGE:          0
cpu0->cpu0_L1I TRANSLATION  ACCESS:          0 HIT:          0 MISS:          0 MSHR_MERGE:          0
cpu0->cpu0_L1I PREFETCH REQUESTED:          0 ISSUED:          0 USEFUL:          0 USELESS:          0
cpu0->cpu0_L1I AVERAGE MISS LATENCY: 117.3 cycles
cpu0->cpu0_L1D TOTAL        ACCESS:  605689898 HIT:  522317769 MISS:   83372129 MSHR_MERGE:   35250965
cpu0->cpu0_L1D LOAD         ACCESS:  433067343 HIT:  349712602 MISS:   83354741 MSHR_MERGE:   35250522
cpu0->cpu0_L1D RFO          ACCESS:          0 HIT:          0 MISS:          0 MSHR_MERGE:          0
cpu0->cpu0_L1D PREFETCH     ACCESS:          0 HIT:          0 MISS:          0 MSHR_MERGE:          0
cpu0->cpu0_L1D WRITE        ACCESS:  172622555 HIT:  172605167 MISS:      17388 MSHR_MERGE:        443
cpu0->cpu0_L1D TRANSLATION  ACCESS:          0 HIT:          0 MISS:          0 MSHR_MERGE:          0
cpu0->cpu0_L1D PREFETCH REQUESTED:          0 ISSUED:          0 USEFUL:          0 USELESS:          0
cpu0->cpu0_L1D AVERAGE MISS LATENCY: 79.66 cycles
cpu0->cpu0_ITLB TOTAL        ACCESS:      73675 HIT:      73672 MISS:          3 MSHR_MERGE:          1
cpu0->cpu0_ITLB LOAD         ACCESS:      73675 HIT:      73672 MISS:          3 MSHR_MERGE:          1
cpu0->cpu0_ITLB RFO          ACCESS:          0 HIT:          0 MISS:          0 MSHR_MERGE:          0
cpu0->cpu0_ITLB PREFETCH     ACCESS:          0 HIT:          0 MISS:          0 MSHR_MERGE:          0
cpu0->cpu0_ITLB WRITE        ACCESS:          0 HIT:          0 MISS:          0 MSHR_MERGE:          0
cpu0->cpu0_ITLB TRANSLATION  ACCESS:          0 HIT:          0 MISS:          0 MSHR_MERGE:          0
cpu0->cpu0_ITLB PREFETCH REQUESTED:          0 ISSUED:          0 USEFUL:          0 USELESS:          0
cpu0->cpu0_ITLB AVERAGE MISS LATENCY: 1.292e+04 cycles
cpu0->cpu0_DTLB TOTAL        ACCESS:  551964462 HIT:  551939765 MISS:      24697 MSHR_MERGE:       8713
cpu0->cpu0_DTLB LOAD         ACCESS:  551964462 HIT:  551939765 MISS:      24697 MSHR_MERGE:       8713
cpu0->cpu0_DTLB RFO          ACCESS:          0 HIT:          0 MISS:          0 MSHR_MERGE:          0
cpu0->cpu0_DTLB PREFETCH     ACCESS:          0 HIT:          0 MISS:          0 MSHR_MERGE:          0
cpu0->cpu0_DTLB WRITE        ACCESS:          0 HIT:          0 MISS:          0 MSHR_MERGE:          0
cpu0->cpu0_DTLB TRANSLATION  ACCESS:          0 HIT:          0 MISS:          0 MSHR_MERGE:          0
cpu0->cpu0_DTLB PREFETCH REQUESTED:          0 ISSUED:          0 USEFUL:          0 USELESS:          0
cpu0->cpu0_DTLB AVERAGE MISS LATENCY: 1354 cycles
cpu0->LLC TOTAL        ACCESS:   35701266 HIT:     113972 MISS:   35587294 MSHR_MERGE:          0
cpu0->LLC LOAD         ACCESS:   35634267 HIT:      63993 MISS:   35570274 MSHR_MERGE:          0
cpu0->LLC RFO          ACCESS:      16834 HIT:         95 MISS:      16739 MSHR_MERGE:          0
cpu0->LLC PREFETCH     ACCESS:          0 HIT:          0 MISS:          0 MSHR_MERGE:          0
cpu0->LLC WRITE        ACCESS:      50165 HIT:      49884 MISS:        281 MSHR_MERGE:          0
cpu0->LLC TRANSLATION  ACCESS:          0 HIT:          0 MISS:          0 MSHR_MERGE:          0
cpu0->LLC PREFETCH REQUESTED:          0 ISSUED:          0 USEFUL:          0 USELESS:          0
cpu0->LLC AVERAGE MISS LATENCY: 79.86 cycles

DRAM Statistics

Channel 0 RQ ROW_BUFFER_HIT:    3264891
  ROW_BUFFER_MISS:   14530928
  AVG DBUS CONGESTED CYCLE: 13.59
Channel 0 WQ ROW_BUFFER_HIT:       3221
  ROW_BUFFER_MISS:      21800
  FULL:          0
Channel 0 REFRESHES ISSUED:     439650

Channel 1 RQ ROW_BUFFER_HIT:    3264233
  ROW_BUFFER_MISS:   14533650
  AVG DBUS CONGESTED CYCLE: 13.5
Channel 1 WQ ROW_BUFFER_HIT:       3199
  ROW_BUFFER_MISS:      21863
  FULL:          0
Channel 1 REFRESHES ISSUED:     439650
