
*** ChampSim Multicore Out-of-Order Simulator ***
Warmup Instructions: 0
Simulation Instructions: 9223372036854775807
Number of CPUs: 1
Page size: 1048576

Off-chip DRAM Size: 32 GiB Channels: 2 Width: 32-bit Data Rate: 4807 MT/s
[ERROR_PAGE_MANAGER] Error latency: 2459910500 
[ERROR_PAGE_MANAGER] Random seed: 54321 (fixed for preload reproducibility)
[ERROR_PAGE_MANAGER] Cycle-based error modeling enabled
[ERROR_PAGE_MANAGER] Errors per interval: 1
[ERROR_PAGE_MANAGER] Error cycle interval: 70532401 cycles

=== ERROR PAGE STATISTICS ===
Mode: CYCLE
Error Cycle Interval: 70532401 CPU cycles
Total Error Accesses: 0
==============================
Warmup finished CPU 0 instructions: 0 cycles: 1 cumulative IPC: 0 (Simulation time: 00 hr 00 min 00 sec)
Warmup complete CPU 0 instructions: 0 cycles: 1 cumulative IPC: 0 (Simulation time: 00 hr 00 min 00 sec)
Simulation CPU 0 panic: IPC 0 < 0.01
Simulation CPU 0 panic: IPC 0 < 0.01
Simulation CPU 0 panic: IPC 1e-07 < 0.01
Simulation CPU 0 panic: IPC 4e-07 < 0.01
Simulation CPU 0 panic: IPC 8.5e-06 < 0.01
Simulation CPU 0 critical: IPC 0.011513 < 0.02
Simulation CPU 0 warning: IPC 0.026709 < 0.05
[ERROR_CYCLE] Error added at CPU cycle 70532402, interval 1, pending count: 1
[DRAM_CYCLE_ERROR] Cycle-based error applied! address=0x537c1e380 additional_latency=2459910500 cycles
Simulation CPU 0 panic: IPC 0 < 0.01
Simulation CPU 0 panic: IPC 0.0036166 < 0.01
Simulation CPU 0 panic: IPC 0.0037479 < 0.01
Simulation CPU 0 panic: IPC 0.0029552 < 0.01
Simulation CPU 0 panic: IPC 0.0082779 < 0.01
Simulation CPU 0 panic: IPC 0.0009996 < 0.01
Simulation CPU 0 panic: IPC 0.0022451 < 0.01
[ERROR_CYCLE] Error added at CPU cycle 141064802, interval 2, pending count: 1
[DRAM_CYCLE_ERROR] Cycle-based error applied! address=0xeca007e0 additional_latency=2459910500 cycles
Simulation CPU 0 panic: IPC 0 < 0.01
Simulation CPU 0 critical: IPC 0.012983 < 0.02
Simulation CPU 0 warning: IPC 0.025955 < 0.05
Simulation CPU 0 panic: IPC 0.0046206 < 0.01
Simulation CPU 0 panic: IPC 0.0031239 < 0.01
Simulation CPU 0 critical: IPC 0.012724 < 0.02
Simulation CPU 0 panic: IPC 0.0022451 < 0.01
[ERROR_CYCLE] Error added at CPU cycle 211597203, interval 3, pending count: 1
[DRAM_CYCLE_ERROR] Cycle-based error applied! address=0x537c2b2f8 additional_latency=2459910500 cycles
Simulation CPU 0 critical: IPC 0.012859 < 0.02
Simulation CPU 0 warning: IPC 0.025955 < 0.05
Simulation CPU 0 panic: IPC 0.0051198 < 0.01
Simulation CPU 0 panic: IPC 0.0023751 < 0.01
Simulation CPU 0 critical: IPC 0.013106 < 0.02
Simulation CPU 0 panic: IPC 0.0023699 < 0.01
Simulation CPU 0 critical: IPC 0.012484 < 0.02
[ERROR_CYCLE] Error added at CPU cycle 282129604, interval 4, pending count: 1
[DRAM_CYCLE_ERROR] Cycle-based error applied! address=0xe1500188 additional_latency=2459910500 cycles
Simulation CPU 0 panic: IPC 0 < 0.01
Simulation CPU 0 warning: IPC 0.02583 < 0.05
Simulation CPU 0 panic: IPC 0.005619 < 0.01
Simulation CPU 0 panic: IPC 0.0017511 < 0.01
Simulation CPU 0 critical: IPC 0.013722 < 0.02
Simulation CPU 0 panic: IPC 0.0022451 < 0.01
Simulation CPU 0 critical: IPC 0.012359 < 0.02
[ERROR_CYCLE] Error added at CPU cycle 352662006, interval 5, pending count: 1
[DRAM_CYCLE_ERROR] Cycle-based error applied! address=0x537c38358 additional_latency=2459910500 cycles
Simulation CPU 0 warning: IPC 0.02583 < 0.05
Simulation CPU 0 panic: IPC 0 < 0.01
Simulation CPU 0 panic: IPC 0.0061182 < 0.01
Simulation CPU 0 critical: IPC 0.014982 < 0.02
Simulation CPU 0 panic: IPC 0.0024947 < 0.01
Simulation CPU 0 critical: IPC 0.01211 < 0.02
Simulation CPU 0 warning: IPC 0.025705 < 0.05
[ERROR_CYCLE] Error added at CPU cycle 423194407, interval 6, pending count: 1
[DRAM_CYCLE_ERROR] Cycle-based error applied! address=0x23f1004a8 additional_latency=2459910500 cycles
Simulation CPU 0 panic: IPC 0 < 0.01
Simulation CPU 0 panic: IPC 0.0064926 < 0.01
Simulation CPU 0 panic: IPC 0.0003783 < 0.01
Simulation CPU 0 critical: IPC 0.014596 < 0.02
Simulation CPU 0 panic: IPC 0.0024947 < 0.01
Simulation CPU 0 critical: IPC 0.01186 < 0.02
Simulation CPU 0 warning: IPC 0.025705 < 0.05
[ERROR_CYCLE] Error added at CPU cycle 493726807, interval 7, pending count: 1
[DRAM_CYCLE_ERROR] Cycle-based error applied! address=0x537c452c8 additional_latency=2459910500 cycles
Simulation CPU 0 panic: IPC 0.0066021 < 0.01
Simulation CPU 0 panic: IPC 0 < 0.01
Simulation CPU 0 panic: IPC 0.0003897 < 0.01
Simulation CPU 0 critical: IPC 0.014579 < 0.02
Simulation CPU 0 panic: IPC 0.0054515 < 0.01
Simulation CPU 0 warning: IPC 0.034263 < 0.05
Simulation CPU 0 panic: IPC 0.0063717 < 0.01
[ERROR_CYCLE] Error added at CPU cycle 564259208, interval 8, pending count: 1
[DRAM_CYCLE_ERROR] Cycle-based error applied! address=0x49ae00070 additional_latency=2459910500 cycles
Simulation CPU 0 panic: IPC 0 < 0.01
Simulation CPU 0 panic: IPC 0.0011193 < 0.01
Simulation CPU 0 critical: IPC 0.014475 < 0.02
Simulation CPU 0 panic: IPC 0.0026195 < 0.01
Simulation CPU 0 critical: IPC 0.011361 < 0.02
Simulation CPU 0 warning: IPC 0.02558 < 0.05
Simulation CPU 0 panic: IPC 0.0061221 < 0.01
[ERROR_CYCLE] Error added at CPU cycle 634791609, interval 9, pending count: 1
[DRAM_CYCLE_ERROR] Cycle-based error applied! address=0x537c523d0 additional_latency=2459910500 cycles
Simulation CPU 0 panic: IPC 0.0018681 < 0.01
Simulation CPU 0 panic: IPC 0 < 0.01
Simulation CPU 0 critical: IPC 0.014109 < 0.02
Simulation CPU 0 panic: IPC 0.0026195 < 0.01
Simulation CPU 0 critical: IPC 0.011236 < 0.02
Simulation CPU 0 warning: IPC 0.025455 < 0.05
Simulation CPU 0 panic: IPC 0.0083646 < 0.01
[ERROR_CYCLE] Error added at CPU cycle 705324011, interval 10, pending count: 1
[DRAM_CYCLE_ERROR] Cycle-based error applied! address=0x1035003d0 additional_latency=2459910500 cycles
Simulation CPU 0 panic: IPC 0 < 0.01
Simulation CPU 0 critical: IPC 0.013976 < 0.02
Simulation CPU 0 panic: IPC 0.0027443 < 0.01
Simulation CPU 0 critical: IPC 0.010987 < 0.02
Simulation CPU 0 warning: IPC 0.025455 < 0.05
Simulation CPU 0 panic: IPC 0.0056229 < 0.01
Simulation CPU 0 panic: IPC 0.0030572 < 0.01
[ERROR_CYCLE] Error added at CPU cycle 775856412, interval 11, pending count: 1
[DRAM_CYCLE_ERROR] Cycle-based error applied! address=0x537c5f370 additional_latency=2459910500 cycles
Simulation CPU 0 critical: IPC 0.013793 < 0.02
Simulation CPU 0 panic: IPC 0 < 0.01
Simulation CPU 0 panic: IPC 0.0028691 < 0.01
Simulation CPU 0 critical: IPC 0.010612 < 0.02
Simulation CPU 0 panic: IPC 0.0094131 < 0.01
Simulation CPU 0 critical: IPC 0.015918 < 0.02
Simulation CPU 0 panic: IPC 0.0054981 < 0.01
[ERROR_CYCLE] Error added at CPU cycle 846388812, interval 12, pending count: 1
Simulation CPU 0 panic: IPC 0.0038649 < 0.01
[DRAM_CYCLE_ERROR] Cycle-based error applied! address=0x601f00410 additional_latency=2459910500 cycles
Simulation CPU 0 panic: IPC 0 < 0.01
Simulation CPU 0 critical: IPC 0.016345 < 0.02
Simulation CPU 0 critical: IPC 0.010487 < 0.02
Simulation CPU 0 warning: IPC 0.025331 < 0.05
Simulation CPU 0 panic: IPC 0.005132 < 0.01
Simulation CPU 0 panic: IPC 0.0044889 < 0.01
[ERROR_CYCLE] Error added at CPU cycle 916921213, interval 13, pending count: 1
Simulation CPU 0 critical: IPC 0.013352 < 0.02
[DRAM_CYCLE_ERROR] Cycle-based error applied! address=0x537c6c380 additional_latency=2459910500 cycles
Simulation CPU 0 panic: IPC 0 < 0.01
Simulation CPU 0 panic: IPC 0.0029939 < 0.01
Simulation CPU 0 critical: IPC 0.010238 < 0.02
Simulation CPU 0 warning: IPC 0.025206 < 0.05
Simulation CPU 0 panic: IPC 0.0049989 < 0.01
Simulation CPU 0 panic: IPC 0.0052377 < 0.01
[ERROR_CYCLE] Error added at CPU cycle 987453615, interval 14, pending count: 1
Simulation CPU 0 critical: IPC 0.013102 < 0.02
[DRAM_CYCLE_ERROR] Cycle-based error applied! address=0x1fa005a8 additional_latency=2459910500 cycles
Simulation CPU 0 panic: IPC 0 < 0.01
Simulation CPU 0 panic: IPC 0.0028691 < 0.01
Simulation CPU 0 critical: IPC 0.012537 < 0.02
Simulation CPU 0 warning: IPC 0.027415 < 0.05
Simulation CPU 0 panic: IPC 0.0058617 < 0.01
Simulation CPU 0 critical: IPC 0.012852 < 0.02
[ERROR_CYCLE] Error added at CPU cycle 1057986016, interval 15, pending count: 1
Simulation CPU 0 panic: IPC 0.0031187 < 0.01
[DRAM_CYCLE_ERROR] Cycle-based error applied! address=0x537c793e0 additional_latency=2459910500 cycles
Simulation CPU 0 panic: IPC 0 < 0.01
Simulation CPU 0 panic: IPC 0.0097386 < 0.01
Simulation CPU 0 warning: IPC 0.025081 < 0.05
Simulation CPU 0 panic: IPC 0.0046245 < 0.01
Simulation CPU 0 panic: IPC 0.0066105 < 0.01
Simulation CPU 0 critical: IPC 0.012603 < 0.02
[ERROR_CYCLE] Error added at CPU cycle 1128518416, interval 16, pending count: 1
Simulation CPU 0 panic: IPC 0.0031187 < 0.01
[DRAM_CYCLE_ERROR] Cycle-based error applied! address=0x56d900678 additional_latency=2459910500 cycles
Simulation CPU 0 panic: IPC 0 < 0.01
Simulation CPU 0 panic: IPC 0.009489 < 0.01
Heartbeat CPU 0 instructions: 10000001 cycles: 1151868728 heartbeat IPC: 0.008682 cumulative IPC: 0.008682 (Simulation time: 01 hr 54 min 06 sec)
Simulation CPU 0 panic: IPC 0.0066513 < 0.01
Simulation CPU 0 critical: IPC 0.018313 < 0.02
Simulation CPU 0 critical: IPC 0.011609 < 0.02
Simulation CPU 0 critical: IPC 0.012478 < 0.02
[ERROR_CYCLE] Error added at CPU cycle 1199050817, interval 17, pending count: 1
Simulation CPU 0 panic: IPC 0.0031187 < 0.01
[DRAM_CYCLE_ERROR] Cycle-based error applied! address=0x537c863f0 additional_latency=2459910500 cycles
Simulation CPU 0 panic: IPC 0 < 0.01
Simulation CPU 0 panic: IPC 0.0093642 < 0.01
Simulation CPU 0 warning: IPC 0.024956 < 0.05
Simulation CPU 0 panic: IPC 0.0040293 < 0.01
Simulation CPU 0 panic: IPC 0.0080793 < 0.01
Simulation CPU 0 critical: IPC 0.012103 < 0.02
[ERROR_CYCLE] Error added at CPU cycle 1269583218, interval 18, pending count: 1
Simulation CPU 0 panic: IPC 0.0032435 < 0.01
[DRAM_CYCLE_ERROR] Cycle-based error applied! address=0x11b6004a0 additional_latency=2459910500 cycles
Simulation CPU 0 panic: IPC 0 < 0.01
Simulation CPU 0 panic: IPC 0.0091146 < 0.01
Simulation CPU 0 warning: IPC 0.02484 < 0.05
Simulation CPU 0 panic: IPC 0.0037509 < 0.01
Simulation CPU 0 panic: IPC 0.0087321 < 0.01
Simulation CPU 0 critical: IPC 0.011979 < 0.02
Simulation CPU 0 critical: IPC 0.012108 < 0.02
[ERROR_CYCLE] Error added at CPU cycle 1340115620, interval 19, pending count: 1
[DRAM_CYCLE_ERROR] Cycle-based error applied! address=0x537c93380 additional_latency=2459910500 cycles
Simulation CPU 0 panic: IPC 0 < 0.01
Simulation CPU 0 warning: IPC 0.024831 < 0.05
Simulation CPU 0 panic: IPC 0.0036261 < 0.01
Simulation CPU 0 panic: IPC 0.0094809 < 0.01
Simulation CPU 0 critical: IPC 0.011604 < 0.02
Simulation CPU 0 panic: IPC 0.0033683 < 0.01
Simulation CPU 0 panic: IPC 0.0086154 < 0.01
[ERROR_CYCLE] Error added at CPU cycle 1410648021, interval 20, pending count: 1
[DRAM_CYCLE_ERROR] Cycle-based error applied! address=0x4bd800358 additional_latency=2459910500 cycles
Simulation CPU 0 panic: IPC 0 < 0.01
Simulation CPU 0 warning: IPC 0.024715 < 0.05
Simulation CPU 0 panic: IPC 0.0033765 < 0.01
Simulation CPU 0 critical: IPC 0.010105 < 0.02
Simulation CPU 0 critical: IPC 0.01148 < 0.02
Simulation CPU 0 panic: IPC 0.0034931 < 0.01
Simulation CPU 0 panic: IPC 0.0083658 < 0.01
[ERROR_CYCLE] Error added at CPU cycle 1481180421, interval 21, pending count: 1
[DRAM_CYCLE_ERROR] Cycle-based error applied! address=0x537ca0820 additional_latency=2459910500 cycles
Simulation CPU 0 panic: IPC 0.0038895 < 0.01
Simulation CPU 0 panic: IPC 0 < 0.01
Simulation CPU 0 warning: IPC 0.023944 < 0.05
Simulation CPU 0 critical: IPC 0.010854 < 0.02
Simulation CPU 0 critical: IPC 0.01123 < 0.02
Simulation CPU 0 panic: IPC 0.0033683 < 0.01
Simulation CPU 0 panic: IPC 0.008241 < 0.01
[ERROR_CYCLE] Error added at CPU cycle 1551712822, interval 22, pending count: 1
[DRAM_CYCLE_ERROR] Cycle-based error applied! address=0x108a00778 additional_latency=2459910500 cycles
Simulation CPU 0 panic: IPC 0 < 0.01
Simulation CPU 0 warning: IPC 0.02459 < 0.05
Simulation CPU 0 panic: IPC 0.0028773 < 0.01
Simulation CPU 0 critical: IPC 0.011478 < 0.02
Simulation CPU 0 critical: IPC 0.01098 < 0.02
Simulation CPU 0 panic: IPC 0.0036179 < 0.01
Simulation CPU 0 panic: IPC 0.0078666 < 0.01
[ERROR_CYCLE] Error added at CPU cycle 1622245223, interval 23, pending count: 1
[DRAM_CYCLE_ERROR] Cycle-based error applied! address=0x537cad3f0 additional_latency=2459910500 cycles
Simulation CPU 0 warning: IPC 0.024582 < 0.05
Simulation CPU 0 panic: IPC 0 < 0.01
Simulation CPU 0 panic: IPC 0.0027525 < 0.01
Simulation CPU 0 critical: IPC 0.018277 < 0.02
Simulation CPU 0 panic: IPC 0.0082986 < 0.01
Simulation CPU 0 panic: IPC 0.007617 < 0.01
Simulation CPU 0 warning: IPC 0.024465 < 0.05
[ERROR_CYCLE] Error added at CPU cycle 1692777625, interval 24, pending count: 1
[DRAM_CYCLE_ERROR] Cycle-based error applied! address=0x152000250 additional_latency=2459910500 cycles
Simulation CPU 0 panic: IPC 0 < 0.01
Simulation CPU 0 panic: IPC 0.0025029 < 0.01
Simulation CPU 0 critical: IPC 0.012851 < 0.02
Simulation CPU 0 critical: IPC 0.010587 < 0.02
Simulation CPU 0 panic: IPC 0.0036371 < 0.01
Simulation CPU 0 panic: IPC 0.0074922 < 0.01
Simulation CPU 0 warning: IPC 0.024457 < 0.05
[ERROR_CYCLE] Error added at CPU cycle 1763310025, interval 25, pending count: 1
[DRAM_CYCLE_ERROR] Cycle-based error applied! address=0x537cba360 additional_latency=2459910500 cycles
Simulation CPU 0 panic: IPC 0.0022533 < 0.01
Simulation CPU 0 panic: IPC 0 < 0.01
Simulation CPU 0 critical: IPC 0.013599 < 0.02
Simulation CPU 0 critical: IPC 0.010231 < 0.02
Simulation CPU 0 panic: IPC 0.0037427 < 0.01
Simulation CPU 0 warning: IPC 0.031583 < 0.05
Simulation CPU 0 panic: IPC 0.0020037 < 0.01
[ERROR_CYCLE] Error added at CPU cycle 1833842426, interval 26, pending count: 1
[DRAM_CYCLE_ERROR] Cycle-based error applied! address=0x5ce0006f0 additional_latency=2459910500 cycles
Simulation CPU 0 panic: IPC 0 < 0.01
Simulation CPU 0 critical: IPC 0.014223 < 0.02
Simulation CPU 0 critical: IPC 0.010107 < 0.02
Simulation CPU 0 panic: IPC 0.0037427 < 0.01
Simulation CPU 0 panic: IPC 0.006993 < 0.01
Simulation CPU 0 warning: IPC 0.024332 < 0.05
Simulation CPU 0 panic: IPC 0.0018789 < 0.01
[ERROR_CYCLE] Error added at CPU cycle 1904374827, interval 27, pending count: 1
[DRAM_CYCLE_ERROR] Cycle-based error applied! address=0xf1012340 additional_latency=2459910500 cycles
Simulation CPU 0 panic: IPC 0.0025371 < 0.01
Simulation CPU 0 critical: IPC 0.012435 < 0.02
Simulation CPU 0 panic: IPC 0.0097323 < 0.01
Simulation CPU 0 panic: IPC 0.0038675 < 0.01
Simulation CPU 0 panic: IPC 0.0067434 < 0.01
Simulation CPU 0 warning: IPC 0.024216 < 0.05
Simulation CPU 0 panic: IPC 0.0015045 < 0.01
[ERROR_CYCLE] Error added at CPU cycle 1974907229, interval 28, pending count: 1
[DRAM_CYCLE_ERROR] Cycle-based error applied! address=0x537ccd470 additional_latency=2459910500 cycles
Simulation CPU 0 critical: IPC 0.015721 < 0.02
Simulation CPU 0 panic: IPC 0.0096075 < 0.01
Simulation CPU 0 panic: IPC 0.0039923 < 0.01
Simulation CPU 0 panic: IPC 0.0064938 < 0.01
Simulation CPU 0 warning: IPC 0.024207 < 0.05
Simulation CPU 0 panic: IPC 0.0012549 < 0.01
Simulation CPU 0 critical: IPC 0.01647 < 0.02
[ERROR_CYCLE] Error added at CPU cycle 2045439630, interval 29, pending count: 1
[DRAM_CYCLE_ERROR] Cycle-based error applied! address=0xb8600650 additional_latency=2459910500 cycles
Simulation CPU 0 panic: IPC 0 < 0.01
Simulation CPU 0 panic: IPC 0.0093579 < 0.01
Simulation CPU 0 panic: IPC 0.0038675 < 0.01
Simulation CPU 0 panic: IPC 0.006369 < 0.01
Simulation CPU 0 warning: IPC 0.024091 < 0.05
Simulation CPU 0 panic: IPC 0.0010053 < 0.01
Simulation CPU 0 critical: IPC 0.017094 < 0.02
[ERROR_CYCLE] Error added at CPU cycle 2115972030, interval 30, pending count: 1
[DRAM_CYCLE_ERROR] Cycle-based error applied! address=0x537cda410 additional_latency=2459910500 cycles
Simulation CPU 0 panic: IPC 0.0091083 < 0.01
Simulation CPU 0 panic: IPC 0 < 0.01
Simulation CPU 0 panic: IPC 0.0065936 < 0.01
Simulation CPU 0 warning: IPC 0.027601 < 0.05
Simulation CPU 0 panic: IPC 0.0008805 < 0.01
Simulation CPU 0 critical: IPC 0.012847 < 0.02
Simulation CPU 0 panic: IPC 0.0049957 < 0.01
[ERROR_CYCLE] Error added at CPU cycle 2186504431, interval 31, pending count: 1
[DRAM_CYCLE_ERROR] Cycle-based error applied! address=0x5ea000690 additional_latency=2459910500 cycles
Simulation CPU 0 panic: IPC 0 < 0.01
Simulation CPU 0 panic: IPC 0.0088587 < 0.01
Simulation CPU 0 panic: IPC 0.0039923 < 0.01
Simulation CPU 0 panic: IPC 0.0058698 < 0.01
Heartbeat CPU 0 instructions: 20000004 cycles: 2224656060 heartbeat IPC: 0.009322 cumulative IPC: 0.00899 (Simulation time: 03 hr 51 min 34 sec)
Simulation CPU 0 warning: IPC 0.023966 < 0.05
Simulation CPU 0 panic: IPC 0.0006309 < 0.01
Simulation CPU 0 critical: IPC 0.018467 < 0.02
[ERROR_CYCLE] Error added at CPU cycle 2257036832, interval 32, pending count: 1
[DRAM_CYCLE_ERROR] Cycle-based error applied! address=0x537ce7420 additional_latency=2459910500 cycles
Simulation CPU 0 panic: IPC 0.0086091 < 0.01
Simulation CPU 0 panic: IPC 0 < 0.01
Simulation CPU 0 panic: IPC 0.0042419 < 0.01
Simulation CPU 0 panic: IPC 0.0056202 < 0.01
Simulation CPU 0 warning: IPC 0.024339 < 0.05
Simulation CPU 0 critical: IPC 0.019215 < 0.02
Simulation CPU 0 panic: IPC 0.0083595 < 0.01
[ERROR_CYCLE] Error added at CPU cycle 2327569234, interval 33, pending count: 1
[DRAM_CYCLE_ERROR] Cycle-based error applied! address=0x39d2003c8 additional_latency=2459910500 cycles
Simulation CPU 0 panic: IPC 0 < 0.01
Simulation CPU 0 panic: IPC 0.0042419 < 0.01
Simulation CPU 0 panic: IPC 0.0053789 < 0.01
Simulation CPU 0 warning: IPC 0.023833 < 0.05
Simulation CPU 0 panic: IPC 0.0001317 < 0.01
Simulation CPU 0 critical: IPC 0.019839 < 0.02
Simulation CPU 0 panic: IPC 0.0082347 < 0.01
[ERROR_CYCLE] Error added at CPU cycle 2398101635, interval 34, pending count: 1
[DRAM_CYCLE_ERROR] Cycle-based error applied! address=0x537cf4480 additional_latency=2459910500 cycles
Simulation CPU 0 panic: IPC 0.0042419 < 0.01
Simulation CPU 0 panic: IPC 0 < 0.01
Simulation CPU 0 panic: IPC 0.005121 < 0.01
Simulation CPU 0 warning: IPC 0.023833 < 0.05
Simulation CPU 0 warning: IPC 0.020595 < 0.05
Simulation CPU 0 panic: IPC 0.0078603 < 0.01
Simulation CPU 0 panic: IPC 0.0092464 < 0.01
[ERROR_CYCLE] Error added at CPU cycle 2468634035, interval 35, pending count: 1
[DRAM_CYCLE_ERROR] Cycle-based error applied! address=0x3f4c00318 additional_latency=2459910500 cycles
Simulation CPU 0 panic: IPC 0 < 0.01
Simulation CPU 0 warning: IPC 0.023466 < 0.05
Simulation CPU 0 panic: IPC 0.0002427 < 0.01
Simulation CPU 0 critical: IPC 0.01133 < 0.02
Simulation CPU 0 panic: IPC 0.0096391 < 0.01
Simulation CPU 0 panic: IPC 0.0077355 < 0.01
Simulation CPU 0 panic: IPC 0.0044915 < 0.01
[ERROR_CYCLE] Error added at CPU cycle 2539166436, interval 36, pending count: 1
[DRAM_CYCLE_ERROR] Cycle-based error applied! address=0x14f502410 additional_latency=2459910500 cycles
Simulation CPU 0 panic: IPC 0.0046218 < 0.01
Simulation CPU 0 panic: IPC 0 < 0.01
Simulation CPU 0 warning: IPC 0.023216 < 0.05
Simulation CPU 0 panic: IPC 0.0004923 < 0.01
Simulation CPU 0 warning: IPC 0.021469 < 0.05
Simulation CPU 0 panic: IPC 0.0073611 < 0.01
Simulation CPU 0 panic: IPC 0.0044998 < 0.01
[ERROR_CYCLE] Error added at CPU cycle 2609698838, interval 37, pending count: 1
Simulation CPU 0 panic: IPC 0.004497 < 0.01
[DRAM_CYCLE_ERROR] Cycle-based error applied! address=0x54a000738 additional_latency=2459910500 cycles
Simulation CPU 0 panic: IPC 0.0083002 < 0.01
Simulation CPU 0 critical: IPC 0.015283 < 0.02
Simulation CPU 0 warning: IPC 0.021843 < 0.05
Simulation CPU 0 panic: IPC 0.0072363 < 0.01
Simulation CPU 0 panic: IPC 0.0046163 < 0.01
Simulation CPU 0 panic: IPC 0.0041226 < 0.01
Simulation CPU 0 warning: IPC 0.022592 < 0.05
[ERROR_CYCLE] Error added at CPU cycle 2680231239, interval 38, pending count: 1
[DRAM_CYCLE_ERROR] Cycle-based error applied! address=0x14f50f3d0 additional_latency=2459910500 cycles
Simulation CPU 0 panic: IPC 0 < 0.01
Simulation CPU 0 panic: IPC 0.0010011 < 0.01
Simulation CPU 0 warning: IPC 0.022457 < 0.05
Simulation CPU 0 panic: IPC 0.0069867 < 0.01
Simulation CPU 0 panic: IPC 0.0044998 < 0.01
Simulation CPU 0 panic: IPC 0.0039978 < 0.01
Simulation CPU 0 warning: IPC 0.022218 < 0.05
[ERROR_CYCLE] Error added at CPU cycle 2750763639, interval 39, pending count: 1
[DRAM_CYCLE_ERROR] Cycle-based error applied! address=0x650c00130 additional_latency=2459910500 cycles
Simulation CPU 0 panic: IPC 0 < 0.01
Simulation CPU 0 panic: IPC 0.0012411 < 0.01
Simulation CPU 0 warning: IPC 0.029049 < 0.05
Simulation CPU 0 panic: IPC 0.0052702 < 0.01
Simulation CPU 0 panic: IPC 0.0037482 < 0.01
Simulation CPU 0 warning: IPC 0.021968 < 0.05
Simulation CPU 0 panic: IPC 0.0014907 < 0.01
[ERROR_CYCLE] Error added at CPU cycle 2821296040, interval 40, pending count: 1
[DRAM_CYCLE_ERROR] Cycle-based error applied! address=0x14f51c480 additional_latency=2459910500 cycles
Simulation CPU 0 panic: IPC 0 < 0.01
Simulation CPU 0 panic: IPC 0.0088181 < 0.01
Simulation CPU 0 critical: IPC 0.014523 < 0.02
Simulation CPU 0 panic: IPC 0.006371 < 0.01
Simulation CPU 0 panic: IPC 0.0048659 < 0.01
Simulation CPU 0 panic: IPC 0.0034986 < 0.01
Simulation CPU 0 warning: IPC 0.021594 < 0.05
[ERROR_CYCLE] Error added at CPU cycle 2891828441, interval 41, pending count: 1
[DRAM_CYCLE_ERROR] Cycle-based error applied! address=0x4512002c0 additional_latency=2459910500 cycles
Simulation CPU 0 panic: IPC 0 < 0.01
Simulation CPU 0 panic: IPC 0.0017403 < 0.01
Simulation CPU 0 warning: IPC 0.023715 < 0.05
Simulation CPU 0 panic: IPC 0.0063627 < 0.01
Simulation CPU 0 panic: IPC 0.0079901 < 0.01
Simulation CPU 0 warning: IPC 0.021469 < 0.05
Simulation CPU 0 panic: IPC 0.0018939 < 0.01
[ERROR_CYCLE] Error added at CPU cycle 2962360843, interval 42, pending count: 1
[DRAM_CYCLE_ERROR] Cycle-based error applied! address=0x14f529490 additional_latency=2459910500 cycles
Simulation CPU 0 panic: IPC 0 < 0.01
Simulation CPU 0 warning: IPC 0.024243 < 0.05
Simulation CPU 0 panic: IPC 0.005939 < 0.01
Simulation CPU 0 panic: IPC 0.0049907 < 0.01
Simulation CPU 0 panic: IPC 0.0029994 < 0.01
Simulation CPU 0 warning: IPC 0.021094 < 0.05
Simulation CPU 0 panic: IPC 0.0021147 < 0.01
[ERROR_CYCLE] Error added at CPU cycle 3032893244, interval 43, pending count: 1
[DRAM_CYCLE_ERROR] Cycle-based error applied! address=0x1287001f8 additional_latency=2459910500 cycles
Simulation CPU 0 panic: IPC 0 < 0.01
Simulation CPU 0 warning: IPC 0.024713 < 0.05
Simulation CPU 0 panic: IPC 0.0058635 < 0.01
Simulation CPU 0 panic: IPC 0.0048659 < 0.01
Simulation CPU 0 panic: IPC 0.0028746 < 0.01
Simulation CPU 0 warning: IPC 0.020845 < 0.05
Simulation CPU 0 warning: IPC 0.027336 < 0.05
[ERROR_CYCLE] Error added at CPU cycle 3103425644, interval 44, pending count: 1
[DRAM_CYCLE_ERROR] Cycle-based error applied! address=0x14f5364f8 additional_latency=2459910500 cycles
Simulation CPU 0 panic: IPC 0 < 0.01
Simulation CPU 0 panic: IPC 0.0056139 < 0.01
Simulation CPU 0 panic: IPC 0.0051155 < 0.01
Simulation CPU 0 panic: IPC 0.002625 < 0.01
Simulation CPU 0 warning: IPC 0.02047 < 0.05
Simulation CPU 0 panic: IPC 0.0026139 < 0.01
Simulation CPU 0 warning: IPC 0.025587 < 0.05
[ERROR_CYCLE] Error added at CPU cycle 3173958045, interval 45, pending count: 1
[DRAM_CYCLE_ERROR] Cycle-based error applied! address=0x11b300450 additional_latency=2459910500 cycles
Simulation CPU 0 panic: IPC 0 < 0.01
Simulation CPU 0 panic: IPC 0.0053643 < 0.01
Simulation CPU 0 panic: IPC 0.0051155 < 0.01
Simulation CPU 0 panic: IPC 0.0022506 < 0.01
Simulation CPU 0 warning: IPC 0.020345 < 0.05
Simulation CPU 0 panic: IPC 0.0027867 < 0.01
Simulation CPU 0 warning: IPC 0.025922 < 0.05
[ERROR_CYCLE] Error added at CPU cycle 3244490446, interval 46, pending count: 1
[DRAM_CYCLE_ERROR] Cycle-based error applied! address=0x14f543498 additional_latency=2459910500 cycles
Simulation CPU 0 panic: IPC 0.0052395 < 0.01
Simulation CPU 0 panic: IPC 0.0051155 < 0.01
Simulation CPU 0 panic: IPC 0.0021258 < 0.01
Simulation CPU 0 critical: IPC 0.019971 < 0.02
Simulation CPU 0 panic: IPC 0.0029883 < 0.01
Heartbeat CPU 0 instructions: 30000005 cycles: 3297343124 heartbeat IPC: 0.009322 cumulative IPC: 0.009098 (Simulation time: 05 hr 48 min 30 sec)
Simulation CPU 0 warning: IPC 0.026585 < 0.05
Simulation CPU 0 panic: IPC 0.0048651 < 0.01
[ERROR_CYCLE] Error added at CPU cycle 3315022848, interval 47, pending count: 1
[DRAM_CYCLE_ERROR] Cycle-based error applied! address=0x301b00260 additional_latency=2459910500 cycles
Simulation CPU 0 panic: IPC 0 < 0.01
Simulation CPU 0 panic: IPC 0.0052403 < 0.01
Simulation CPU 0 panic: IPC 0.0018762 < 0.01
Simulation CPU 0 critical: IPC 0.019635 < 0.02
Simulation CPU 0 panic: IPC 0.0033243 < 0.01
Simulation CPU 0 warning: IPC 0.026843 < 0.05
Simulation CPU 0 panic: IPC 0.0047403 < 0.01
[ERROR_CYCLE] Error added at CPU cycle 3385555249, interval 48, pending count: 1
[DRAM_CYCLE_ERROR] Cycle-based error applied! address=0x14f5504f8 additional_latency=2459910500 cycles
Simulation CPU 0 panic: IPC 0.0052499 < 0.01
Simulation CPU 0 panic: IPC 0 < 0.01
Simulation CPU 0 panic: IPC 0.0017418 < 0.01
Simulation CPU 0 warning: IPC 0.022835 < 0.05
Simulation CPU 0 warning: IPC 0.027459 < 0.05
Simulation CPU 0 panic: IPC 0.0043659 < 0.01
Simulation CPU 0 panic: IPC 0.0053651 < 0.01
[ERROR_CYCLE] Error added at CPU cycle 3456087649, interval 49, pending count: 1
[DRAM_CYCLE_ERROR] Cycle-based error applied! address=0x44dd00330 additional_latency=2459910500 cycles
Simulation CPU 0 panic: IPC 0 < 0.01
Simulation CPU 0 panic: IPC 0.001377 < 0.01
Simulation CPU 0 critical: IPC 0.019097 < 0.02
Simulation CPU 0 panic: IPC 0.0038043 < 0.01
Simulation CPU 0 warning: IPC 0.027775 < 0.05
Simulation CPU 0 panic: IPC 0.0042411 < 0.01
Simulation CPU 0 panic: IPC 0.0054899 < 0.01
[ERROR_CYCLE] Error added at CPU cycle 3526620050, interval 50, pending count: 1
[DRAM_CYCLE_ERROR] Cycle-based error applied! address=0x14f55d488 additional_latency=2459910500 cycles
Simulation CPU 0 panic: IPC 0.0011274 < 0.01
Simulation CPU 0 panic: IPC 0 < 0.01
Simulation CPU 0 panic: IPC 0.0046611 < 0.01
Simulation CPU 0 critical: IPC 0.014062 < 0.02
Simulation CPU 0 panic: IPC 0.0039867 < 0.01
Simulation CPU 0 warning: IPC 0.032449 < 0.05
Simulation CPU 0 panic: IPC 0.0053651 < 0.01
[ERROR_CYCLE] Error added at CPU cycle 3597152452, interval 51, pending count: 1
[DRAM_CYCLE_ERROR] Cycle-based error applied! address=0xd6400158 additional_latency=2459910500 cycles
Simulation CPU 0 panic: IPC 0 < 0.01
Simulation CPU 0 panic: IPC 0.0010026 < 0.01
Simulation CPU 0 critical: IPC 0.018474 < 0.02
Simulation CPU 0 panic: IPC 0.0042363 < 0.01
Simulation CPU 0 warning: IPC 0.028715 < 0.05
Simulation CPU 0 panic: IPC 0.0037419 < 0.01
Simulation CPU 0 panic: IPC 0.0056147 < 0.01
[ERROR_CYCLE] Error added at CPU cycle 3667684853, interval 52, pending count: 1
[DRAM_CYCLE_ERROR] Cycle-based error applied! address=0x14f56a498 additional_latency=2459910500 cycles
Simulation CPU 0 panic: IPC 0.000753 < 0.01
Simulation CPU 0 panic: IPC 0 < 0.01
Simulation CPU 0 critical: IPC 0.018099 < 0.02
Simulation CPU 0 panic: IPC 0.0044859 < 0.01
Simulation CPU 0 warning: IPC 0.029331 < 0.05
Simulation CPU 0 panic: IPC 0.0034923 < 0.01
Simulation CPU 0 panic: IPC 0.0056147 < 0.01
[ERROR_CYCLE] Error added at CPU cycle 3738217253, interval 53, pending count: 1
[DRAM_CYCLE_ERROR] Cycle-based error applied! address=0x5517000b8 additional_latency=2459910500 cycles
Simulation CPU 0 panic: IPC 0.0003786 < 0.01
Simulation CPU 0 critical: IPC 0.017974 < 0.02
Simulation CPU 0 panic: IPC 0.0046971 < 0.01
Simulation CPU 0 warning: IPC 0.029627 < 0.05
Simulation CPU 0 panic: IPC 0.0032427 < 0.01
Simulation CPU 0 panic: IPC 0.0057395 < 0.01
Simulation CPU 0 panic: IPC 0.0002538 < 0.01
[ERROR_CYCLE] Error added at CPU cycle 3808749654, interval 54, pending count: 1
[DRAM_CYCLE_ERROR] Cycle-based error applied! address=0x14f577458 additional_latency=2459910500 cycles
Simulation CPU 0 critical: IPC 0.0176 < 0.02
Simulation CPU 0 panic: IPC 0 < 0.01
Simulation CPU 0 panic: IPC 0.0048603 < 0.01
Simulation CPU 0 warning: IPC 0.030329 < 0.05
Simulation CPU 0 panic: IPC 0.0029931 < 0.01
Simulation CPU 0 panic: IPC 0.0057395 < 0.01
Simulation CPU 0 panic: IPC 0.0019035 < 0.01
[ERROR_CYCLE] Error added at CPU cycle 3879282055, interval 55, pending count: 1
Simulation CPU 0 critical: IPC 0.015451 < 0.02
[DRAM_CYCLE_ERROR] Cycle-based error applied! address=0x57ff00620 additional_latency=2459910500 cycles
Simulation CPU 0 panic: IPC 0 < 0.01
Simulation CPU 0 warning: IPC 0.035697 < 0.05
Simulation CPU 0 panic: IPC 0.0028683 < 0.01
Simulation CPU 0 panic: IPC 0.0056189 < 0.01
Simulation CPU 0 panic: IPC 0.0001206 < 0.01
Simulation CPU 0 critical: IPC 0.016855 < 0.02
[ERROR_CYCLE] Error added at CPU cycle 3949814457, interval 56, pending count: 1
Simulation CPU 0 panic: IPC 0.0053595 < 0.01
[DRAM_CYCLE_ERROR] Cycle-based error applied! address=0x14f585508 additional_latency=2459910500 cycles
Simulation CPU 0 panic: IPC 0 < 0.01
Simulation CPU 0 warning: IPC 0.031203 < 0.05
Simulation CPU 0 panic: IPC 0.0024939 < 0.01
Simulation CPU 0 panic: IPC 0.0053693 < 0.01
Simulation CPU 0 panic: IPC 0.000495 < 0.01
Simulation CPU 0 critical: IPC 0.016356 < 0.02
Simulation CPU 0 panic: IPC 0.0055899 < 0.01
[ERROR_CYCLE] Error added at CPU cycle 4020346858, interval 57, pending count: 1
[DRAM_CYCLE_ERROR] Cycle-based error applied! address=0x60b00000 additional_latency=2459910500 cycles
Simulation CPU 0 panic: IPC 0 < 0.01
Simulation CPU 0 warning: IPC 0.03148 < 0.05
Simulation CPU 0 panic: IPC 0.0023691 < 0.01
Simulation CPU 0 panic: IPC 0.0059891 < 0.01
Simulation CPU 0 critical: IPC 0.015607 < 0.02
Simulation CPU 0 panic: IPC 0.0058587 < 0.01
Simulation CPU 0 warning: IPC 0.032201 < 0.05
[ERROR_CYCLE] Error added at CPU cycle 4090879258, interval 58, pending count: 1
[DRAM_CYCLE_ERROR] Cycle-based error applied! address=0x14f592570 additional_latency=2459910500 cycles
Simulation CPU 0 panic: IPC 0 < 0.01
Simulation CPU 0 panic: IPC 0.0021195 < 0.01
Simulation CPU 0 panic: IPC 0.0049949 < 0.01
Simulation CPU 0 panic: IPC 0.0008694 < 0.01
Simulation CPU 0 critical: IPC 0.015233 < 0.02
Simulation CPU 0 panic: IPC 0.0061083 < 0.01
Simulation CPU 0 warning: IPC 0.032459 < 0.05
[ERROR_CYCLE] Error added at CPU cycle 4161411659, interval 59, pending count: 1
[DRAM_CYCLE_ERROR] Cycle-based error applied! address=0x7b7600210 additional_latency=2459910500 cycles
Simulation CPU 0 panic: IPC 0 < 0.01
Simulation CPU 0 panic: IPC 0.0018699 < 0.01
Simulation CPU 0 panic: IPC 0.0041324 < 0.01
Simulation CPU 0 panic: IPC 0.0008625 < 0.01
Simulation CPU 0 panic: IPC 0.0094272 < 0.01
Simulation CPU 0 critical: IPC 0.012659 < 0.02
Simulation CPU 0 warning: IPC 0.033075 < 0.05
[ERROR_CYCLE] Error added at CPU cycle 4231944060, interval 60, pending count: 1
[DRAM_CYCLE_ERROR] Cycle-based error applied! address=0x14f59f580 additional_latency=2459910500 cycles
Simulation CPU 0 panic: IPC 0 < 0.01
Simulation CPU 0 panic: IPC 0.0016203 < 0.01
Simulation CPU 0 panic: IPC 0.0046205 < 0.01
Simulation CPU 0 panic: IPC 0.0013686 < 0.01
Simulation CPU 0 critical: IPC 0.014235 < 0.02
Simulation CPU 0 panic: IPC 0.006491 < 0.01
Simulation CPU 0 warning: IPC 0.033449 < 0.05
[ERROR_CYCLE] Error added at CPU cycle 4302476462, interval 61, pending count: 1
[DRAM_CYCLE_ERROR] Cycle-based error applied! address=0xd6700250 additional_latency=2459910500 cycles
Simulation CPU 0 panic: IPC 0 < 0.01
Simulation CPU 0 panic: IPC 0.0013707 < 0.01
Simulation CPU 0 panic: IPC 0.0046205 < 0.01
Simulation CPU 0 panic: IPC 0.0016182 < 0.01
Simulation CPU 0 critical: IPC 0.01361 < 0.02
Simulation CPU 0 panic: IPC 0.0067323 < 0.01
Heartbeat CPU 0 instructions: 40000005 cycles: 4360766475 heartbeat IPC: 0.009404 cumulative IPC: 0.009173 (Simulation time: 07 hr 41 min 55 sec)
Simulation CPU 0 warning: IPC 0.034073 < 0.05
[ERROR_CYCLE] Error added at CPU cycle 4373008862, interval 62, pending count: 1
[DRAM_CYCLE_ERROR] Cycle-based error applied! address=0x14f5ac520 additional_latency=2459910500 cycles
Simulation CPU 0 panic: IPC 0.0011211 < 0.01
Simulation CPU 0 panic: IPC 0.0043709 < 0.01
Simulation CPU 0 panic: IPC 0.0018678 < 0.01
Simulation CPU 0 critical: IPC 0.013111 < 0.02
Simulation CPU 0 panic: IPC 0.0068654 < 0.01
Simulation CPU 0 warning: IPC 0.034448 < 0.05
Simulation CPU 0 panic: IPC 0.0009963 < 0.01
[ERROR_CYCLE] Error added at CPU cycle 4443541263, interval 63, pending count: 1
[DRAM_CYCLE_ERROR] Cycle-based error applied! address=0x497400768 additional_latency=2459910500 cycles
Simulation CPU 0 panic: IPC 0 < 0.01
Simulation CPU 0 panic: IPC 0.0042461 < 0.01
Simulation CPU 0 panic: IPC 0.0019926 < 0.01
Simulation CPU 0 critical: IPC 0.012612 < 0.02
Simulation CPU 0 panic: IPC 0.0072315 < 0.01
Simulation CPU 0 warning: IPC 0.034947 < 0.05
Simulation CPU 0 panic: IPC 0.0006219 < 0.01
[ERROR_CYCLE] Error added at CPU cycle 4514073664, interval 64, pending count: 1
[DRAM_CYCLE_ERROR] Cycle-based error applied! address=0x14f5b9500 additional_latency=2459910500 cycles
Simulation CPU 0 panic: IPC 0.0039965 < 0.01
Simulation CPU 0 panic: IPC 0 < 0.01
Simulation CPU 0 critical: IPC 0.01448 < 0.02
Simulation CPU 0 panic: IPC 0.0073646 < 0.01
Simulation CPU 0 warning: IPC 0.035321 < 0.05
Simulation CPU 0 panic: IPC 0.0004971 < 0.01
Simulation CPU 0 panic: IPC 0.0038717 < 0.01
[ERROR_CYCLE] Error added at CPU cycle 4584606066, interval 65, pending count: 1
[DRAM_CYCLE_ERROR] Cycle-based error applied! address=0x554400298 additional_latency=2459910500 cycles
Simulation CPU 0 panic: IPC 0 < 0.01
Simulation CPU 0 panic: IPC 0.002511 < 0.01
Simulation CPU 0 critical: IPC 0.011595 < 0.02
Simulation CPU 0 panic: IPC 0.0076059 < 0.01
Simulation CPU 0 warning: IPC 0.035945 < 0.05
Simulation CPU 0 panic: IPC 0.0001227 < 0.01
Simulation CPU 0 panic: IPC 0.0037469 < 0.01
[ERROR_CYCLE] Error added at CPU cycle 4655138467, interval 66, pending count: 1
[DRAM_CYCLE_ERROR] Cycle-based error applied! address=0x14f5c6590 additional_latency=2459910500 cycles
Simulation CPU 0 panic: IPC 0.0027414 < 0.01
Simulation CPU 0 panic: IPC 0 < 0.01
Simulation CPU 0 critical: IPC 0.010998 < 0.02
Simulation CPU 0 panic: IPC 0.0078555 < 0.01
Simulation CPU 0 warning: IPC 0.03994 < 0.05
Simulation CPU 0 panic: IPC 0.002991 < 0.01
Simulation CPU 0 critical: IPC 0.01049 < 0.02
[ERROR_CYCLE] Error added at CPU cycle 4725670867, interval 67, pending count: 1
[DRAM_CYCLE_ERROR] Cycle-based error applied! address=0x5a20007f0 additional_latency=2459910500 cycles
Simulation CPU 0 panic: IPC 0 < 0.01
Simulation CPU 0 panic: IPC 0.0081051 < 0.01
Simulation CPU 0 warning: IPC 0.036567 < 0.05
Simulation CPU 0 panic: IPC 0.0002517 < 0.01
Simulation CPU 0 panic: IPC 0.002996 < 0.01
Simulation CPU 0 panic: IPC 0.0032406 < 0.01
Simulation CPU 0 panic: IPC 0.0098748 < 0.01
[ERROR_CYCLE] Error added at CPU cycle 4796203268, interval 68, pending count: 1
[DRAM_CYCLE_ERROR] Cycle-based error applied! address=0x14f5d4570 additional_latency=2459910500 cycles
Simulation CPU 0 panic: IPC 0.0084795 < 0.01
Simulation CPU 0 panic: IPC 0 < 0.01
Simulation CPU 0 warning: IPC 0.036692 < 0.05
Simulation CPU 0 panic: IPC 0.0005013 < 0.01
Simulation CPU 0 panic: IPC 0.0027464 < 0.01
Simulation CPU 0 panic: IPC 0.0034902 < 0.01
Simulation CPU 0 critical: IPC 0.017972 < 0.02
[ERROR_CYCLE] Error added at CPU cycle 4866735669, interval 69, pending count: 1
[DRAM_CYCLE_ERROR] Cycle-based error applied! address=0x774800190 additional_latency=2459910500 cycles
Simulation CPU 0 panic: IPC 0 < 0.01
Simulation CPU 0 critical: IPC 0.011586 < 0.02
Simulation CPU 0 warning: IPC 0.02548 < 0.05
Simulation CPU 0 panic: IPC 0.0007509 < 0.01
Simulation CPU 0 panic: IPC 0.0022472 < 0.01
Simulation CPU 0 panic: IPC 0.0037398 < 0.01
Simulation CPU 0 panic: IPC 0.0087516 < 0.01
[ERROR_CYCLE] Error added at CPU cycle 4937268071, interval 70, pending count: 1
[DRAM_CYCLE_ERROR] Cycle-based error applied! address=0x14f5e1580 additional_latency=2459910500 cycles
Simulation CPU 0 panic: IPC 0.0088539 < 0.01
Simulation CPU 0 panic: IPC 0 < 0.01
Simulation CPU 0 warning: IPC 0.037191 < 0.05
Simulation CPU 0 panic: IPC 0.0010005 < 0.01
Simulation CPU 0 panic: IPC 0.0019976 < 0.01
Simulation CPU 0 panic: IPC 0.0038646 < 0.01
Simulation CPU 0 panic: IPC 0.0083689 < 0.01
[ERROR_CYCLE] Error added at CPU cycle 5007800472, interval 71, pending count: 1
[DRAM_CYCLE_ERROR] Cycle-based error applied! address=0x40b6005a8 additional_latency=2459910500 cycles
Simulation CPU 0 panic: IPC 0.0091035 < 0.01
Simulation CPU 0 warning: IPC 0.032088 < 0.05
Simulation CPU 0 panic: IPC 0.0066034 < 0.01
Simulation CPU 0 panic: IPC 0.0013736 < 0.01
Simulation CPU 0 panic: IPC 0.004239 < 0.01
Simulation CPU 0 panic: IPC 0.0077532 < 0.01
Simulation CPU 0 panic: IPC 0.0093531 < 0.01
[ERROR_CYCLE] Error added at CPU cycle 5078332872, interval 72, pending count: 1
Simulation CPU 0 warning: IPC 0.037691 < 0.05
[DRAM_CYCLE_ERROR] Cycle-based error applied! address=0x14f5ee578 additional_latency=2459910500 cycles
Simulation CPU 0 panic: IPC 0 < 0.01
Simulation CPU 0 panic: IPC 0.0013749 < 0.01
Simulation CPU 0 panic: IPC 0.001124 < 0.01
Simulation CPU 0 panic: IPC 0.0043638 < 0.01
Simulation CPU 0 panic: IPC 0.0073705 < 0.01
Simulation CPU 0 panic: IPC 0.0094779 < 0.01
[ERROR_CYCLE] Error added at CPU cycle 5148865273, interval 73, pending count: 1
Simulation CPU 0 warning: IPC 0.03794 < 0.05
[DRAM_CYCLE_ERROR] Cycle-based error applied! address=0x1d3400168 additional_latency=2459910500 cycles
Simulation CPU 0 panic: IPC 0 < 0.01
Simulation CPU 0 panic: IPC 0.0016821 < 0.01
Simulation CPU 0 panic: IPC 0.0053137 < 0.01
Simulation CPU 0 panic: IPC 0.0067465 < 0.01
Simulation CPU 0 panic: IPC 0.0097275 < 0.01
Simulation CPU 0 panic: IPC 0.0091991 < 0.01
[ERROR_CYCLE] Error added at CPU cycle 5219397675, interval 74, pending count: 1
Simulation CPU 0 warning: IPC 0.028991 < 0.05
[DRAM_CYCLE_ERROR] Cycle-based error applied! address=0x14f5fb588 additional_latency=2459910500 cycles
Simulation CPU 0 panic: IPC 0 < 0.01
Simulation CPU 0 panic: IPC 0.0018741 < 0.01
Simulation CPU 0 panic: IPC 0.0003752 < 0.01
Simulation CPU 0 panic: IPC 0.004863 < 0.01
Simulation CPU 0 panic: IPC 0.0062473 < 0.01
Simulation CPU 0 panic: IPC 0.0099771 < 0.01
[ERROR_CYCLE] Error added at CPU cycle 5289930076, interval 75, pending count: 1
Simulation CPU 0 warning: IPC 0.038439 < 0.05
[DRAM_CYCLE_ERROR] Cycle-based error applied! address=0x57cf007d8 additional_latency=2459910500 cycles
Simulation CPU 0 panic: IPC 0 < 0.01
Simulation CPU 0 panic: IPC 0.0018824 < 0.01
Simulation CPU 0 panic: IPC 0.0051134 < 0.01
Simulation CPU 0 panic: IPC 0.0057481 < 0.01
Simulation CPU 0 warning: IPC 0.048791 < 0.05
Simulation CPU 0 panic: IPC 0.0018749 < 0.01
Simulation CPU 0 panic: IPC 0.0004984 < 0.01
[ERROR_CYCLE] Error added at CPU cycle 5360462476, interval 76, pending count: 1
[DRAM_CYCLE_ERROR] Cycle-based error applied! address=0x331509608 additional_latency=2459910500 cycles
Simulation CPU 0 panic: IPC 0 < 0.01
Simulation CPU 0 panic: IPC 0.0048638 < 0.01
Simulation CPU 0 panic: IPC 0.0052489 < 0.01
Simulation CPU 0 critical: IPC 0.010351 < 0.02
Simulation CPU 0 warning: IPC 0.038822 < 0.05
Simulation CPU 0 panic: IPC 0.0017501 < 0.01
Simulation CPU 0 panic: IPC 0.000748 < 0.01
[ERROR_CYCLE] Error added at CPU cycle 5430994877, interval 77, pending count: 1
[DRAM_CYCLE_ERROR] Cycle-based error applied! address=0x6fed00050 additional_latency=2459910500 cycles
Simulation CPU 0 panic: IPC 0 < 0.01
Simulation CPU 0 panic: IPC 0.004739 < 0.01
Heartbeat CPU 0 instructions: 50000005 cycles: 5452631596 heartbeat IPC: 0.009159 cumulative IPC: 0.00917 (Simulation time: 09 hr 34 min 44 sec)
Simulation CPU 0 panic: IPC 0.0046729 < 0.01
Simulation CPU 0 critical: IPC 0.010678 < 0.02
Simulation CPU 0 warning: IPC 0.039063 < 0.05
Simulation CPU 0 panic: IPC 0.0016253 < 0.01
Simulation CPU 0 panic: IPC 0.0057366 < 0.01
[ERROR_CYCLE] Error added at CPU cycle 5501527278, interval 78, pending count: 1
[DRAM_CYCLE_ERROR] Cycle-based error applied! address=0x3315165f8 additional_latency=2459910500 cycles
Simulation CPU 0 panic: IPC 0 < 0.01
Simulation CPU 0 panic: IPC 0.0041257 < 0.01
Simulation CPU 0 critical: IPC 0.010975 < 0.02
Simulation CPU 0 panic: IPC 0.0066869 < 0.01
Simulation CPU 0 warning: IPC 0.032509 < 0.05
Simulation CPU 0 panic: IPC 0.0013757 < 0.01
Simulation CPU 0 panic: IPC 0.0016216 < 0.01
[ERROR_CYCLE] Error added at CPU cycle 5572059680, interval 79, pending count: 1
[DRAM_CYCLE_ERROR] Cycle-based error applied! address=0x78a100090 additional_latency=2459910500 cycles
Simulation CPU 0 panic: IPC 0 < 0.01
Simulation CPU 0 panic: IPC 0.0044894 < 0.01
Simulation CPU 0 panic: IPC 0.0035017 < 0.01
Simulation CPU 0 critical: IPC 0.011225 < 0.02
Simulation CPU 0 warning: IPC 0.039563 < 0.05
Simulation CPU 0 panic: IPC 0.0011261 < 0.01
Simulation CPU 0 panic: IPC 0.0021208 < 0.01
[ERROR_CYCLE] Error added at CPU cycle 5642592081, interval 80, pending count: 1
[DRAM_CYCLE_ERROR] Cycle-based error applied! address=0x331523608 additional_latency=2459910500 cycles
Simulation CPU 0 panic: IPC 0.004115 < 0.01
Simulation CPU 0 panic: IPC 0.0031273 < 0.01
Simulation CPU 0 critical: IPC 0.01135 < 0.02
Simulation CPU 0 warning: IPC 0.039696 < 0.05
Simulation CPU 0 panic: IPC 0.0011261 < 0.01
Simulation CPU 0 panic: IPC 0.0023704 < 0.01
Simulation CPU 0 panic: IPC 0.004115 < 0.01
[ERROR_CYCLE] Error added at CPU cycle 5713124481, interval 81, pending count: 1
[DRAM_CYCLE_ERROR] Cycle-based error applied! address=0x10b8004f8 additional_latency=2459910500 cycles
Simulation CPU 0 panic: IPC 0 < 0.01
Simulation CPU 0 panic: IPC 0.0025033 < 0.01
Simulation CPU 0 critical: IPC 0.0116 < 0.02
Simulation CPU 0 warning: IPC 0.040062 < 0.05
Simulation CPU 0 panic: IPC 0.0008765 < 0.01
Simulation CPU 0 panic: IPC 0.0028696 < 0.01
Simulation CPU 0 panic: IPC 0.0037694 < 0.01
[ERROR_CYCLE] Error added at CPU cycle 5783656882, interval 82, pending count: 1
[DRAM_CYCLE_ERROR] Cycle-based error applied! address=0x331530548 additional_latency=2459910500 cycles
Simulation CPU 0 panic: IPC 0.0021001 < 0.01
Simulation CPU 0 panic: IPC 0 < 0.01
Simulation CPU 0 critical: IPC 0.011849 < 0.02
Simulation CPU 0 warning: IPC 0.040822 < 0.05
Simulation CPU 0 panic: IPC 0.003244 < 0.01
Simulation CPU 0 panic: IPC 0.0037406 < 0.01
Simulation CPU 0 panic: IPC 0.0015049 < 0.01
[ERROR_CYCLE] Error added at CPU cycle 5854189283, interval 83, pending count: 1
[DRAM_CYCLE_ERROR] Cycle-based error applied! address=0x9ff00488 additional_latency=2459910500 cycles
Simulation CPU 0 panic: IPC 0 < 0.01
Simulation CPU 0 critical: IPC 0.012099 < 0.02
Simulation CPU 0 warning: IPC 0.040436 < 0.05
Simulation CPU 0 panic: IPC 0.0005021 < 0.01
Simulation CPU 0 panic: IPC 0.0037432 < 0.01
Simulation CPU 0 panic: IPC 0.003491 < 0.01
Simulation CPU 0 panic: IPC 0.0010057 < 0.01
[ERROR_CYCLE] Error added at CPU cycle 5924721685, interval 84, pending count: 1
[DRAM_CYCLE_ERROR] Cycle-based error applied! address=0x33153d5f8 additional_latency=2459910500 cycles
Simulation CPU 0 critical: IPC 0.012223 < 0.02
Simulation CPU 0 panic: IPC 0 < 0.01
Simulation CPU 0 warning: IPC 0.040694 < 0.05
Simulation CPU 0 panic: IPC 0.0003773 < 0.01
Simulation CPU 0 panic: IPC 0.0039928 < 0.01
Simulation CPU 0 panic: IPC 0.0038727 < 0.01
Simulation CPU 0 critical: IPC 0.012473 < 0.02
[ERROR_CYCLE] Error added at CPU cycle 5995254086, interval 85, pending count: 1
[DRAM_CYCLE_ERROR] Cycle-based error applied! address=0x467300358 additional_latency=2459910500 cycles
Simulation CPU 0 panic: IPC 0 < 0.01
Simulation CPU 0 warning: IPC 0.040935 < 0.05
Simulation CPU 0 panic: IPC 0.0002525 < 0.01
Simulation CPU 0 panic: IPC 0.004492 < 0.01
Simulation CPU 0 panic: IPC 0.0031166 < 0.01
Simulation CPU 0 critical: IPC 0.01273 < 0.02
Simulation CPU 0 warning: IPC 0.041068 < 0.05
[ERROR_CYCLE] Error added at CPU cycle 6065786486, interval 86, pending count: 1
[DRAM_CYCLE_ERROR] Cycle-based error applied! address=0x33154c660 additional_latency=2459910500 cycles
Simulation CPU 0 panic: IPC 0.0048693 < 0.01
Simulation CPU 0 panic: IPC 0 < 0.01
Simulation CPU 0 panic: IPC 0.0024999 < 0.01
Simulation CPU 0 panic: IPC 0.0006167 < 0.01
Simulation CPU 0 critical: IPC 0.012356 < 0.02
Simulation CPU 0 warning: IPC 0.041188 < 0.05
Simulation CPU 0 panic: IPC 0.0001219 < 0.01
[ERROR_CYCLE] Error added at CPU cycle 6136318887, interval 87, pending count: 1
[DRAM_CYCLE_ERROR] Cycle-based error applied! address=0x7a49005d0 additional_latency=2459910500 cycles
Simulation CPU 0 panic: IPC 0.0052437 < 0.01
Simulation CPU 0 panic: IPC 0.0016263 < 0.01
Simulation CPU 0 panic: IPC 0.0011159 < 0.01
Simulation CPU 0 critical: IPC 0.012106 < 0.02
Simulation CPU 0 warning: IPC 0.04123 < 0.05
Simulation CPU 0 panic: IPC 9.09e-05 < 0.01
Simulation CPU 0 panic: IPC 0.0002467 < 0.01
[ERROR_CYCLE] Error added at CPU cycle 6206851289, interval 88, pending count: 1
Simulation CPU 0 panic: IPC 0.0053685 < 0.01
[DRAM_CYCLE_ERROR] Cycle-based error applied! address=0x331559670 additional_latency=2459910500 cycles
Simulation CPU 0 panic: IPC 0 < 0.01
Simulation CPU 0 panic: IPC 0.0010023 < 0.01
Simulation CPU 0 panic: IPC 0.0017399 < 0.01
Simulation CPU 0 critical: IPC 0.011732 < 0.02
Simulation CPU 0 warning: IPC 0.041437 < 0.05
Simulation CPU 0 panic: IPC 0.0004963 < 0.01
[ERROR_CYCLE] Error added at CPU cycle 6277383690, interval 89, pending count: 1
Simulation CPU 0 panic: IPC 0.0056181 < 0.01
[DRAM_CYCLE_ERROR] Cycle-based error applied! address=0x7f1500610 additional_latency=2459910500 cycles
Simulation CPU 0 panic: IPC 0 < 0.01
Simulation CPU 0 panic: IPC 0.0023678 < 0.01
Simulation CPU 0 critical: IPC 0.011607 < 0.02
Simulation CPU 0 warning: IPC 0.041321 < 0.05
Simulation CPU 0 panic: IPC 0.0006211 < 0.01
Simulation CPU 0 panic: IPC 0.0054972 < 0.01
[ERROR_CYCLE] Error added at CPU cycle 6347916090, interval 90, pending count: 1
Simulation CPU 0 panic: IPC 0.0003705 < 0.01
[DRAM_CYCLE_ERROR] Cycle-based error applied! address=0x331566680 additional_latency=2459910500 cycles
Simulation CPU 0 panic: IPC 0 < 0.01
Simulation CPU 0 panic: IPC 0.0023678 < 0.01
Simulation CPU 0 critical: IPC 0.011232 < 0.02
Simulation CPU 0 warning: IPC 0.041437 < 0.05
Simulation CPU 0 panic: IPC 0.0008707 < 0.01
Simulation CPU 0 panic: IPC 0.004998 < 0.01
[ERROR_CYCLE] Error added at CPU cycle 6418448491, interval 91, pending count: 1
Simulation CPU 0 panic: IPC 0.0011193 < 0.01
[DRAM_CYCLE_ERROR] Cycle-based error applied! address=0x323500650 additional_latency=2459910500 cycles
Simulation CPU 0 panic: IPC 0 < 0.01
Simulation CPU 0 panic: IPC 0.0021182 < 0.01
Simulation CPU 0 critical: IPC 0.010858 < 0.02
Simulation CPU 0 warning: IPC 0.042566 < 0.05
Simulation CPU 0 panic: IPC 0.0044988 < 0.01
Simulation CPU 0 panic: IPC 0.0017433 < 0.01
[ERROR_CYCLE] Error added at CPU cycle 6488980892, interval 92, pending count: 1
Simulation CPU 0 panic: IPC 0.0019934 < 0.01
[DRAM_CYCLE_ERROR] Cycle-based error applied! address=0x331573670 additional_latency=2459910500 cycles
Simulation CPU 0 panic: IPC 0 < 0.01
Simulation CPU 0 critical: IPC 0.010608 < 0.02
Heartbeat CPU 0 instructions: 60000005 cycles: 6516107875 heartbeat IPC: 0.009403 cumulative IPC: 0.009208 (Simulation time: 11 hr 25 min 21 sec)
Simulation CPU 0 warning: IPC 0.038834 < 0.05
Simulation CPU 0 panic: IPC 0.0028527 < 0.01
Simulation CPU 0 panic: IPC 0.0011203 < 0.01
Simulation CPU 0 panic: IPC 0.0041244 < 0.01
[ERROR_CYCLE] Error added at CPU cycle 6559513294, interval 93, pending count: 1
Simulation CPU 0 panic: IPC 0.0024921 < 0.01
[DRAM_CYCLE_ERROR] Cycle-based error applied! address=0xb000690 additional_latency=2459910500 cycles
Simulation CPU 0 panic: IPC 0 < 0.01
Simulation CPU 0 panic: IPC 0.0017438 < 0.01
Simulation CPU 0 critical: IPC 0.010359 < 0.02
Simulation CPU 0 warning: IPC 0.041571 < 0.05
Simulation CPU 0 panic: IPC 0.0013699 < 0.01
Simulation CPU 0 panic: IPC 0.0067413 < 0.01
Simulation CPU 0 panic: IPC 0.001619 < 0.01
[ERROR_CYCLE] Error added at CPU cycle 6630045695, interval 94, pending count: 1
[DRAM_CYCLE_ERROR] Cycle-based error applied! address=0x331580680 additional_latency=2459910500 cycles
Simulation CPU 0 panic: IPC 0 < 0.01
Simulation CPU 0 critical: IPC 0.010109 < 0.02
Simulation CPU 0 warning: IPC 0.041687 < 0.05
Simulation CPU 0 panic: IPC 0.0014947 < 0.01
Simulation CPU 0 panic: IPC 0.0032508 < 0.01
Simulation CPU 0 panic: IPC 0.0038649 < 0.01
Simulation CPU 0 panic: IPC 0.0013694 < 0.01
[ERROR_CYCLE] Error added at CPU cycle 6700578095, interval 95, pending count: 1
[DRAM_CYCLE_ERROR] Cycle-based error applied! address=0x1c6b00390 additional_latency=2459910500 cycles
Simulation CPU 0 panic: IPC 0 < 0.01
Simulation CPU 0 panic: IPC 0.0097348 < 0.01
Simulation CPU 0 warning: IPC 0.04182 < 0.05
Simulation CPU 0 panic: IPC 0.0016195 < 0.01
Simulation CPU 0 panic: IPC 0.0027516 < 0.01
Simulation CPU 0 panic: IPC 0.0044889 < 0.01
Simulation CPU 0 critical: IPC 0.01073 < 0.02
[ERROR_CYCLE] Error added at CPU cycle 6771110496, interval 96, pending count: 1
[DRAM_CYCLE_ERROR] Cycle-based error applied! address=0x33158d660 additional_latency=2459910500 cycles
Simulation CPU 0 panic: IPC 0 < 0.01
Simulation CPU 0 warning: IPC 0.041937 < 0.05
Simulation CPU 0 panic: IPC 0.0018691 < 0.01
Simulation CPU 0 panic: IPC 0.0022524 < 0.01
Simulation CPU 0 panic: IPC 0.0052377 < 0.01
Simulation CPU 0 panic: IPC 0.000995 < 0.01
Simulation CPU 0 panic: IPC 0.0092356 < 0.01
[ERROR_CYCLE] Error added at CPU cycle 6841642897, interval 97, pending count: 1
[DRAM_CYCLE_ERROR] Cycle-based error applied! address=0xb7f00538 additional_latency=2459910500 cycles
Simulation CPU 0 panic: IPC 0 < 0.01
Simulation CPU 0 warning: IPC 0.03633 < 0.05
Simulation CPU 0 panic: IPC 0.0054993 < 0.01
Simulation CPU 0 panic: IPC 0.0019843 < 0.01
Simulation CPU 0 panic: IPC 0.0017532 < 0.01
Simulation CPU 0 panic: IPC 0.0059865 < 0.01
Simulation CPU 0 panic: IPC 0.000995 < 0.01
[ERROR_CYCLE] Error added at CPU cycle 6912175299, interval 98, pending count: 1
[DRAM_CYCLE_ERROR] Cycle-based error applied! address=0x33159a670 additional_latency=2459910500 cycles
Simulation CPU 0 panic: IPC 0.0088612 < 0.01
Simulation CPU 0 panic: IPC 0 < 0.01
Simulation CPU 0 warning: IPC 0.04418 < 0.05
Simulation CPU 0 panic: IPC 0.001254 < 0.01
Simulation CPU 0 panic: IPC 0.0067353 < 0.01
Simulation CPU 0 panic: IPC 0.000659 < 0.01
Simulation CPU 0 panic: IPC 0.0085732 < 0.01
[ERROR_CYCLE] Error added at CPU cycle 6982707699, interval 99, pending count: 1
[DRAM_CYCLE_ERROR] Cycle-based error applied! address=0x602100108 additional_latency=2459910500 cycles
Simulation CPU 0 panic: IPC 0 < 0.01
Simulation CPU 0 warning: IPC 0.04207 < 0.05
Simulation CPU 0 panic: IPC 0.0022435 < 0.01
Simulation CPU 0 panic: IPC 0.0008796 < 0.01
Simulation CPU 0 panic: IPC 0.0073593 < 0.01
Simulation CPU 0 panic: IPC 0.0006206 < 0.01
Simulation CPU 0 panic: IPC 0.0082372 < 0.01
[ERROR_CYCLE] Error added at CPU cycle 7053240100, interval 100, pending count: 1
[DRAM_CYCLE_ERROR] Cycle-based error applied! address=0x3315a7638 additional_latency=2459910500 cycles
Simulation CPU 0 warning: IPC 0.042186 < 0.05
Simulation CPU 0 panic: IPC 0 < 0.01
Simulation CPU 0 panic: IPC 0.0024931 < 0.01
Simulation CPU 0 panic: IPC 0.0003804 < 0.01
Simulation CPU 0 panic: IPC 0.0084791 < 0.01
Simulation CPU 0 panic: IPC 0.0079876 < 0.01
Simulation CPU 0 warning: IPC 0.042098 < 0.05
[ERROR_CYCLE] Error added at CPU cycle 7123772501, interval 101, pending count: 1
[DRAM_CYCLE_ERROR] Cycle-based error applied! address=0x64b600000 additional_latency=2459910500 cycles
Simulation CPU 0 panic: IPC 0 < 0.01
Simulation CPU 0 panic: IPC 0.0025951 < 0.01
Simulation CPU 0 panic: IPC 0.0001188 < 0.01
Simulation CPU 0 panic: IPC 0.0086133 < 0.01
Simulation CPU 0 panic: IPC 0.0002462 < 0.01
Simulation CPU 0 panic: IPC 0.007738 < 0.01
Simulation CPU 0 warning: IPC 0.042186 < 0.05
[ERROR_CYCLE] Error added at CPU cycle 7194304903, interval 102, pending count: 1
[DRAM_CYCLE_ERROR] Cycle-based error applied! address=0x3315b45f8 additional_latency=2459910500 cycles
Simulation CPU 0 panic: IPC 0.0023743 < 0.01
Simulation CPU 0 panic: IPC 0 < 0.01
Simulation CPU 0 panic: IPC 0.0004932 < 0.01
Simulation CPU 0 panic: IPC 0.0089843 < 0.01
Simulation CPU 0 panic: IPC 0.0073636 < 0.01
Simulation CPU 0 warning: IPC 0.042319 < 0.05
Simulation CPU 0 panic: IPC 0.0029923 < 0.01
[ERROR_CYCLE] Error added at CPU cycle 7264837304, interval 103, pending count: 1
[DRAM_CYCLE_ERROR] Cycle-based error applied! address=0x7ead00508 additional_latency=2459910500 cycles
Simulation CPU 0 panic: IPC 0 < 0.01
Simulation CPU 0 panic: IPC 0.0091091 < 0.01
Simulation CPU 0 panic: IPC 0.0069892 < 0.01
Simulation CPU 0 warning: IPC 0.042436 < 0.05
Simulation CPU 0 panic: IPC 0.0017503 < 0.01
Simulation CPU 0 panic: IPC 0.0013764 < 0.01
Simulation CPU 0 panic: IPC 0.0090995 < 0.01
[ERROR_CYCLE] Error added at CPU cycle 7335369704, interval 104, pending count: 1
[DRAM_CYCLE_ERROR] Cycle-based error applied! address=0x3315c36f8 additional_latency=2459910500 cycles
Simulation CPU 0 panic: IPC 0.0003106 < 0.01
Simulation CPU 0 panic: IPC 0 < 0.01
Simulation CPU 0 panic: IPC 0.0064373 < 0.01
Simulation CPU 0 warning: IPC 0.042484 < 0.05
Simulation CPU 0 panic: IPC 0.0014527 < 0.01
Simulation CPU 0 panic: IPC 0.001866 < 0.01
Simulation CPU 0 panic: IPC 0.0092339 < 0.01
[ERROR_CYCLE] Error added at CPU cycle 7405902105, interval 105, pending count: 1
[DRAM_CYCLE_ERROR] Cycle-based error applied! address=0x68c800410 additional_latency=2459910500 cycles
Simulation CPU 0 panic: IPC 0.0003778 < 0.01
Simulation CPU 0 panic: IPC 0.0061122 < 0.01
Simulation CPU 0 warning: IPC 0.042436 < 0.05
Simulation CPU 0 panic: IPC 0.0012511 < 0.01
Simulation CPU 0 panic: IPC 0.0023652 < 0.01
Simulation CPU 0 panic: IPC 0.0091091 < 0.01
Simulation CPU 0 panic: IPC 0.0006274 < 0.01
[ERROR_CYCLE] Error added at CPU cycle 7476434506, interval 106, pending count: 1
Simulation CPU 0 panic: IPC 0.0054965 < 0.01
[DRAM_CYCLE_ERROR] Cycle-based error applied! address=0x3315d06b8 additional_latency=2459910500 cycles
Simulation CPU 0 panic: IPC 0 < 0.01
Simulation CPU 0 warning: IPC 0.042685 < 0.05
Simulation CPU 0 panic: IPC 0.0008095 < 0.01
Simulation CPU 0 panic: IPC 0.0028068 < 0.01
Simulation CPU 0 panic: IPC 0.0093587 < 0.01
Simulation CPU 0 panic: IPC 0.0007522 < 0.01
[ERROR_CYCLE] Error added at CPU cycle 7546966908, interval 107, pending count: 1
Simulation CPU 0 panic: IPC 0.0051138 < 0.01
[DRAM_CYCLE_ERROR] Cycle-based error applied! address=0x6d26002f8 additional_latency=2459910500 cycles
Simulation CPU 0 panic: IPC 0 < 0.01
Simulation CPU 0 panic: IPC 0.0094553 < 0.01
Heartbeat CPU 0 instructions: 70000007 cycles: 7570361278 heartbeat IPC: 0.009485 cumulative IPC: 0.009247 (Simulation time: 13 hr 18 min 42 sec)
Simulation CPU 0 warning: IPC 0.033732 < 0.05
Simulation CPU 0 panic: IPC 0.0033636 < 0.01
Simulation CPU 0 panic: IPC 0.009367 < 0.01
Simulation CPU 0 panic: IPC 0.0007522 < 0.01
[ERROR_CYCLE] Error added at CPU cycle 7617499309, interval 108, pending count: 1
Simulation CPU 0 panic: IPC 0.0047394 < 0.01
[DRAM_CYCLE_ERROR] Cycle-based error applied! address=0x3315dd6c8 additional_latency=2459910500 cycles
Simulation CPU 0 panic: IPC 0 < 0.01
Simulation CPU 0 warning: IPC 0.042753 < 0.05
Simulation CPU 0 panic: IPC 0.0001855 < 0.01
Simulation CPU 0 panic: IPC 0.0038628 < 0.01
Simulation CPU 0 panic: IPC 0.0093587 < 0.01
Simulation CPU 0 panic: IPC 0.0011266 < 0.01
[ERROR_CYCLE] Error added at CPU cycle 7688031709, interval 109, pending count: 1
Simulation CPU 0 panic: IPC 0.0042402 < 0.01
[DRAM_CYCLE_ERROR] Cycle-based error applied! address=0x4f500718 additional_latency=2459910500 cycles
Simulation CPU 0 panic: IPC 0 < 0.01
Simulation CPU 0 warning: IPC 0.042685 < 0.05
Simulation CPU 0 panic: IPC 0.0042403 < 0.01
Simulation CPU 0 panic: IPC 0.0094918 < 0.01
Simulation CPU 0 panic: IPC 0.0048676 < 0.01
Simulation CPU 0 warning: IPC 0.042564 < 0.05
[ERROR_CYCLE] Error added at CPU cycle 7758564110, interval 110, pending count: 1
Simulation CPU 0 panic: IPC 0.0003713 < 0.01
[DRAM_CYCLE_ERROR] Cycle-based error applied! address=0x3315eb690 additional_latency=2459910500 cycles
Simulation CPU 0 panic: IPC 0 < 0.01
Simulation CPU 0 panic: IPC 0.0043651 < 0.01
Simulation CPU 0 panic: IPC 0.0094835 < 0.01
Simulation CPU 0 panic: IPC 0.001501 < 0.01
Simulation CPU 0 panic: IPC 0.0032418 < 0.01
Simulation CPU 0 warning: IPC 0.042314 < 0.05
[ERROR_CYCLE] Error added at CPU cycle 7829096512, interval 111, pending count: 1
Simulation CPU 0 panic: IPC 0.0006209 < 0.01
[DRAM_CYCLE_ERROR] Cycle-based error applied! address=0x5ffa005f8 additional_latency=2459910500 cycles
Simulation CPU 0 panic: IPC 0 < 0.01
Simulation CPU 0 panic: IPC 0.0044899 < 0.01
Simulation CPU 0 panic: IPC 0.0096166 < 0.01
Simulation CPU 0 panic: IPC 0.001501 < 0.01
Simulation CPU 0 panic: IPC 0.0028674 < 0.01
Simulation CPU 0 critical: IPC 0.012536 < 0.02
[ERROR_CYCLE] Error added at CPU cycle 7899628913, interval 112, pending count: 1
Simulation CPU 0 warning: IPC 0.030485 < 0.05
[DRAM_CYCLE_ERROR] Cycle-based error applied! address=0x3315f86a0 additional_latency=2459910500 cycles
Simulation CPU 0 panic: IPC 0 < 0.01
Simulation CPU 0 panic: IPC 0.0046531 < 0.01
Simulation CPU 0 panic: IPC 0.0097331 < 0.01
Simulation CPU 0 panic: IPC 0.0017506 < 0.01
Simulation CPU 0 panic: IPC 0.0023682 < 0.01
Simulation CPU 0 warning: IPC 0.041815 < 0.05
Simulation CPU 0 panic: IPC 0.0011201 < 0.01
[ERROR_CYCLE] Error added at CPU cycle 7970161313, interval 113, pending count: 1
[DRAM_CYCLE_ERROR] Cycle-based error applied! address=0x76b5001c8 additional_latency=2459910500 cycles
Simulation CPU 0 panic: IPC 0 < 0.01
Simulation CPU 0 panic: IPC 0.0048726 < 0.01
Simulation CPU 0 panic: IPC 0.0097331 < 0.01
Simulation CPU 0 panic: IPC 0.0018754 < 0.01
Simulation CPU 0 panic: IPC 0.001869 < 0.01
Simulation CPU 0 warning: IPC 0.04169 < 0.05
Simulation CPU 0 panic: IPC 0.0014945 < 0.01
[ERROR_CYCLE] Error added at CPU cycle 8040693714, interval 114, pending count: 1
[DRAM_CYCLE_ERROR] Cycle-based error applied! address=0x2546056e0 additional_latency=2459910500 cycles
Simulation CPU 0 panic: IPC 0.0049891 < 0.01
Simulation CPU 0 panic: IPC 0.0098579 < 0.01
Simulation CPU 0 panic: IPC 0.002125 < 0.01
Simulation CPU 0 panic: IPC 0.0013698 < 0.01
Simulation CPU 0 warning: IPC 0.04144 < 0.05
Simulation CPU 0 panic: IPC 0.0017441 < 0.01
Simulation CPU 0 panic: IPC 0.0051222 < 0.01
[ERROR_CYCLE] Error added at CPU cycle 8111226115, interval 115, pending count: 1
[DRAM_CYCLE_ERROR] Cycle-based error applied! address=0x7db200578 additional_latency=2459910500 cycles
Simulation CPU 0 panic: IPC 0 < 0.01
Simulation CPU 0 panic: IPC 0.0099059 < 0.01
Simulation CPU 0 panic: IPC 0.0022018 < 0.01
Simulation CPU 0 panic: IPC 0.0009954 < 0.01
Simulation CPU 0 warning: IPC 0.041191 < 0.05
Simulation CPU 0 panic: IPC 0.0020993 < 0.01
Simulation CPU 0 panic: IPC 0.0052579 < 0.01
[ERROR_CYCLE] Error added at CPU cycle 8181758517, interval 116, pending count: 1
[DRAM_CYCLE_ERROR] Cycle-based error applied! address=0x3ae0dae00 additional_latency=2459910500 cycles
Simulation CPU 0 panic: IPC 0.0099827 < 0.01
Simulation CPU 0 panic: IPC 0.0024994 < 0.01
Simulation CPU 0 panic: IPC 0.0050519 < 0.01
Simulation CPU 0 warning: IPC 0.036261 < 0.05
Simulation CPU 0 panic: IPC 0.0023764 < 0.01
Simulation CPU 0 panic: IPC 0.0054883 < 0.01
Simulation CPU 0 critical: IPC 0.010108 < 0.02
[ERROR_CYCLE] Error added at CPU cycle 8252290918, interval 117, pending count: 1
[DRAM_CYCLE_ERROR] Cycle-based error applied! address=0x604b00648 additional_latency=2459910500 cycles
Simulation CPU 0 panic: IPC 0 < 0.01
Simulation CPU 0 panic: IPC 0.0024964 < 0.01
Simulation CPU 0 warning: IPC 0.040692 < 0.05
Simulation CPU 0 panic: IPC 0.0027425 < 0.01
Simulation CPU 0 panic: IPC 0.0057379 < 0.01
Simulation CPU 0 panic: IPC 0.0099827 < 0.01
Simulation CPU 0 panic: IPC 0.0023716 < 0.01
[ERROR_CYCLE] Error added at CPU cycle 8322823318, interval 118, pending count: 1
[DRAM_CYCLE_ERROR] Cycle-based error applied! address=0x254621770 additional_latency=2459910500 cycles
Simulation CPU 0 panic: IPC 0.0005022 < 0.01
Simulation CPU 0 panic: IPC 0 < 0.01
Simulation CPU 0 warning: IPC 0.039823 < 0.05
Simulation CPU 0 panic: IPC 0.0031169 < 0.01
Simulation CPU 0 critical: IPC 0.01597 < 0.02
Simulation CPU 0 panic: IPC 0.0019972 < 0.01
Simulation CPU 0 panic: IPC 0.0008766 < 0.01
[ERROR_CYCLE] Error added at CPU cycle 8393355719, interval 119, pending count: 1
[DRAM_CYCLE_ERROR] Cycle-based error applied! address=0x42dc001d0 additional_latency=2459910500 cycles
Simulation CPU 0 panic: IPC 0 < 0.01
Simulation CPU 0 warning: IPC 0.039316 < 0.05
Simulation CPU 0 panic: IPC 0.0033665 < 0.01
Simulation CPU 0 panic: IPC 0.0059875 < 0.01
Simulation CPU 0 critical: IPC 0.010232 < 0.02
Simulation CPU 0 panic: IPC 0.0017476 < 0.01
Simulation CPU 0 panic: IPC 0.0013758 < 0.01
[ERROR_CYCLE] Error added at CPU cycle 8463888120, interval 120, pending count: 1
[DRAM_CYCLE_ERROR] Cycle-based error applied! address=0x25462e698 additional_latency=2459910500 cycles
Simulation CPU 0 warning: IPC 0.038451 < 0.05
Simulation CPU 0 panic: IPC 0 < 0.01
Simulation CPU 0 panic: IPC 0.0036161 < 0.01
Simulation CPU 0 panic: IPC 0.0061315 < 0.01
Simulation CPU 0 critical: IPC 0.010338 < 0.02
Simulation CPU 0 panic: IPC 0.0013732 < 0.01
Simulation CPU 0 warning: IPC 0.039818 < 0.05
[ERROR_CYCLE] Error added at CPU cycle 8534420522, interval 121, pending count: 1
[DRAM_CYCLE_ERROR] Cycle-based error applied! address=0x114b003f8 additional_latency=2459910500 cycles
Simulation CPU 0 panic: IPC 0 < 0.01
Simulation CPU 0 panic: IPC 0.0038657 < 0.01
Simulation CPU 0 panic: IPC 0.0063619 < 0.01
Simulation CPU 0 critical: IPC 0.010357 < 0.02
Simulation CPU 0 panic: IPC 0.0011236 < 0.01
Simulation CPU 0 panic: IPC 0.0023742 < 0.01
Heartbeat CPU 0 instructions: 80000010 cycles: 8595633315 heartbeat IPC: 0.009754 cumulative IPC: 0.009307 (Simulation time: 15 hr 01 min 55 sec)
Simulation CPU 0 warning: IPC 0.037078 < 0.05
[ERROR_CYCLE] Error added at CPU cycle 8604952923, interval 122, pending count: 1
[DRAM_CYCLE_ERROR] Cycle-based error applied! address=0x25463b6f8 additional_latency=2459910500 cycles
Simulation CPU 0 panic: IPC 0.0042401 < 0.01
Simulation CPU 0 panic: IPC 0 < 0.01
Simulation CPU 0 panic: IPC 0.0064867 < 0.01
Simulation CPU 0 critical: IPC 0.010357 < 0.02
Simulation CPU 0 panic: IPC 0.000874 < 0.01
Simulation CPU 0 panic: IPC 0.0027486 < 0.01
Simulation CPU 0 warning: IPC 0.03657 < 0.05
[ERROR_CYCLE] Error added at CPU cycle 8675485323, interval 123, pending count: 1
Simulation CPU 0 panic: IPC 0.0044897 < 0.01
[DRAM_CYCLE_ERROR] Cycle-based error applied! address=0x32a2007d8 additional_latency=2459910500 cycles
Simulation CPU 0 panic: IPC 0.0066115 < 0.01
Simulation CPU 0 critical: IPC 0.010482 < 0.02
Simulation CPU 0 panic: IPC 0.0006244 < 0.01
Simulation CPU 0 panic: IPC 0.0032478 < 0.01
Simulation CPU 0 warning: IPC 0.035705 < 0.05
Simulation CPU 0 panic: IPC 0.0047393 < 0.01
[ERROR_CYCLE] Error added at CPU cycle 8746017724, interval 124, pending count: 1
[DRAM_CYCLE_ERROR] Cycle-based error applied! address=0x60397f3c0 additional_latency=2459910500 cycles
Simulation CPU 0 panic: IPC 0.0068611 < 0.01
Simulation CPU 0 critical: IPC 0.010607 < 0.02
Simulation CPU 0 panic: IPC 0.0001252 < 0.01
Simulation CPU 0 panic: IPC 0.003747 < 0.01
Simulation CPU 0 warning: IPC 0.035197 < 0.05
Simulation CPU 0 panic: IPC 0.0049889 < 0.01
Simulation CPU 0 panic: IPC 0.0071107 < 0.01
[ERROR_CYCLE] Error added at CPU cycle 8816550126, interval 125, pending count: 1
Simulation CPU 0 critical: IPC 0.010482 < 0.02
[DRAM_CYCLE_ERROR] Cycle-based error applied! address=0x727200220 additional_latency=2459910500 cycles
Simulation CPU 0 panic: IPC 0 < 0.01
Simulation CPU 0 critical: IPC 0.017242 < 0.02
Simulation CPU 0 warning: IPC 0.021858 < 0.05
Simulation CPU 0 panic: IPC 0.0048429 < 0.01
Simulation CPU 0 panic: IPC 0.0071107 < 0.01
Simulation CPU 0 critical: IPC 0.010358 < 0.02
[ERROR_CYCLE] Error added at CPU cycle 8887082527, interval 126, pending count: 1
Simulation CPU 0 panic: IPC 0.000374 < 0.01
[DRAM_CYCLE_ERROR] Cycle-based error applied! address=0x254657798 additional_latency=2459910500 cycles
Simulation CPU 0 panic: IPC 0 < 0.01
Simulation CPU 0 panic: IPC 0.0042466 < 0.01
Simulation CPU 0 warning: IPC 0.0337 < 0.05
Simulation CPU 0 panic: IPC 0.0057377 < 0.01
Simulation CPU 0 panic: IPC 0.0073603 < 0.01
Simulation CPU 0 critical: IPC 0.010108 < 0.02
[ERROR_CYCLE] Error added at CPU cycle 8957614927, interval 127, pending count: 1
Simulation CPU 0 panic: IPC 0.0004988 < 0.01
[DRAM_CYCLE_ERROR] Cycle-based error applied! address=0x260300048 additional_latency=2459910500 cycles
Simulation CPU 0 panic: IPC 0 < 0.01
Simulation CPU 0 panic: IPC 0.004621 < 0.01
Simulation CPU 0 warning: IPC 0.032835 < 0.05
Simulation CPU 0 critical: IPC 0.013472 < 0.02
Simulation CPU 0 panic: IPC 0.0098583 < 0.01
Simulation CPU 0 panic: IPC 0.000998 < 0.01
[ERROR_CYCLE] Error added at CPU cycle 9028147328, interval 128, pending count: 1
Simulation CPU 0 panic: IPC 0.004621 < 0.01
[DRAM_CYCLE_ERROR] Cycle-based error applied! address=0x2546647c8 additional_latency=2459910500 cycles
Simulation CPU 0 panic: IPC 0 < 0.01
Simulation CPU 0 warning: IPC 0.032327 < 0.05
Simulation CPU 0 panic: IPC 0.0062369 < 0.01
Simulation CPU 0 panic: IPC 0.0077347 < 0.01
Simulation CPU 0 panic: IPC 0.0096087 < 0.01
Simulation CPU 0 panic: IPC 0.0012476 < 0.01
[ERROR_CYCLE] Error added at CPU cycle 9098679729, interval 129, pending count: 1
Simulation CPU 0 panic: IPC 0.0048706 < 0.01
[DRAM_CYCLE_ERROR] Cycle-based error applied! address=0x3ce900750 additional_latency=2459910500 cycles
Simulation CPU 0 panic: IPC 0 < 0.01
Simulation CPU 0 warning: IPC 0.031462 < 0.05
Simulation CPU 0 panic: IPC 0.0066113 < 0.01
Simulation CPU 0 panic: IPC 0.0078595 < 0.01
Simulation CPU 0 panic: IPC 0.0093591 < 0.01
Simulation CPU 0 panic: IPC 0.0064926 < 0.01
[ERROR_CYCLE] Error added at CPU cycle 9169212131, interval 130, pending count: 1
Simulation CPU 0 warning: IPC 0.030211 < 0.05
[DRAM_CYCLE_ERROR] Cycle-based error applied! address=0x254671918 additional_latency=2459910500 cycles
Simulation CPU 0 panic: IPC 0 < 0.01
Simulation CPU 0 panic: IPC 0.0007438 < 0.01
Simulation CPU 0 panic: IPC 0.0068609 < 0.01
Simulation CPU 0 panic: IPC 0.0079843 < 0.01
Simulation CPU 0 panic: IPC 0.0092343 < 0.01
Simulation CPU 0 panic: IPC 0.0017468 < 0.01
[ERROR_CYCLE] Error added at CPU cycle 9239744532, interval 131, pending count: 1
Simulation CPU 0 panic: IPC 0.005245 < 0.01
[DRAM_CYCLE_ERROR] Cycle-based error applied! address=0x4d6a00790 additional_latency=2459910500 cycles
Simulation CPU 0 panic: IPC 0 < 0.01
Simulation CPU 0 warning: IPC 0.030089 < 0.05
Simulation CPU 0 panic: IPC 0.0071105 < 0.01
Simulation CPU 0 panic: IPC 0.0082339 < 0.01
Simulation CPU 0 panic: IPC 0.0088599 < 0.01
Simulation CPU 0 panic: IPC 0.0021788 < 0.01
Simulation CPU 0 critical: IPC 0.012298 < 0.02
[ERROR_CYCLE] Error added at CPU cycle 9310276932, interval 132, pending count: 1
[DRAM_CYCLE_ERROR] Cycle-based error applied! address=0x25467e700 additional_latency=2459910500 cycles
Simulation CPU 0 warning: IPC 0.022596 < 0.05
Simulation CPU 0 panic: IPC 0.0073601 < 0.01
Simulation CPU 0 panic: IPC 0.0083587 < 0.01
Simulation CPU 0 panic: IPC 0.0087351 < 0.01
Simulation CPU 0 panic: IPC 0.0023708 < 0.01
Simulation CPU 0 panic: IPC 0.0056194 < 0.01
Simulation CPU 0 warning: IPC 0.028716 < 0.05
[ERROR_CYCLE] Error added at CPU cycle 9380809333, interval 133, pending count: 1
[DRAM_CYCLE_ERROR] Cycle-based error applied! address=0x41a5005c8 additional_latency=2459910500 cycles
Simulation CPU 0 panic: IPC 0 < 0.01
Simulation CPU 0 panic: IPC 0.0077345 < 0.01
Simulation CPU 0 panic: IPC 0.0084835 < 0.01
Simulation CPU 0 panic: IPC 0.0084855 < 0.01
Simulation CPU 0 panic: IPC 0.0027452 < 0.01
Simulation CPU 0 panic: IPC 0.0056194 < 0.01
Simulation CPU 0 warning: IPC 0.028209 < 0.05
[ERROR_CYCLE] Error added at CPU cycle 9451341734, interval 134, pending count: 1
[DRAM_CYCLE_ERROR] Cycle-based error applied! address=0x1da781ac0 additional_latency=2459910500 cycles
Simulation CPU 0 panic: IPC 0.0031737 < 0.01
Simulation CPU 0 panic: IPC 0.0048104 < 0.01
Simulation CPU 0 critical: IPC 0.016969 < 0.02
Simulation CPU 0 panic: IPC 0.00287 < 0.01
Simulation CPU 0 panic: IPC 0.0059266 < 0.01
Simulation CPU 0 warning: IPC 0.025412 < 0.05
Simulation CPU 0 panic: IPC 0.0019984 < 0.01
[ERROR_CYCLE] Error added at CPU cycle 9521874136, interval 135, pending count: 1
[DRAM_CYCLE_ERROR] Cycle-based error applied! address=0x237600758 additional_latency=2459910500 cycles
Simulation CPU 0 panic: IPC 0 < 0.01
Simulation CPU 0 panic: IPC 0.0082337 < 0.01
Simulation CPU 0 panic: IPC 0.0088579 < 0.01
Simulation CPU 0 panic: IPC 0.0079863 < 0.01
Simulation CPU 0 panic: IPC 0.0033692 < 0.01
Simulation CPU 0 panic: IPC 0.0059938 < 0.01
Simulation CPU 0 warning: IPC 0.026778 < 0.05
[ERROR_CYCLE] Error added at CPU cycle 9592406536, interval 136, pending count: 1
[DRAM_CYCLE_ERROR] Cycle-based error applied! address=0x51c4ce8c0 additional_latency=2459910500 cycles
Simulation CPU 0 panic: IPC 0.0085409 < 0.01
Simulation CPU 0 panic: IPC 0.0091075 < 0.01
Simulation CPU 0 panic: IPC 0.0077367 < 0.01
Simulation CPU 0 panic: IPC 0.0097374 < 0.01
Simulation CPU 0 warning: IPC 0.025971 < 0.05
Simulation CPU 0 panic: IPC 0.0089825 < 0.01
Simulation CPU 0 panic: IPC 0.0091363 < 0.01
[ERROR_CYCLE] Error added at CPU cycle 9662938937, interval 137, pending count: 1
[DRAM_CYCLE_ERROR] Cycle-based error applied! address=0x439a00000 additional_latency=2459910500 cycles
Simulation CPU 0 panic: IPC 0 < 0.01
Heartbeat CPU 0 instructions: 90000010 cycles: 9676937302 heartbeat IPC: 0.009248 cumulative IPC: 0.0093 (Simulation time: 16 hr 54 min 35 sec)
Simulation CPU 0 panic: IPC 0.0075831 < 0.01
Simulation CPU 0 panic: IPC 0.0038684 < 0.01
Simulation CPU 0 panic: IPC 0.0063682 < 0.01
Simulation CPU 0 warning: IPC 0.025338 < 0.05
Simulation CPU 0 panic: IPC 0.0092321 < 0.01
Simulation CPU 0 panic: IPC 0.0093571 < 0.01
[ERROR_CYCLE] Error added at CPU cycle 9733471338, interval 138, pending count: 1
[DRAM_CYCLE_ERROR] Cycle-based error applied! address=0x2546a67d0 additional_latency=2459910500 cycles
Simulation CPU 0 panic: IPC 0.0073623 < 0.01
Simulation CPU 0 panic: IPC 0 < 0.01
Simulation CPU 0 panic: IPC 0.004118 < 0.01
Simulation CPU 0 panic: IPC 0.006493 < 0.01
Simulation CPU 0 warning: IPC 0.024598 < 0.05
Simulation CPU 0 critical: IPC 0.019088 < 0.02
Simulation CPU 0 panic: IPC 0.0069879 < 0.01
[ERROR_CYCLE] Error added at CPU cycle 9804003740, interval 139, pending count: 1
[DRAM_CYCLE_ERROR] Cycle-based error applied! address=0x76c400058 additional_latency=2459910500 cycles
Simulation CPU 0 panic: IPC 0 < 0.01
Simulation CPU 0 panic: IPC 0.0044924 < 0.01
Simulation CPU 0 panic: IPC 0.0067426 < 0.01
Simulation CPU 0 warning: IPC 0.023966 < 0.05
Simulation CPU 0 panic: IPC 0.0097313 < 0.01
Simulation CPU 0 panic: IPC 0.0097315 < 0.01
Simulation CPU 0 panic: IPC 0.0068631 < 0.01
[ERROR_CYCLE] Error added at CPU cycle 9874536141, interval 140, pending count: 1
[DRAM_CYCLE_ERROR] Cycle-based error applied! address=0x2546b3810 additional_latency=2459910500 cycles
Simulation CPU 0 panic: IPC 0.004742 < 0.01
Simulation CPU 0 panic: IPC 0 < 0.01
Simulation CPU 0 panic: IPC 0.0067509 < 0.01
Simulation CPU 0 warning: IPC 0.023342 < 0.05
Simulation CPU 0 critical: IPC 0.010106 < 0.02
Simulation CPU 0 panic: IPC 0.0098563 < 0.01
Simulation CPU 0 panic: IPC 0.0066135 < 0.01
[ERROR_CYCLE] Error added at CPU cycle 9945068541, interval 141, pending count: 1
[DRAM_CYCLE_ERROR] Cycle-based error applied! address=0x1e9e00728 additional_latency=2459910500 cycles
Simulation CPU 0 panic: IPC 0.0051164 < 0.01
Simulation CPU 0 panic: IPC 0.0069922 < 0.01
Simulation CPU 0 warning: IPC 0.022593 < 0.05
Simulation CPU 0 critical: IPC 0.010355 < 0.02
Simulation CPU 0 critical: IPC 0.010106 < 0.02
Simulation CPU 0 panic: IPC 0.0063639 < 0.01
Simulation CPU 0 panic: IPC 0.0052412 < 0.01
[ERROR_CYCLE] Error added at CPU cycle 10015600942, interval 142, pending count: 1
[DRAM_CYCLE_ERROR] Cycle-based error applied! address=0x2546c0840 additional_latency=2459910500 cycles
Simulation CPU 0 panic: IPC 0.0071253 < 0.01
Simulation CPU 0 panic: IPC 0 < 0.01
Simulation CPU 0 warning: IPC 0.021969 < 0.05
Simulation CPU 0 critical: IPC 0.010605 < 0.02
Simulation CPU 0 critical: IPC 0.010231 < 0.02
Simulation CPU 0 panic: IPC 0.0061143 < 0.01
Simulation CPU 0 panic: IPC 0.0057404 < 0.01
[ERROR_CYCLE] Error added at CPU cycle 10086133343, interval 143, pending count: 1
Simulation CPU 0 panic: IPC 0.0073666 < 0.01
[DRAM_CYCLE_ERROR] Cycle-based error applied! address=0xb9700510 additional_latency=2459910500 cycles
Simulation CPU 0 panic: IPC 0 < 0.01
Simulation CPU 0 warning: IPC 0.032074 < 0.05
Simulation CPU 0 critical: IPC 0.01048 < 0.02
Simulation CPU 0 panic: IPC 0.0058647 < 0.01
Simulation CPU 0 panic: IPC 0.0058735 < 0.01
Simulation CPU 0 panic: IPC 0.0074914 < 0.01
[ERROR_CYCLE] Error added at CPU cycle 10156665745, interval 144, pending count: 1
Simulation CPU 0 warning: IPC 0.020596 < 0.05
[DRAM_CYCLE_ERROR] Cycle-based error applied! address=0x2546cd768 additional_latency=2459910500 cycles
Simulation CPU 0 panic: IPC 0 < 0.01
Simulation CPU 0 critical: IPC 0.011229 < 0.02
Simulation CPU 0 critical: IPC 0.01048 < 0.02
Simulation CPU 0 panic: IPC 0.0057399 < 0.01
Simulation CPU 0 panic: IPC 0.0062396 < 0.01
Simulation CPU 0 panic: IPC 0.0010845 < 0.01
[ERROR_CYCLE] Error added at CPU cycle 10227198146, interval 145, pending count: 1
Simulation CPU 0 panic: IPC 0.0066565 < 0.01
[DRAM_CYCLE_ERROR] Cycle-based error applied! address=0x755d00550 additional_latency=2459910500 cycles
Simulation CPU 0 panic: IPC 0 < 0.01
Simulation CPU 0 critical: IPC 0.019847 < 0.02
Simulation CPU 0 critical: IPC 0.011479 < 0.02
Simulation CPU 0 critical: IPC 0.01622 < 0.02
Simulation CPU 0 panic: IPC 0.0064975 < 0.01
Simulation CPU 0 panic: IPC 0.007741 < 0.01
[ERROR_CYCLE] Error added at CPU cycle 10297730546, interval 146, pending count: 1
Simulation CPU 0 critical: IPC 0.019098 < 0.02
[DRAM_CYCLE_ERROR] Cycle-based error applied! address=0x2546da778 additional_latency=2459910500 cycles
Simulation CPU 0 panic: IPC 0 < 0.01
Simulation CPU 0 critical: IPC 0.011853 < 0.02
Simulation CPU 0 critical: IPC 0.010979 < 0.02
Simulation CPU 0 panic: IPC 0.0051159 < 0.01
Simulation CPU 0 panic: IPC 0.0068636 < 0.01
Simulation CPU 0 panic: IPC 0.0081154 < 0.01
[ERROR_CYCLE] Error added at CPU cycle 10368262947, interval 147, pending count: 1
Simulation CPU 0 critical: IPC 0.01835 < 0.02
[DRAM_CYCLE_ERROR] Cycle-based error applied! address=0x2c4e000d0 additional_latency=2459910500 cycles
Simulation CPU 0 panic: IPC 0 < 0.01
Simulation CPU 0 critical: IPC 0.012103 < 0.02
Simulation CPU 0 critical: IPC 0.011104 < 0.02
Simulation CPU 0 panic: IPC 0.0048746 < 0.01
Simulation CPU 0 panic: IPC 0.007238 < 0.01
Simulation CPU 0 warning: IPC 0.025841 < 0.05
[ERROR_CYCLE] Error added at CPU cycle 10438795349, interval 148, pending count: 1
[DRAM_CYCLE_ERROR] Cycle-based error applied! address=0x2ffd5bc0 additional_latency=2459910500 cycles
Simulation CPU 0 panic: IPC 0.0022529 < 0.01
Simulation CPU 0 critical: IPC 0.010224 < 0.02
Simulation CPU 0 critical: IPC 0.011229 < 0.02
Simulation CPU 0 panic: IPC 0.0047415 < 0.01
Simulation CPU 0 panic: IPC 0.00743 < 0.01
Simulation CPU 0 panic: IPC 0.0084226 < 0.01
Simulation CPU 0 critical: IPC 0.016977 < 0.02
[ERROR_CYCLE] Error added at CPU cycle 10509327750, interval 149, pending count: 1
[DRAM_CYCLE_ERROR] Cycle-based error applied! address=0x2546ed7e0 additional_latency=2459910500 cycles
Simulation CPU 0 critical: IPC 0.012726 < 0.02
Simulation CPU 0 panic: IPC 0 < 0.01
Simulation CPU 0 critical: IPC 0.011354 < 0.02
Simulation CPU 0 panic: IPC 0.0045002 < 0.01
Simulation CPU 0 panic: IPC 0.0049367 < 0.01
Simulation CPU 0 panic: IPC 0.0028005 < 0.01
Simulation CPU 0 panic: IPC 0.0084898 < 0.01
[ERROR_CYCLE] Error added at CPU cycle 10579860150, interval 150, pending count: 1
[DRAM_CYCLE_ERROR] Cycle-based error applied! address=0x3c4a04470 additional_latency=2459910500 cycles
Simulation CPU 0 warning: IPC 0.029329 < 0.05
Simulation CPU 0 critical: IPC 0.011603 < 0.02
Simulation CPU 0 panic: IPC 0.0042423 < 0.01
Simulation CPU 0 panic: IPC 0.0081116 < 0.01
Simulation CPU 0 panic: IPC 0.0087394 < 0.01
Simulation CPU 0 critical: IPC 0.015604 < 0.02
Simulation CPU 0 critical: IPC 0.013226 < 0.02
Simulation CPU 0 critical: IPC 0.011737 < 0.02
[ERROR_CYCLE] Error added at CPU cycle 10650392551, interval 151, pending count: 1
[DRAM_CYCLE_ERROR] Cycle-based error applied! address=0x25e5006c8 additional_latency=2459910500 cycles
Simulation CPU 0 panic: IPC 0 < 0.01
Simulation CPU 0 panic: IPC 0.0039927 < 0.01
Simulation CPU 0 panic: IPC 0.0083612 < 0.01
Simulation CPU 0 panic: IPC 0.0088642 < 0.01
Simulation CPU 0 critical: IPC 0.01498 < 0.02
Simulation CPU 0 critical: IPC 0.0136 < 0.02
Simulation CPU 0 critical: IPC 0.011853 < 0.02
[ERROR_CYCLE] Error added at CPU cycle 10720924952, interval 152, pending count: 1
[DRAM_CYCLE_ERROR] Cycle-based error applied! address=0x4e8b02848 additional_latency=2459910500 cycles
Simulation CPU 0 panic: IPC 0.0038679 < 0.01
Simulation CPU 0 panic: IPC 0.0086108 < 0.01
Heartbeat CPU 0 instructions: 100000012 cycles: 10748999051 heartbeat IPC: 0.009328 cumulative IPC: 0.009303 (Simulation time: 18 hr 52 min 25 sec)
Simulation CPU 0 panic: IPC 0.0091138 < 0.01
Simulation CPU 0 critical: IPC 0.014231 < 0.02
Simulation CPU 0 critical: IPC 0.01385 < 0.02
Simulation CPU 0 critical: IPC 0.011986 < 0.02
Simulation CPU 0 panic: IPC 0.0036183 < 0.01
[ERROR_CYCLE] Error added at CPU cycle 10791457354, interval 153, pending count: 1
[DRAM_CYCLE_ERROR] Cycle-based error applied! address=0x730500658 additional_latency=2459910500 cycles
Simulation CPU 0 panic: IPC 0 < 0.01
Simulation CPU 0 panic: IPC 0.0089852 < 0.01
Simulation CPU 0 panic: IPC 0.0091138 < 0.01
Simulation CPU 0 critical: IPC 0.013607 < 0.02
Simulation CPU 0 critical: IPC 0.014099 < 0.02
Simulation CPU 0 critical: IPC 0.012266 < 0.02
Simulation CPU 0 panic: IPC 0.0033303 < 0.01
[ERROR_CYCLE] Error added at CPU cycle 10861989755, interval 154, pending count: 1
[DRAM_CYCLE_ERROR] Cycle-based error applied! address=0x4e8b0f858 additional_latency=2459910500 cycles
Simulation CPU 0 panic: IPC 0.0025493 < 0.01
Simulation CPU 0 panic: IPC 0 < 0.01
Simulation CPU 0 panic: IPC 0.0066855 < 0.01
Simulation CPU 0 warning: IPC 0.022346 < 0.05
Simulation CPU 0 critical: IPC 0.014349 < 0.02
Simulation CPU 0 critical: IPC 0.012361 < 0.02
Simulation CPU 0 panic: IPC 0.0031191 < 0.01
[ERROR_CYCLE] Error added at CPU cycle 10932522155, interval 155, pending count: 1
[DRAM_CYCLE_ERROR] Cycle-based error applied! address=0x756900228 additional_latency=2459910500 cycles
Simulation CPU 0 panic: IPC 0 < 0.01
Simulation CPU 0 panic: IPC 0.0096092 < 0.01
Simulation CPU 0 panic: IPC 0.0094882 < 0.01
Simulation CPU 0 critical: IPC 0.012234 < 0.02
Simulation CPU 0 critical: IPC 0.014723 < 0.02
Simulation CPU 0 critical: IPC 0.012602 < 0.02
Simulation CPU 0 panic: IPC 0.0028695 < 0.01
[ERROR_CYCLE] Error added at CPU cycle 11003054556, interval 156, pending count: 1
[DRAM_CYCLE_ERROR] Cycle-based error applied! address=0x4e8b1c898 additional_latency=2459910500 cycles
Simulation CPU 0 panic: IPC 0.009734 < 0.01
Simulation CPU 0 panic: IPC 0 < 0.01
Simulation CPU 0 panic: IPC 0.0098626 < 0.01
[...]
[DRAM_CYCLE_ERROR] Cycle-based error applied! address=0x75848be58 additional_latency=2459910500 cycles
Simulation CPU 0 panic: IPC 0.00287 < 0.01
Simulation CPU 0 panic: IPC 0 < 0.01
Simulation CPU 0 warning: IPC 0.037192 < 0.05
Simulation CPU 0 panic: IPC 0.0037461 < 0.01
Simulation CPU 0 panic: IPC 0.0058695 < 0.01
Simulation CPU 0 panic: IPC 0.0082337 < 0.01
Simulation CPU 0 panic: IPC 0.006639 < 0.01
[ERROR_CYCLE] Error added at CPU cycle 23346224731, interval 331, pending count: 1
[DRAM_CYCLE_ERROR] Cycle-based error applied! address=0xc3500000 additional_latency=2459910500 cycles
Simulation CPU 0 panic: IPC 0 < 0.01
Simulation CPU 0 warning: IPC 0.037163 < 0.05
Simulation CPU 0 panic: IPC 0.0039957 < 0.01
Simulation CPU 0 panic: IPC 0.0052455 < 0.01
Simulation CPU 0 panic: IPC 0.0083668 < 0.01
Simulation CPU 0 panic: IPC 0.0036154 < 0.01
Simulation CPU 0 panic: IPC 0.0033692 < 0.01
[ERROR_CYCLE] Error added at CPU cycle 23416757132, interval 332, pending count: 1
[DRAM_CYCLE_ERROR] Cycle-based error applied! address=0x758498e20 additional_latency=2459910500 cycles
Simulation CPU 0 warning: IPC 0.037067 < 0.05
Simulation CPU 0 panic: IPC 0 < 0.01
Simulation CPU 0 panic: IPC 0.0042453 < 0.01
Simulation CPU 0 panic: IPC 0.0044967 < 0.01
Simulation CPU 0 panic: IPC 0.0087329 < 0.01
Simulation CPU 0 panic: IPC 0.0034906 < 0.01
Simulation CPU 0 panic: IPC 0.0037436 < 0.01
[ERROR_CYCLE] Error added at CPU cycle 23487289534, interval 333, pending count: 1
Simulation CPU 0 warning: IPC 0.037067 < 0.05
[DRAM_CYCLE_ERROR] Cycle-based error applied! address=0x2339006e8 additional_latency=2459910500 cycles
Simulation CPU 0 panic: IPC 0 < 0.01
Simulation CPU 0 panic: IPC 0.0081263 < 0.01
Simulation CPU 0 panic: IPC 0.0091073 < 0.01
Simulation CPU 0 panic: IPC 0.0033658 < 0.01
Simulation CPU 0 panic: IPC 0.0039932 < 0.01
Simulation CPU 0 warning: IPC 0.036942 < 0.05
[ERROR_CYCLE] Error added at CPU cycle 23557821935, interval 334, pending count: 1
Simulation CPU 0 panic: IPC 0.0047445 < 0.01
[DRAM_CYCLE_ERROR] Cycle-based error applied! address=0x7584a5e98 additional_latency=2459910500 cycles
Simulation CPU 0 panic: IPC 0 < 0.01
Simulation CPU 0 panic: IPC 0.0031239 < 0.01
Simulation CPU 0 panic: IPC 0.0093569 < 0.01
Simulation CPU 0 panic: IPC 0.0033658 < 0.01
Simulation CPU 0 panic: IPC 0.0042428 < 0.01
Simulation CPU 0 warning: IPC 0.036942 < 0.05
[ERROR_CYCLE] Error added at CPU cycle 23628354335, interval 335, pending count: 1
Simulation CPU 0 panic: IPC 0.0047528 < 0.01
[DRAM_CYCLE_ERROR] Cycle-based error applied! address=0x6e100190 additional_latency=2459910500 cycles
Simulation CPU 0 panic: IPC 0 < 0.01
Simulation CPU 0 panic: IPC 0.0024999 < 0.01
Simulation CPU 0 panic: IPC 0.0096065 < 0.01
Simulation CPU 0 panic: IPC 0.007983 < 0.01
Heartbeat CPU 0 instructions: 220000031 cycles: 23678839326 heartbeat IPC: 0.009403 cumulative IPC: 0.009291 (Simulation time: 18 hr 32 min 56 sec)
Simulation CPU 0 warning: IPC 0.036693 < 0.05
Simulation CPU 0 panic: IPC 0.0052437 < 0.01
[ERROR_CYCLE] Error added at CPU cycle 23698886736, interval 336, pending count: 1
Simulation CPU 0 panic: IPC 0.0016263 < 0.01
[DRAM_CYCLE_ERROR] Cycle-based error applied! address=0x7584b2dd0 additional_latency=2459910500 cycles
Simulation CPU 0 panic: IPC 0 < 0.01
Simulation CPU 0 panic: IPC 0.0099809 < 0.01
Simulation CPU 0 panic: IPC 0.003241 < 0.01
Simulation CPU 0 panic: IPC 0.0048668 < 0.01
Simulation CPU 0 warning: IPC 0.036817 < 0.05
Simulation CPU 0 panic: IPC 0.005252 < 0.01
[ERROR_CYCLE] Error added at CPU cycle 23769419137, interval 337, pending count: 1
Simulation CPU 0 panic: IPC 0.0010023 < 0.01
[DRAM_CYCLE_ERROR] Cycle-based error applied! address=0x10cf000e0 additional_latency=2459910500 cycles
Simulation CPU 0 panic: IPC 0 < 0.01
Simulation CPU 0 critical: IPC 0.010264 < 0.02
Simulation CPU 0 panic: IPC 9.09e-05 < 0.01
Simulation CPU 0 panic: IPC 0.0031162 < 0.01
Simulation CPU 0 warning: IPC 0.036733 < 0.05
Simulation CPU 0 critical: IPC 0.010819 < 0.02
[ERROR_CYCLE] Error added at CPU cycle 23839951539, interval 338, pending count: 1
Simulation CPU 0 panic: IPC 0.0002535 < 0.01
[DRAM_CYCLE_ERROR] Cycle-based error applied! address=0x7584bfde0 additional_latency=2459910500 cycles
Simulation CPU 0 panic: IPC 0 < 0.01
Simulation CPU 0 critical: IPC 0.010605 < 0.02
Simulation CPU 0 panic: IPC 0.0031162 < 0.01
Simulation CPU 0 panic: IPC 0.005366 < 0.01
Simulation CPU 0 warning: IPC 0.036576 < 0.05
Simulation CPU 0 panic: IPC 0.0054972 < 0.01
Simulation CPU 0 panic: IPC 0.0003705 < 0.01
[ERROR_CYCLE] Error added at CPU cycle 23910483940, interval 339, pending count: 1
[DRAM_CYCLE_ERROR] Cycle-based error applied! address=0x596800210 additional_latency=2459910500 cycles
Simulation CPU 0 panic: IPC 0 < 0.01
Simulation CPU 0 critical: IPC 0.010484 < 0.02
Simulation CPU 0 panic: IPC 0.0031162 < 0.01
Simulation CPU 0 panic: IPC 0.0057404 < 0.01
Simulation CPU 0 warning: IPC 0.036568 < 0.05
Simulation CPU 0 panic: IPC 0.004998 < 0.01
Simulation CPU 0 critical: IPC 0.011104 < 0.02
[ERROR_CYCLE] Error added at CPU cycle 23981016340, interval 340, pending count: 1
[DRAM_CYCLE_ERROR] Cycle-based error applied! address=0x7584cce38 additional_latency=2459910500 cycles
Simulation CPU 0 panic: IPC 0 < 0.01
Simulation CPU 0 panic: IPC 0.0029914 < 0.01
Simulation CPU 0 panic: IPC 0.0061148 < 0.01
Simulation CPU 0 warning: IPC 0.036451 < 0.05
Simulation CPU 0 panic: IPC 0.0044988 < 0.01
Simulation CPU 0 panic: IPC 0.0017433 < 0.01
Simulation CPU 0 panic: IPC 0.0097352 < 0.01
[ERROR_CYCLE] Error added at CPU cycle 24051548741, interval 341, pending count: 1
[DRAM_CYCLE_ERROR] Cycle-based error applied! address=0x63a800438 additional_latency=2459910500 cycles
Simulation CPU 0 panic: IPC 0 < 0.01
Simulation CPU 0 panic: IPC 0.0028666 < 0.01
Simulation CPU 0 panic: IPC 0.0063644 < 0.01
Simulation CPU 0 warning: IPC 0.036443 < 0.05
Simulation CPU 0 panic: IPC 0.0041244 < 0.01
Simulation CPU 0 panic: IPC 0.0024921 < 0.01
Simulation CPU 0 panic: IPC 0.0063833 < 0.01
[ERROR_CYCLE] Error added at CPU cycle 24122081142, interval 342, pending count: 1
[DRAM_CYCLE_ERROR] Cycle-based error applied! address=0x7584d9e48 additional_latency=2459910500 cycles
Simulation CPU 0 panic: IPC 0.0028527 < 0.01
Simulation CPU 0 panic: IPC 0.0028666 < 0.01
Simulation CPU 0 panic: IPC 0.006614 < 0.01
Simulation CPU 0 warning: IPC 0.036326 < 0.05
Simulation CPU 0 panic: IPC 0.0036252 < 0.01
Simulation CPU 0 panic: IPC 0.0031161 < 0.01
Simulation CPU 0 panic: IPC 0.0088616 < 0.01
[ERROR_CYCLE] Error added at CPU cycle 24192613544, interval 343, pending count: 1
[DRAM_CYCLE_ERROR] Cycle-based error applied! address=0x28cf00008 additional_latency=2459910500 cycles
Simulation CPU 0 panic: IPC 0 < 0.01
Simulation CPU 0 panic: IPC 0.0028666 < 0.01
Simulation CPU 0 panic: IPC 0.0068636 < 0.01
Simulation CPU 0 warning: IPC 0.036318 < 0.05
Simulation CPU 0 panic: IPC 0.0032508 < 0.01
Simulation CPU 0 panic: IPC 0.0038649 < 0.01
Simulation CPU 0 panic: IPC 0.0083624 < 0.01
[ERROR_CYCLE] Error added at CPU cycle 24263145944, interval 344, pending count: 1
[DRAM_CYCLE_ERROR] Cycle-based error applied! address=0x7584e6ea8 additional_latency=2459910500 cycles
Simulation CPU 0 panic: IPC 0.0027418 < 0.01
Simulation CPU 0 panic: IPC 0 < 0.01
Simulation CPU 0 panic: IPC 0.007238 < 0.01
Simulation CPU 0 warning: IPC 0.038953 < 0.05
Simulation CPU 0 panic: IPC 0.0044889 < 0.01
Simulation CPU 0 panic: IPC 0.0081128 < 0.01
Simulation CPU 0 panic: IPC 0.002617 < 0.01
[ERROR_CYCLE] Error added at CPU cycle 24333678345, interval 345, pending count: 1
[DRAM_CYCLE_ERROR] Cycle-based error applied! address=0x733700328 additional_latency=2459910500 cycles
Simulation CPU 0 panic: IPC 0 < 0.01
Simulation CPU 0 panic: IPC 0.0076124 < 0.01
Simulation CPU 0 warning: IPC 0.036193 < 0.05
Simulation CPU 0 panic: IPC 0.0022524 < 0.01
Simulation CPU 0 panic: IPC 0.0052377 < 0.01
Simulation CPU 0 panic: IPC 0.0076136 < 0.01
Simulation CPU 0 panic: IPC 0.002617 < 0.01
[ERROR_CYCLE] Error added at CPU cycle 24404210746, interval 346, pending count: 1
[DRAM_CYCLE_ERROR] Cycle-based error applied! address=0x7584f3ee0 additional_latency=2459910500 cycles
Simulation CPU 0 panic: IPC 0.0077372 < 0.01
Simulation CPU 0 panic: IPC 0 < 0.01
Simulation CPU 0 warning: IPC 0.036077 < 0.05
Simulation CPU 0 panic: IPC 0.0017532 < 0.01
Simulation CPU 0 panic: IPC 0.0059865 < 0.01
Simulation CPU 0 panic: IPC 0.0072488 < 0.01
Simulation CPU 0 panic: IPC 0.0026074 < 0.01
[ERROR_CYCLE] Error added at CPU cycle 24474743148, interval 347, pending count: 1
[DRAM_CYCLE_ERROR] Cycle-based error applied! address=0xb5100750 additional_latency=2459910500 cycles
Simulation CPU 0 panic: IPC 0 < 0.01
Simulation CPU 0 panic: IPC 0.0081116 < 0.01
Simulation CPU 0 warning: IPC 0.036069 < 0.05
Simulation CPU 0 panic: IPC 0.001254 < 0.01
Simulation CPU 0 panic: IPC 0.0067353 < 0.01
Simulation CPU 0 panic: IPC 0.00674 < 0.01
Simulation CPU 0 panic: IPC 0.0024922 < 0.01
[ERROR_CYCLE] Error added at CPU cycle 24545275549, interval 348, pending count: 1
[DRAM_CYCLE_ERROR] Cycle-based error applied! address=0xba00ef0 additional_latency=2459910500 cycles
Simulation CPU 0 panic: IPC 0.0083996 < 0.01
Simulation CPU 0 panic: IPC 0 < 0.01
Simulation CPU 0 warning: IPC 0.035914 < 0.05
Simulation CPU 0 panic: IPC 0.0008796 < 0.01
Simulation CPU 0 panic: IPC 0.0073593 < 0.01
Simulation CPU 0 panic: IPC 0.0064904 < 0.01
Simulation CPU 0 panic: IPC 0.007086 < 0.01
[ERROR_CYCLE] Error added at CPU cycle 24615807949, interval 349, pending count: 1
[DRAM_CYCLE_ERROR] Cycle-based error applied! address=0x381600318 additional_latency=2459910500 cycles
Simulation CPU 0 panic: IPC 0.004017 < 0.01
Simulation CPU 0 warning: IPC 0.035944 < 0.05
Simulation CPU 0 panic: IPC 0.0003804 < 0.01
Simulation CPU 0 panic: IPC 0.0081081 < 0.01
Simulation CPU 0 panic: IPC 0.0059912 < 0.01
Simulation CPU 0 panic: IPC 0.0023674 < 0.01
Simulation CPU 0 panic: IPC 0.0089852 < 0.01
[ERROR_CYCLE] Error added at CPU cycle 24686340350, interval 350, pending count: 1
Simulation CPU 0 warning: IPC 0.035708 < 0.05
[DRAM_CYCLE_ERROR] Cycle-based error applied! address=0xba0de48 additional_latency=2459910500 cycles
Simulation CPU 0 panic: IPC 0 < 0.01
Simulation CPU 0 panic: IPC 0.0001188 < 0.01
Simulation CPU 0 panic: IPC 0.0086133 < 0.01
Simulation CPU 0 panic: IPC 0.0056456 < 0.01
Simulation CPU 0 panic: IPC 0.0023386 < 0.01
Simulation CPU 0 panic: IPC 0.0092348 < 0.01
[ERROR_CYCLE] Error added at CPU cycle 24756872751, interval 351, pending count: 1
Simulation CPU 0 warning: IPC 0.035326 < 0.05
[DRAM_CYCLE_ERROR] Cycle-based error applied! address=0x1d2600440 additional_latency=2459910500 cycles
Simulation CPU 0 panic: IPC 0 < 0.01
Heartbeat CPU 0 instructions: 230000033 cycles: 24779830440 heartbeat IPC: 0.009083 cumulative IPC: 0.009282 (Simulation time: 20 hr 30 min 51 sec)
Simulation CPU 0 panic: IPC 0.0094809 < 0.01
Simulation CPU 0 panic: IPC 0.0051176 < 0.01
Simulation CPU 0 panic: IPC 0.0022426 < 0.01
Simulation CPU 0 panic: IPC 0.0096092 < 0.01
Simulation CPU 0 warning: IPC 0.03471 < 0.05
[ERROR_CYCLE] Error added at CPU cycle 24827405153, interval 352, pending count: 1
Simulation CPU 0 panic: IPC 0.0009924 < 0.01
[DRAM_CYCLE_ERROR] Cycle-based error applied! address=0xba1aec8 additional_latency=2459910500 cycles
Simulation CPU 0 panic: IPC 0 < 0.01
Simulation CPU 0 panic: IPC 0.0091125 < 0.01
Simulation CPU 0 panic: IPC 0.004868 < 0.01
Simulation CPU 0 panic: IPC 0.0021178 < 0.01
Simulation CPU 0 panic: IPC 0.0099836 < 0.01
Simulation CPU 0 warning: IPC 0.034202 < 0.05
[ERROR_CYCLE] Error added at CPU cycle 24897937554, interval 353, pending count: 1
Simulation CPU 0 panic: IPC 0.0013764 < 0.01
[DRAM_CYCLE_ERROR] Cycle-based error applied! address=0x576200000 additional_latency=2459910500 cycles
Simulation CPU 0 panic: IPC 0 < 0.01
Simulation CPU 0 panic: IPC 0.0094101 < 0.01
Simulation CPU 0 panic: IPC 0.004436 < 0.01
Simulation CPU 0 critical: IPC 0.012226 < 0.02
Simulation CPU 0 warning: IPC 0.033712 < 0.05
Simulation CPU 0 panic: IPC 0.001866 < 0.01
[ERROR_CYCLE] Error added at CPU cycle 24968469954, interval 354, pending count: 1
Simulation CPU 0 panic: IPC 0.0096117 < 0.01
[DRAM_CYCLE_ERROR] Cycle-based error applied! address=0xba27f40 additional_latency=2459910500 cycles
Simulation CPU 0 panic: IPC 0 < 0.01
Simulation CPU 0 panic: IPC 0.0040424 < 0.01
Simulation CPU 0 panic: IPC 0.0020698 < 0.01
Simulation CPU 0 critical: IPC 0.010483 < 0.02
Simulation CPU 0 warning: IPC 0.033204 < 0.05
Simulation CPU 0 panic: IPC 0.0023652 < 0.01
[ERROR_CYCLE] Error added at CPU cycle 25039002355, interval 355, pending count: 1
Simulation CPU 0 panic: IPC 0.0097365 < 0.01
[DRAM_CYCLE_ERROR] Cycle-based error applied! address=0x4c2b00010 additional_latency=2459910500 cycles
Simulation CPU 0 panic: IPC 0 < 0.01
Simulation CPU 0 panic: IPC 0.00362 < 0.01
Simulation CPU 0 panic: IPC 0.001993 < 0.01
Simulation CPU 0 critical: IPC 0.010732 < 0.02
Simulation CPU 0 warning: IPC 0.032646 < 0.05
Simulation CPU 0 critical: IPC 0.012918 < 0.02
[ERROR_CYCLE] Error added at CPU cycle 25109534757, interval 356, pending count: 1
Simulation CPU 0 panic: IPC 0.0032456 < 0.01
[DRAM_CYCLE_ERROR] Cycle-based error applied! address=0xba34ec0 additional_latency=2459910500 cycles
Simulation CPU 0 panic: IPC 0 < 0.01
Simulation CPU 0 panic: IPC 0.0018682 < 0.01
Simulation CPU 0 critical: IPC 0.011107 < 0.02
Simulation CPU 0 critical: IPC 0.015321 < 0.02
Simulation CPU 0 critical: IPC 0.01676 < 0.02
Simulation CPU 0 panic: IPC 0.0033636 < 0.01
Simulation CPU 0 critical: IPC 0.010236 < 0.02
[ERROR_CYCLE] Error added at CPU cycle 25180067158, interval 357, pending count: 1
[DRAM_CYCLE_ERROR] Cycle-based error applied! address=0x562900050 additional_latency=2459910500 cycles
Simulation CPU 0 panic: IPC 0 < 0.01
Simulation CPU 0 panic: IPC 0.0028712 < 0.01
Simulation CPU 0 panic: IPC 0.0018682 < 0.01
Simulation CPU 0 critical: IPC 0.011356 < 0.02
Simulation CPU 0 warning: IPC 0.031465 < 0.05
Simulation CPU 0 panic: IPC 0.0038628 < 0.01
Simulation CPU 0 critical: IPC 0.011557 < 0.02
[ERROR_CYCLE] Error added at CPU cycle 25250599558, interval 358, pending count: 1
[DRAM_CYCLE_ERROR] Cycle-based error applied! address=0xba41ed0 additional_latency=2459910500 cycles
Simulation CPU 0 panic: IPC 0.0013672 < 0.01
Simulation CPU 0 panic: IPC 0.001801 < 0.01
Simulation CPU 0 critical: IPC 0.011606 < 0.02
Simulation CPU 0 warning: IPC 0.031082 < 0.05
Simulation CPU 0 panic: IPC 0.0042372 < 0.01
Simulation CPU 0 critical: IPC 0.010735 < 0.02
Simulation CPU 0 panic: IPC 0.0019976 < 0.01
[ERROR_CYCLE] Error added at CPU cycle 25321131959, interval 359, pending count: 1
[DRAM_CYCLE_ERROR] Cycle-based error applied! address=0x3784001d8 additional_latency=2459910500 cycles
Simulation CPU 0 panic: IPC 0 < 0.01
Simulation CPU 0 panic: IPC 0.0017434 < 0.01
Simulation CPU 0 critical: IPC 0.01198 < 0.02
Simulation CPU 0 warning: IPC 0.030467 < 0.05
Simulation CPU 0 panic: IPC 0.0047364 < 0.01
Simulation CPU 0 critical: IPC 0.010984 < 0.02
Simulation CPU 0 panic: IPC 0.0016232 < 0.01
[ERROR_CYCLE] Error added at CPU cycle 25391664360, interval 360, pending count: 1
[DRAM_CYCLE_ERROR] Cycle-based error applied! address=0xba4ef30 additional_latency=2459910500 cycles
Simulation CPU 0 panic: IPC 0.0016186 < 0.01
Simulation CPU 0 panic: IPC 0 < 0.01
Simulation CPU 0 warning: IPC 0.042314 < 0.05
Simulation CPU 0 panic: IPC 0.0051108 < 0.01
Simulation CPU 0 critical: IPC 0.011234 < 0.02
Simulation CPU 0 panic: IPC 0.0012488 < 0.01
Simulation CPU 0 panic: IPC 0.0016186 < 0.01
[ERROR_CYCLE] Error added at CPU cycle 25462196762, interval 361, pending count: 1
[DRAM_CYCLE_ERROR] Cycle-based error applied! address=0x6b21004f8 additional_latency=2459910500 cycles
Simulation CPU 0 panic: IPC 0 < 0.01
Simulation CPU 0 critical: IPC 0.012488 < 0.02
Simulation CPU 0 critical: IPC 0.011436 < 0.02
Simulation CPU 0 critical: IPC 0.018024 < 0.02
Simulation CPU 0 panic: IPC 0.00561 < 0.01
Simulation CPU 0 critical: IPC 0.011484 < 0.02
Simulation CPU 0 panic: IPC 0.000836 < 0.01
[ERROR_CYCLE] Error added at CPU cycle 25532729163, interval 362, pending count: 1
[DRAM_CYCLE_ERROR] Cycle-based error applied! address=0xba5bf40 additional_latency=2459910500 cycles
Simulation CPU 0 panic: IPC 0.0015322 < 0.01
Simulation CPU 0 panic: IPC 0 < 0.01
Simulation CPU 0 critical: IPC 0.012854 < 0.02
Simulation CPU 0 warning: IPC 0.028961 < 0.05
Simulation CPU 0 critical: IPC 0.017718 < 0.02
Simulation CPU 0 panic: IPC 0.0003752 < 0.01
Simulation CPU 0 panic: IPC 0.0014938 < 0.01
[ERROR_CYCLE] Error added at CPU cycle 25603261563, interval 363, pending count: 1
[DRAM_CYCLE_ERROR] Cycle-based error applied! address=0x73c4000d0 additional_latency=2459910500 cycles
Simulation CPU 0 panic: IPC 0 < 0.01
Simulation CPU 0 critical: IPC 0.013112 < 0.02
Simulation CPU 0 warning: IPC 0.028462 < 0.05
Simulation CPU 0 panic: IPC 0.0064836 < 0.01
Simulation CPU 0 critical: IPC 0.011983 < 0.02
Simulation CPU 0 panic: IPC 0.0013698 < 0.01
Simulation CPU 0 critical: IPC 0.013478 < 0.02
[ERROR_CYCLE] Error added at CPU cycle 25673793964, interval 364, pending count: 1
[DRAM_CYCLE_ERROR] Cycle-based error applied! address=0xba69ec0 additional_latency=2459910500 cycles
Simulation CPU 0 warning: IPC 0.027963 < 0.05
Simulation CPU 0 panic: IPC 0 < 0.01
Simulation CPU 0 panic: IPC 0.0069828 < 0.01
Simulation CPU 0 critical: IPC 0.011734 < 0.02
Simulation CPU 0 panic: IPC 0.0003736 < 0.01
Simulation CPU 0 critical: IPC 0.011423 < 0.02
Simulation CPU 0 warning: IPC 0.030647 < 0.05
[ERROR_CYCLE] Error added at CPU cycle 25744326365, interval 365, pending count: 1
[DRAM_CYCLE_ERROR] Cycle-based error applied! address=0x7a27007a0 additional_latency=2459910500 cycles
Simulation CPU 0 panic: IPC 0 < 0.01
Simulation CPU 0 panic: IPC 0.0073572 < 0.01
Simulation CPU 0 critical: IPC 0.011715 < 0.02
Simulation CPU 0 panic: IPC 0.0007672 < 0.01
Simulation CPU 0 panic: IPC 0.0004962 < 0.01
Simulation CPU 0 critical: IPC 0.013977 < 0.02
Simulation CPU 0 panic: IPC 0.0075513 < 0.01
[ERROR_CYCLE] Error added at CPU cycle 25814858767, interval 366, pending count: 1
[DRAM_CYCLE_ERROR] Cycle-based error applied! address=0xba76ed0 additional_latency=2459910500 cycles
Simulation CPU 0 critical: IPC 0.019288 < 0.02
Simulation CPU 0 panic: IPC 0 < 0.01
Simulation CPU 0 panic: IPC 0.0079812 < 0.01
Simulation CPU 0 critical: IPC 0.01136 < 0.02
Simulation CPU 0 panic: IPC 0.0012442 < 0.01
Heartbeat CPU 0 instructions: 240000034 cycles: 25861758924 heartbeat IPC: 0.009243 cumulative IPC: 0.00928 (Simulation time: 22 hr 26 min 10 sec)
Simulation CPU 0 critical: IPC 0.01436 < 0.02
Simulation CPU 0 warning: IPC 0.026215 < 0.05
[ERROR_CYCLE] Error added at CPU cycle 25885391168, interval 367, pending count: 1
[DRAM_CYCLE_ERROR] Cycle-based error applied! address=0x78d006d8 additional_latency=2459910500 cycles
Simulation CPU 0 panic: IPC 0.0084804 < 0.01
Simulation CPU 0 critical: IPC 0.011235 < 0.02
Simulation CPU 0 panic: IPC 0.0011194 < 0.01
Simulation CPU 0 panic: IPC 0.0005022 < 0.01
Simulation CPU 0 critical: IPC 0.014099 < 0.02
Simulation CPU 0 warning: IPC 0.025841 < 0.05
Simulation CPU 0 panic: IPC 0.0088548 < 0.01
[ERROR_CYCLE] Error added at CPU cycle 25955923568, interval 368, pending count: 1
[DRAM_CYCLE_ERROR] Cycle-based error applied! address=0x1ab1d3440 additional_latency=2459910500 cycles
Simulation CPU 0 panic: IPC 0.0023061 < 0.01
Simulation CPU 0 panic: IPC 0.008804 < 0.01
Simulation CPU 0 panic: IPC 0.0010029 < 0.01
Simulation CPU 0 panic: IPC 0.0008766 < 0.01
Simulation CPU 0 critical: IPC 0.014099 < 0.02
Simulation CPU 0 warning: IPC 0.025217 < 0.05
Simulation CPU 0 panic: IPC 0.009354 < 0.01
[ERROR_CYCLE] Error added at CPU cycle 26026455969, interval 369, pending count: 1
[DRAM_CYCLE_ERROR] Cycle-based error applied! address=0xba8af30 additional_latency=2459910500 c