
*** ChampSim Multicore Out-of-Order Simulator ***
Warmup Instructions: 0
Simulation Instructions: 9223372036854775807
Number of CPUs: 1
Page size: 1048576

Off-chip DRAM Size: 128 GiB Channels: 2 Width: 32-bit Data Rate: 4807 MT/s
[ERROR_PAGE_MANAGER] Error latency: 2459910500 
[ERROR_PAGE_MANAGER] Random seed: 54321 (fixed for preload reproducibility)
[ERROR_PAGE_MANAGER] Cycle-based error modeling enabled
[ERROR_PAGE_MANAGER] Errors per interval: 1
[ERROR_PAGE_MANAGER] Error cycle interval: 25763047 cycles

=== ERROR PAGE STATISTICS ===
Mode: CYCLE
Error Cycle Interval: 25763047 CPU cycles
Total Error Accesses: 0
==============================
Warmup finished CPU 0 instructions: 0 cycles: 1 cumulative IPC: 0 (Simulation time: 00 hr 00 min 00 sec)
Warmup complete CPU 0 instructions: 0 cycles: 1 cumulative IPC: 0 (Simulation time: 00 hr 00 min 00 sec)
Simulation CPU 0 panic: IPC 0 < 0.01
Simulation CPU 0 panic: IPC 0 < 0.01
[ERROR_CYCLE] Error added at CPU cycle 25763048, interval 1, pending count: 1
[DRAM_CYCLE_ERROR] Cycle-based error applied! address=0x9da17b0b8 additional_latency=2459910500 cycles
Simulation CPU 0 panic: IPC 0 < 0.01
Simulation CPU 0 panic: IPC 0.0002609 < 0.01
Simulation CPU 0 panic: IPC 1.8e-06 < 0.01
[ERROR_CYCLE] Error added at CPU cycle 51526094, interval 2, pending count: 1
[DRAM_CYCLE_ERROR] Cycle-based error applied! address=0xf61249640 additional_latency=2459910500 cycles
Simulation CPU 0 panic: IPC 0 < 0.01
Simulation CPU 0 panic: IPC 9e-07 < 0.01
[ERROR_CYCLE] Error added at CPU cycle 77289142, interval 3, pending count: 1
[DRAM_CYCLE_ERROR] Cycle-based error applied! address=0x1959c0cd88 additional_latency=2459910500 cycles
Simulation CPU 0 panic: IPC 1e-07 < 0.01
Simulation CPU 0 panic: IPC 0 < 0.01
Simulation CPU 0 panic: IPC 3.8e-06 < 0.01
[ERROR_CYCLE] Error added at CPU cycle 103052188, interval 4, pending count: 1
[DRAM_CYCLE_ERROR] Cycle-based error applied! address=0x1959c10c08 additional_latency=2459910500 cycles
Simulation CPU 0 panic: IPC 1.1e-06 < 0.01
Simulation CPU 0 panic: IPC 0 < 0.01
[ERROR_CYCLE] Error added at CPU cycle 128815235, interval 5, pending count: 1
Simulation CPU 0 panic: IPC 2.8e-06 < 0.01
[DRAM_CYCLE_ERROR] Cycle-based error applied! address=0x15c052fa70 additional_latency=2459910500 cycles
Simulation CPU 0 panic: IPC 0 < 0.01
Simulation CPU 0 panic: IPC 2.9e-06 < 0.01
[ERROR_CYCLE] Error added at CPU cycle 154578283, interval 6, pending count: 1
[DRAM_CYCLE_ERROR] Cycle-based error applied! address=0x1959c13d38 additional_latency=2459910500 cycles
Simulation CPU 0 panic: IPC 1.5e-06 < 0.01
Simulation CPU 0 panic: IPC 1.2e-06 < 0.01
Simulation CPU 0 panic: IPC 1e-07 < 0.01
[ERROR_CYCLE] Error added at CPU cycle 180341329, interval 7, pending count: 1
[DRAM_CYCLE_ERROR] Cycle-based error applied! address=0x1959c15cf0 additional_latency=2459910500 cycles
Simulation CPU 0 panic: IPC 1.1e-06 < 0.01
Simulation CPU 0 panic: IPC 2.4e-06 < 0.01
[ERROR_CYCLE] Error added at CPU cycle 206104376, interval 8, pending count: 1
[DRAM_CYCLE_ERROR] Cycle-based error applied! address=0x1c508f5f80 additional_latency=2459910500 cycles
Simulation CPU 0 panic: IPC 0 < 0.01
Simulation CPU 0 panic: IPC 1.2e-06 < 0.01
Simulation CPU 0 panic: IPC 1e-07 < 0.01
[ERROR_CYCLE] Error added at CPU cycle 231867424, interval 9, pending count: 1
[DRAM_CYCLE_ERROR] Cycle-based error applied! address=0x17b495fae0 additional_latency=2459910500 cycles
Simulation CPU 0 panic: IPC 0 < 0.01
Simulation CPU 0 panic: IPC 2.7e-06 < 0.01
[ERROR_CYCLE] Error added at CPU cycle 257630470, interval 10, pending count: 1
[DRAM_CYCLE_ERROR] Cycle-based error applied! address=0x1959c1bdb0 additional_latency=2459910500 cycles
Simulation CPU 0 panic: IPC 2.9e-06 < 0.01
Simulation CPU 0 panic: IPC 0 < 0.01
Simulation CPU 0 panic: IPC 2.8e-06 < 0.01
[ERROR_CYCLE] Error added at CPU cycle 283393517, interval 11, pending count: 1
[DRAM_CYCLE_ERROR] Cycle-based error applied! address=0x1959c1fc48 additional_latency=2459910500 cycles
Simulation CPU 0 panic: IPC 3.9e-06 < 0.01
Simulation CPU 0 panic: IPC 0 < 0.01
[ERROR_CYCLE] Error added at CPU cycle 309156565, interval 12, pending count: 1
Simulation CPU 0 panic: IPC 1.3e-06 < 0.01
[DRAM_CYCLE_ERROR] Cycle-based error applied! address=0x309f6b8d0 additional_latency=2459910500 cycles
Simulation CPU 0 panic: IPC 0 < 0.01
Simulation CPU 0 panic: IPC 4.4e-06 < 0.01
[ERROR_CYCLE] Error added at CPU cycle 334919611, interval 13, pending count: 1
[DRAM_CYCLE_ERROR] Cycle-based error applied! address=0x1e34e70f50 additional_latency=2459910500 cycles
Simulation CPU 0 panic: IPC 0 < 0.01
Simulation CPU 0 panic: IPC 1.1e-06 < 0.01
Simulation CPU 0 panic: IPC 1.3e-06 < 0.01
[ERROR_CYCLE] Error added at CPU cycle 360682659, interval 14, pending count: 1
[DRAM_CYCLE_ERROR] Cycle-based error applied! address=0x1959c24bf0 additional_latency=2459910500 cycles
Simulation CPU 0 panic: IPC 0 < 0.01
Simulation CPU 0 panic: IPC 2.31e-05 < 0.01
[ERROR_CYCLE] Error added at CPU cycle 386445705, interval 15, pending count: 1
[DRAM_CYCLE_ERROR] Cycle-based error applied! address=0x1eaaf8a840 additional_latency=2459910500 cycles
Simulation CPU 0 panic: IPC 0 < 0.01
Simulation CPU 0 panic: IPC 1e-07 < 0.01
Simulation CPU 0 panic: IPC 2.3e-06 < 0.01
[ERROR_CYCLE] Error added at CPU cycle 412208752, interval 16, pending count: 1
[DRAM_CYCLE_ERROR] Cycle-based error applied! address=0x1e4ee222a0 additional_latency=2459910500 cycles
Simulation CPU 0 panic: IPC 0 < 0.01
Simulation CPU 0 panic: IPC 4e-06 < 0.01
[ERROR_CYCLE] Error added at CPU cycle 437971800, interval 17, pending count: 1
[DRAM_CYCLE_ERROR] Cycle-based error applied! address=0x1959c29040 additional_latency=2459910500 cycles
Simulation CPU 0 panic: IPC 6e-06 < 0.01
Simulation CPU 0 panic: IPC 0 < 0.01
Simulation CPU 0 panic: IPC 1e-07 < 0.01
[ERROR_CYCLE] Error added at CPU cycle 463734846, interval 18, pending count: 1
[DRAM_CYCLE_ERROR] Cycle-based error applied! address=0x1959c2b038 additional_latency=2459910500 cycles
Simulation CPU 0 panic: IPC 5e-07 < 0.01
Simulation CPU 0 panic: IPC 0 < 0.01
[ERROR_CYCLE] Error added at CPU cycle 489497893, interval 19, pending count: 1
Simulation CPU 0 panic: IPC 0 < 0.01
[DRAM_CYCLE_ERROR] Cycle-based error applied! address=0x1731f1edf0 additional_latency=2459910500 cycles
Simulation CPU 0 panic: IPC 0 < 0.01
Simulation CPU 0 panic: IPC 2.07e-05 < 0.01
[ERROR_CYCLE] Error added at CPU cycle 515260941, interval 20, pending count: 1
[DRAM_CYCLE_ERROR] Cycle-based error applied! address=0x1cb2be1b80 additional_latency=2459910500 cycles
Simulation CPU 0 panic: IPC 0 < 0.01
Simulation CPU 0 panic: IPC 7.6e-06 < 0.01
Simulation CPU 0 panic: IPC 0 < 0.01
[ERROR_CYCLE] Error added at CPU cycle 541023987, interval 21, pending count: 1
[DRAM_CYCLE_ERROR] Cycle-based error applied! address=0x1959c32390 additional_latency=2459910500 cycles
Simulation CPU 0 panic: IPC 0 < 0.01
Simulation CPU 0 panic: IPC 0.0009948 < 0.01
[ERROR_CYCLE] Error added at CPU cycle 566787034, interval 22, pending count: 1
Simulation CPU 0 panic: IPC 0.0014688 < 0.01
[DRAM_CYCLE_ERROR] Cycle-based error applied! address=0x1959c34c58 additional_latency=2459910500 cycles
Simulation CPU 0 panic: IPC 0 < 0.01
Simulation CPU 0 panic: IPC 0.0001267 < 0.01
[ERROR_CYCLE] Error added at CPU cycle 592550082, interval 23, pending count: 1
[DRAM_CYCLE_ERROR] Cycle-based error applied! address=0x14362f63a8 additional_latency=2459910500 cycles
Simulation CPU 0 panic: IPC 0 < 0.01
Simulation CPU 0 panic: IPC 0.0001632 < 0.01
[ERROR_CYCLE] Error added at CPU cycle 618313128, interval 24, pending count: 1
[DRAM_CYCLE_ERROR] Cycle-based error applied! address=0x1959c37d48 additional_latency=2459910500 cycles
Simulation CPU 0 panic: IPC 0.000147 < 0.01
Simulation CPU 0 panic: IPC 0 < 0.01
Simulation CPU 0 panic: IPC 0.0001535 < 0.01
[ERROR_CYCLE] Error added at CPU cycle 644076176, interval 25, pending count: 1
[DRAM_CYCLE_ERROR] Cycle-based error applied! address=0x1959c39da0 additional_latency=2459910500 cycles
Simulation CPU 0 panic: IPC 0.0001866 < 0.01
Simulation CPU 0 panic: IPC 0 < 0.01
[ERROR_CYCLE] Error added at CPU cycle 669839223, interval 26, pending count: 1
Simulation CPU 0 panic: IPC 1.93e-05 < 0.01
[DRAM_CYCLE_ERROR] Cycle-based error applied! address=0x130056f9c8 additional_latency=2459910500 cycles
Simulation CPU 0 panic: IPC 0 < 0.01
Simulation CPU 0 critical: IPC 0.016008 < 0.02
[ERROR_CYCLE] Error added at CPU cycle 695602269, interval 27, pending count: 1
[DRAM_CYCLE_ERROR] Cycle-based error applied! address=0x10ad2cab20 additional_latency=2459910500 cycles
Simulation CPU 0 panic: IPC 0 < 0.01
Simulation CPU 0 warning: IPC 0.049357 < 0.05
[ERROR_CYCLE] Error added at CPU cycle 721365317, interval 28, pending count: 1
[DRAM_CYCLE_ERROR] Cycle-based error applied! address=0x1959c3ef90 additional_latency=2459910500 cycles
Simulation CPU 0 panic: IPC 0 < 0.01
Simulation CPU 0 warning: IPC 0.032397 < 0.05
[ERROR_CYCLE] Error added at CPU cycle 747128363, interval 29, pending count: 1
[DRAM_CYCLE_ERROR] Cycle-based error applied! address=0x622af6268 additional_latency=2459910500 cycles
Simulation CPU 0 panic: IPC 0 < 0.01
Simulation CPU 0 warning: IPC 0.043719 < 0.05
[ERROR_CYCLE] Error added at CPU cycle 772891410, interval 30, pending count: 1
[DRAM_CYCLE_ERROR] Cycle-based error applied! address=0x7b316a978 additional_latency=2459910500 cycles
Simulation CPU 0 panic: IPC 0 < 0.01
Simulation CPU 0 warning: IPC 0.0219 < 0.05
[ERROR_CYCLE] Error added at CPU cycle 798654458, interval 31, pending count: 1
[DRAM_CYCLE_ERROR] Cycle-based error applied! address=0x1959c43f98 additional_latency=2459910500 cycles
Simulation CPU 0 panic: IPC 0 < 0.01
[ERROR_CYCLE] Error added at CPU cycle 824417504, interval 32, pending count: 1
[DRAM_CYCLE_ERROR] Cycle-based error applied! address=0xe8dff228 additional_latency=2459910500 cycles
Simulation CPU 0 panic: IPC 0 < 0.01
[ERROR_CYCLE] Error added at CPU cycle 850180551, interval 33, pending count: 1
[DRAM_CYCLE_ERROR] Cycle-based error applied! address=0x1959c46f88 additional_latency=2459910500 cycles
Simulation CPU 0 panic: IPC 0 < 0.01
Heartbeat CPU 0 instructions: 10000003 cycles: 866657201 heartbeat IPC: 0.01154 cumulative IPC: 0.01154 (Simulation time: 01 hr 11 min 45 sec)
[ERROR_CYCLE] Error added at CPU cycle 875943599, interval 34, pending count: 1
[DRAM_CYCLE_ERROR] Cycle-based error applied! address=0x10225af598 additional_latency=2459910500 cycles
Simulation CPU 0 panic: IPC 0 < 0.01
Heartbeat CPU 0 instructions: 20000005 cycles: 893524650 heartbeat IPC: 0.3722 cumulative IPC: 0.02238 (Simulation time: 01 hr 15 min 00 sec)
[ERROR_CYCLE] Error added at CPU cycle 901706645, interval 35, pending count: 1
[DRAM_CYCLE_ERROR] Cycle-based error applied! address=0x45d43a648 additional_latency=2459910500 cycles
Simulation CPU 0 panic: IPC 0 < 0.01
Simulation CPU 0 panic: IPC 0.0045944 < 0.01
[ERROR_CYCLE] Error added at CPU cycle 927469692, interval 36, pending count: 1
[DRAM_CYCLE_ERROR] Cycle-based error applied! address=0x1959c4a048 additional_latency=2459910500 cycles
Simulation CPU 0 panic: IPC 6.6e-06 < 0.01
Simulation CPU 0 panic: IPC 0 < 0.01
Simulation CPU 0 panic: IPC 9.1e-06 < 0.01
[ERROR_CYCLE] Error added at CPU cycle 953232740, interval 37, pending count: 1
[DRAM_CYCLE_ERROR] Cycle-based error applied! address=0x1959c4c350 additional_latency=2459910500 cycles
Simulation CPU 0 panic: IPC 0.008418 < 0.01
Simulation CPU 0 panic: IPC 0 < 0.01
[ERROR_CYCLE] Error added at CPU cycle 978995786, interval 38, pending count: 1
Simulation CPU 0 panic: IPC 2.36e-05 < 0.01
[DRAM_CYCLE_ERROR] Cycle-based error applied! address=0xce5d1dca0 additional_latency=2459910500 cycles
Simulation CPU 0 panic: IPC 0 < 0.01
Heartbeat CPU 0 instructions: 30000009 cycles: 997570337 heartbeat IPC: 0.09611 cumulative IPC: 0.03007 (Simulation time: 01 hr 24 min 26 sec)
[ERROR_CYCLE] Error added at CPU cycle 1004758834, interval 39, pending count: 1
[DRAM_CYCLE_ERROR] Cycle-based error applied! address=0xf7d6b6ac0 additional_latency=2459910500 cycles
Heartbeat CPU 0 instructions: 40000010 cycles: 1015999096 heartbeat IPC: 0.5426 cumulative IPC: 0.03937 (Simulation time: 01 hr 26 min 24 sec)
Heartbeat CPU 0 instructions: 50000010 cycles: 1023978008 heartbeat IPC: 1.253 cumulative IPC: 0.04883 (Simulation time: 01 hr 27 min 29 sec)
[ERROR_CYCLE] Error added at CPU cycle 1030521880, interval 40, pending count: 1
[DRAM_CYCLE_ERROR] Cycle-based error applied! address=0xf7d6d7e80 additional_latency=2459910500 cycles
Heartbeat CPU 0 instructions: 60000013 cycles: 1041420874 heartbeat IPC: 0.5733 cumulative IPC: 0.05761 (Simulation time: 01 hr 29 min 20 sec)
Heartbeat CPU 0 instructions: 70000014 cycles: 1048838477 heartbeat IPC: 1.348 cumulative IPC: 0.06674 (Simulation time: 01 hr 30 min 22 sec)
Heartbeat CPU 0 instructions: 80000014 cycles: 1054847695 heartbeat IPC: 1.664 cumulative IPC: 0.07584 (Simulation time: 01 hr 31 min 16 sec)
[ERROR_CYCLE] Error added at CPU cycle 1056284927, interval 41, pending count: 1
[DRAM_CYCLE_ERROR] Cycle-based error applied! address=0xf7d6de658 additional_latency=2459910500 cycles
Heartbeat CPU 0 instructions: 90000015 cycles: 1070467500 heartbeat IPC: 0.6402 cumulative IPC: 0.08408 (Simulation time: 01 hr 33 min 00 sec)
Heartbeat CPU 0 instructions: 100000015 cycles: 1077161689 heartbeat IPC: 1.494 cumulative IPC: 0.09284 (Simulation time: 01 hr 33 min 58 sec)
[ERROR_CYCLE] Error added at CPU cycle 1082047975, interval 42, pending count: 1
[DRAM_CYCLE_ERROR] Cycle-based error applied! address=0xf612f8828 additional_latency=2459910500 cycles
Heartbeat CPU 0 instructions: 110000018 cycles: 1105026704 heartbeat IPC: 0.3589 cumulative IPC: 0.09955 (Simulation time: 01 hr 37 min 02 sec)
[ERROR_CYCLE] Error added at CPU cycle 1107811021, interval 43, pending count: 1
[DRAM_CYCLE_ERROR] Cycle-based error applied! address=0xf7d6ae980 additional_latency=2459910500 cycles
Heartbeat CPU 0 instructions: 120000020 cycles: 1123383610 heartbeat IPC: 0.5448 cumulative IPC: 0.1068 (Simulation time: 01 hr 39 min 01 sec)
Heartbeat CPU 0 instructions: 130000020 cycles: 1131308682 heartbeat IPC: 1.262 cumulative IPC: 0.1149 (Simulation time: 01 hr 40 min 06 sec)
[ERROR_CYCLE] Error added at CPU cycle 1133574068, interval 44, pending count: 1
[DRAM_CYCLE_ERROR] Cycle-based error applied! address=0xf7d6d1080 additional_latency=2459910500 cycles
Heartbeat CPU 0 instructions: 140000021 cycles: 1148751480 heartbeat IPC: 0.5733 cumulative IPC: 0.1219 (Simulation time: 01 hr 41 min 58 sec)
Heartbeat CPU 0 instructions: 150000022 cycles: 1155467737 heartbeat IPC: 1.489 cumulative IPC: 0.1298 (Simulation time: 01 hr 42 min 56 sec)
[ERROR_CYCLE] Error added at CPU cycle 1159337116, interval 45, pending count: 1
[DRAM_CYCLE_ERROR] Cycle-based error applied! address=0x17d9d56ce8 additional_latency=2459910500 cycles
Heartbeat CPU 0 instructions: 160000024 cycles: 1161294585 heartbeat IPC: 1.716 cumulative IPC: 0.1378 (Simulation time: 01 hr 43 min 50 sec)
Heartbeat CPU 0 instructions: 170000027 cycles: 1168314410 heartbeat IPC: 1.425 cumulative IPC: 0.1455 (Simulation time: 01 hr 44 min 50 sec)
Heartbeat CPU 0 instructions: 180000031 cycles: 1177302896 heartbeat IPC: 1.113 cumulative IPC: 0.1529 (Simulation time: 01 hr 46 min 02 sec)
[ERROR_CYCLE] Error added at CPU cycle 1185100162, interval 46, pending count: 1
[DRAM_CYCLE_ERROR] Cycle-based error applied! address=0x1e113fc080 additional_latency=2459910500 cycles
Heartbeat CPU 0 instructions: 190000035 cycles: 1195360745 heartbeat IPC: 0.5538 cumulative IPC: 0.1589 (Simulation time: 01 hr 48 min 11 sec)
Heartbeat CPU 0 instructions: 200000037 cycles: 1202414185 heartbeat IPC: 1.418 cumulative IPC: 0.1663 (Simulation time: 01 hr 49 min 12 sec)
[ERROR_CYCLE] Error added at CPU cycle 1210863209, interval 47, pending count: 1
[DRAM_CYCLE_ERROR] Cycle-based error applied! address=0x15c059a610 additional_latency=2459910500 cycles
Heartbeat CPU 0 instructions: 210000041 cycles: 1221037574 heartbeat IPC: 0.537 cumulative IPC: 0.172 (Simulation time: 01 hr 51 min 30 sec)
Heartbeat CPU 0 instructions: 220000041 cycles: 1229491955 heartbeat IPC: 1.183 cumulative IPC: 0.1789 (Simulation time: 01 hr 52 min 40 sec)
[ERROR_CYCLE] Error added at CPU cycle 1236626257, interval 48, pending count: 1
[DRAM_CYCLE_ERROR] Cycle-based error applied! address=0x1cb1804a08 additional_latency=2459910500 cycles
Heartbeat CPU 0 instructions: 230000042 cycles: 1237437344 heartbeat IPC: 1.259 cumulative IPC: 0.1859 (Simulation time: 01 hr 53 min 46 sec)
Heartbeat CPU 0 instructions: 240000046 cycles: 1245031352 heartbeat IPC: 1.317 cumulative IPC: 0.1928 (Simulation time: 01 hr 54 min 49 sec)
Heartbeat CPU 0 instructions: 250000047 cycles: 1252421059 heartbeat IPC: 1.353 cumulative IPC: 0.1996 (Simulation time: 01 hr 55 min 51 sec)
Heartbeat CPU 0 instructions: 260000047 cycles: 1259617850 heartbeat IPC: 1.39 cumulative IPC: 0.2064 (Simulation time: 01 hr 56 min 53 sec)
[ERROR_CYCLE] Error added at CPU cycle 1262389303, interval 49, pending count: 1
[DRAM_CYCLE_ERROR] Cycle-based error applied! address=0xd40b79b38 additional_latency=2459910500 cycles
Heartbeat CPU 0 instructions: 270000047 cycles: 1285745938 heartbeat IPC: 0.3827 cumulative IPC: 0.21 (Simulation time: 01 hr 59 min 18 sec)
[ERROR_CYCLE] Error added at CPU cycle 1288152351, interval 50, pending count: 1
[DRAM_CYCLE_ERROR] Cycle-based error applied! address=0x124da06ac0 additional_latency=2459910500 cycles
Heartbeat CPU 0 instructions: 280000048 cycles: 1302556855 heartbeat IPC: 0.5949 cumulative IPC: 0.215 (Simulation time: 02 hr 00 min 38 sec)
Heartbeat CPU 0 instructions: 290000050 cycles: 1308245074 heartbeat IPC: 1.758 cumulative IPC: 0.2217 (Simulation time: 02 hr 01 min 21 sec)
Heartbeat CPU 0 instructions: 300000051 cycles: 1313448929 heartbeat IPC: 1.922 cumulative IPC: 0.2284 (Simulation time: 02 hr 01 min 55 sec)
[ERROR_CYCLE] Error added at CPU cycle 1313915398, interval 51, pending count: 1
[DRAM_CYCLE_ERROR] Cycle-based error applied! address=0x15aa5e7bc8 additional_latency=2459910500 cycles
Heartbeat CPU 0 instructions: 310000051 cycles: 1328729640 heartbeat IPC: 0.6544 cumulative IPC: 0.2333 (Simulation time: 02 hr 03 min 18 sec)
Heartbeat CPU 0 instructions: 320000051 cycles: 1334403697 heartbeat IPC: 1.762 cumulative IPC: 0.2398 (Simulation time: 02 hr 03 min 53 sec)
[ERROR_CYCLE] Error added at CPU cycle 1339678444, interval 52, pending count: 1
[DRAM_CYCLE_ERROR] Cycle-based error applied! address=0x309faff28 additional_latency=2459910500 cycles
Heartbeat CPU 0 instructions: 330000051 cycles: 1350199852 heartbeat IPC: 0.6331 cumulative IPC: 0.2444 (Simulation time: 02 hr 05 min 28 sec)
Heartbeat CPU 0 instructions: 340000051 cycles: 1356621495 heartbeat IPC: 1.557 cumulative IPC: 0.2506 (Simulation time: 02 hr 06 min 06 sec)
Heartbeat CPU 0 instructions: 350000053 cycles: 1363812128 heartbeat IPC: 1.391 cumulative IPC: 0.2566 (Simulation time: 02 hr 06 min 48 sec)
[ERROR_CYCLE] Error added at CPU cycle 1365441492, interval 53, pending count: 1
[DRAM_CYCLE_ERROR] Cycle-based error applied! address=0x4a610d708 additional_latency=2459910500 cycles
Heartbeat CPU 0 instructions: 360000054 cycles: 1382592910 heartbeat IPC: 0.5325 cumulative IPC: 0.2604 (Simulation time: 02 hr 08 min 28 sec)
Heartbeat CPU 0 instructions: 370000054 cycles: 1390729793 heartbeat IPC: 1.229 cumulative IPC: 0.266 (Simulation time: 02 hr 09 min 19 sec)
[ERROR_CYCLE] Error added at CPU cycle 1391204538, interval 54, pending count: 1
[DRAM_CYCLE_ERROR] Cycle-based error applied! address=0x1dfd0ccab8 additional_latency=2459910500 cycles
Heartbeat CPU 0 instructions: 380000056 cycles: 1409173007 heartbeat IPC: 0.5422 cumulative IPC: 0.2697 (Simulation time: 02 hr 10 min 42 sec)
[ERROR_CYCLE] Error added at CPU cycle 1416967585, interval 55, pending count: 1
[DRAM_CYCLE_ERROR] Cycle-based error applied! address=0x1c7bf301d8 additional_latency=2459910500 cycles
Heartbeat CPU 0 instructions: 390000059 cycles: 1427189344 heartbeat IPC: 0.5551 cumulative IPC: 0.2733 (Simulation time: 02 hr 12 min 33 sec)
Heartbeat CPU 0 instructions: 400000059 cycles: 1434902232 heartbeat IPC: 1.297 cumulative IPC: 0.2788 (Simulation time: 02 hr 13 min 34 sec)
Heartbeat CPU 0 instructions: 410000063 cycles: 1442367643 heartbeat IPC: 1.34 cumulative IPC: 0.2843 (Simulation time: 02 hr 14 min 40 sec)
[ERROR_CYCLE] Error added at CPU cycle 1442730633, interval 56, pending count: 1
[DRAM_CYCLE_ERROR] Cycle-based error applied! address=0xc324c428 additional_latency=2459910500 cycles
Heartbeat CPU 0 instructions: 420000063 cycles: 1459247273 heartbeat IPC: 0.5924 cumulative IPC: 0.2878 (Simulation time: 02 hr 16 min 34 sec)
Heartbeat CPU 0 instructions: 430000064 cycles: 1464697885 heartbeat IPC: 1.835 cumulative IPC: 0.2936 (Simulation time: 02 hr 17 min 28 sec)
[ERROR_CYCLE] Error added at CPU cycle 1468493679, interval 57, pending count: 1
[DRAM_CYCLE_ERROR] Cycle-based error applied! address=0x3ebb23730 additional_latency=2459910500 cycles
Heartbeat CPU 0 instructions: 440000064 cycles: 1480532900 heartbeat IPC: 0.6315 cumulative IPC: 0.2972 (Simulation time: 02 hr 19 min 27 sec)
Heartbeat CPU 0 instructions: 450000064 cycles: 1487576600 heartbeat IPC: 1.42 cumulative IPC: 0.3025 (Simulation time: 02 hr 20 min 30 sec)
[ERROR_CYCLE] Error added at CPU cycle 1494256726, interval 58, pending count: 1
[DRAM_CYCLE_ERROR] Cycle-based error applied! address=0xa2e7764d0 additional_latency=2459910500 cycles
Heartbeat CPU 0 instructions: 460000065 cycles: 1496404715 heartbeat IPC: 1.133 cumulative IPC: 0.3074 (Simulation time: 02 hr 21 min 41 sec)
Heartbeat CPU 0 instructions: 470000065 cycles: 1505212441 heartbeat IPC: 1.135 cumulative IPC: 0.3122 (Simulation time: 02 hr 22 min 33 sec)
Heartbeat CPU 0 instructions: 480000066 cycles: 1513478884 heartbeat IPC: 1.21 cumulative IPC: 0.3172 (Simulation time: 02 hr 23 min 45 sec)
[ERROR_CYCLE] Error added at CPU cycle 1520019774, interval 59, pending count: 1
[DRAM_CYCLE_ERROR] Cycle-based error applied! address=0xf7d6dae40 additional_latency=2459910500 cycles
Simulation CPU 0 warning: IPC 0.020574 < 0.05
Heartbeat CPU 0 instructions: 490000067 cycles: 1531087872 heartbeat IPC: 0.5679 cumulative IPC: 0.32 (Simulation time: 02 hr 25 min 40 sec)
Heartbeat CPU 0 instructions: 500000069 cycles: 1538610254 heartbeat IPC: 1.329 cumulative IPC: 0.325 (Simulation time: 02 hr 26 min 28 sec)
[ERROR_CYCLE] Error added at CPU cycle 1545782820, interval 60, pending count: 1
[DRAM_CYCLE_ERROR] Cycle-based error applied! address=0xf6121af60 additional_latency=2459910500 cycles
Heartbeat CPU 0 instructions: 510000070 cycles: 1555745107 heartbeat IPC: 0.5836 cumulative IPC: 0.3278 (Simulation time: 02 hr 27 min 55 sec)
Heartbeat CPU 0 instructions: 520000073 cycles: 1562873675 heartbeat IPC: 1.403 cumulative IPC: 0.3327 (Simulation time: 02 hr 28 min 51 sec)
[ERROR_CYCLE] Error added at CPU cycle 1571545867, interval 61, pending count: 1
[DRAM_CYCLE_ERROR] Cycle-based error applied! address=0x1959c50c10 additional_latency=2459910500 cycles
Simulation CPU 0 panic: IPC 0 < 0.01
Heartbeat CPU 0 instructions: 530000073 cycles: 1588956375 heartbeat IPC: 0.3834 cumulative IPC: 0.3336 (Simulation time: 02 hr 31 min 54 sec)
[ERROR_CYCLE] Error added at CPU cycle 1597308915, interval 62, pending count: 1
[DRAM_CYCLE_ERROR] Cycle-based error applied! address=0xc8f301098 additional_latency=2459910500 cycles
Simulation CPU 0 panic: IPC 0.0008144 < 0.01
Heartbeat CPU 0 instructions: 540000075 cycles: 1614902727 heartbeat IPC: 0.3854 cumulative IPC: 0.3344 (Simulation time: 02 hr 34 min 43 sec)
[ERROR_CYCLE] Error added at CPU cycle 1623071961, interval 63, pending count: 1
[DRAM_CYCLE_ERROR] Cycle-based error applied! address=0x103501258 additional_latency=2459910500 cycles
Simulation CPU 0 panic: IPC 0.0027352 < 0.01
Heartbeat CPU 0 instructions: 550000077 cycles: 1640717563 heartbeat IPC: 0.3874 cumulative IPC: 0.3352 (Simulation time: 02 hr 37 min 22 sec)
[ERROR_CYCLE] Error added at CPU cycle 1648835009, interval 64, pending count: 1
[DRAM_CYCLE_ERROR] Cycle-based error applied! address=0x1e09800848 additional_latency=2459910500 cycles
Simulation CPU 0 panic: IPC 0.0004733 < 0.01
[ERROR_CYCLE] Error added at CPU cycle 1674598055, interval 65, pending count: 1
[DRAM_CYCLE_ERROR] Cycle-based error applied! address=0x124da28bc0 additional_latency=2459910500 cycles
Heartbeat CPU 0 instructions: 560000080 cycles: 1694741646 heartbeat IPC: 0.1851 cumulative IPC: 0.3304 (Simulation time: 02 hr 41 min 59 sec)
[ERROR_CYCLE] Error added at CPU cycle 1700361102, interval 66, pending count: 1
[DRAM_CYCLE_ERROR] Cycle-based error applied! address=0x1959c56d18 additional_latency=2459910500 cycles
Simulation CPU 0 panic: IPC 0 < 0.01
[ERROR_CYCLE] Error added at CPU cycle 1726124150, interval 67, pending count: 1
[DRAM_CYCLE_ERROR] Cycle-based error applied! address=0x1914701308 additional_latency=2459910500 cycles
Simulation CPU 0 panic: IPC 0.0031279 < 0.01
Heartbeat CPU 0 instructions: 570000082 cycles: 1739444512 heartbeat IPC: 0.2237 cumulative IPC: 0.3277 (Simulation time: 02 hr 46 min 45 sec)
[ERROR_CYCLE] Error added at CPU cycle 1751887196, interval 68, pending count: 1
[DRAM_CYCLE_ERROR] Cycle-based error applied! address=0xb627012d8 additional_latency=2459910500 cycles
Simulation CPU 0 panic: IPC 0.0032571 < 0.01
Heartbeat CPU 0 instructions: 580000083 cycles: 1764952033 heartbeat IPC: 0.392 cumulative IPC: 0.3286 (Simulation time: 02 hr 48 min 45 sec)
[ERROR_CYCLE] Error added at CPU cycle 1777650243, interval 69, pending count: 1
[DRAM_CYCLE_ERROR] Cycle-based error applied! address=0x1dfd027f98 additional_latency=2459910500 cycles
Heartbeat CPU 0 instructions: 590000083 cycles: 1799631058 heartbeat IPC: 0.2884 cumulative IPC: 0.3278 (Simulation time: 02 hr 52 min 00 sec)
[ERROR_CYCLE] Error added at CPU cycle 1803413291, interval 70, pending count: 1
[DRAM_CYCLE_ERROR] Cycle-based error applied! address=0x1959c5bcc0 additional_latency=2459910500 cycles
[ERROR_CYCLE] Error added at CPU cycle 1829176337, interval 71, pending count: 1
[DRAM_CYCLE_ERROR] Cycle-based error applied! address=0xdc33012b8 additional_latency=2459910500 cycles
Simulation CPU 0 panic: IPC 0.0063351 < 0.01
Heartbeat CPU 0 instructions: 600000083 cycles: 1844044768 heartbeat IPC: 0.2252 cumulative IPC: 0.3254 (Simulation time: 02 hr 56 min 30 sec)
[ERROR_CYCLE] Error added at CPU cycle 1854939384, interval 72, pending count: 1
[DRAM_CYCLE_ERROR] Cycle-based error applied! address=0x124da4ed00 additional_latency=2459910500 cycles
Heartbeat CPU 0 instructions: 610000084 cycles: 1869355257 heartbeat IPC: 0.3951 cumulative IPC: 0.3263 (Simulation time: 02 hr 59 min 09 sec)
[ERROR_CYCLE] Error added at CPU cycle 1880702432, interval 73, pending count: 1
[DRAM_CYCLE_ERROR] Cycle-based error applied! address=0x124da574c0 additional_latency=2459910500 cycles
Heartbeat CPU 0 instructions: 620000088 cycles: 1903875023 heartbeat IPC: 0.2897 cumulative IPC: 0.3257 (Simulation time: 03 hr 02 min 26 sec)
[ERROR_CYCLE] Error added at CPU cycle 1906465478, interval 74, pending count: 1
[DRAM_CYCLE_ERROR] Cycle-based error applied! address=0x1959c60d60 additional_latency=2459910500 cycles
Simulation CPU 0 panic: IPC 0 < 0.01
[ERROR_CYCLE] Error added at CPU cycle 1932228526, interval 75, pending count: 1
[DRAM_CYCLE_ERROR] Cycle-based error applied! address=0x166b300002 additional_latency=2459910500 cycles
Simulation CPU 0 panic: IPC 0.0042995 < 0.01
Heartbeat CPU 0 instructions: 630000090 cycles: 1948161727 heartbeat IPC: 0.2258 cumulative IPC: 0.3234 (Simulation time: 03 hr 06 min 52 sec)
[ERROR_CYCLE] Error added at CPU cycle 1957991572, interval 76, pending count: 1
[DRAM_CYCLE_ERROR] Cycle-based error applied! address=0x6c3500ac8 additional_latency=2459910500 cycles
Simulation CPU 0 panic: IPC 0.0044034 < 0.01
Heartbeat CPU 0 instructions: 640000090 cycles: 1982503145 heartbeat IPC: 0.2912 cumulative IPC: 0.3228 (Simulation time: 03 hr 10 min 17 sec)
[ERROR_CYCLE] Error added at CPU cycle 1983754619, interval 77, pending count: 1
[DRAM_CYCLE_ERROR] Cycle-based error applied! address=0x108759ce40 additional_latency=2459910500 cycles
Simulation CPU 0 warning: IPC 0.038104 < 0.05
Heartbeat CPU 0 instructions: 650000090 cycles: 2007549241 heartbeat IPC: 0.3993 cumulative IPC: 0.3238 (Simulation time: 03 hr 13 min 03 sec)
[ERROR_CYCLE] Error added at CPU cycle 2009517667, interval 78, pending count: 1
[DRAM_CYCLE_ERROR] Cycle-based error applied! address=0x4a61180c0 additional_latency=2459910500 c