[VMEM] WARNING: physical memory size is smaller than virtual memory size.

*** ChampSim Multicore Out-of-Order Simulator ***
Warmup Instructions: 0
Simulation Instructions: 9223372036854775807
Number of CPUs: 1
Page size: 4096

Off-chip DRAM Size: 64 GiB Channels: 2 Width: 32-bit Data Rate: 4807 MT/s
[ERROR_PAGE_MANAGER] Error latency: 173500 
[ERROR_PAGE_MANAGER] Random seed: 54321 (fixed for preload reproducibility)
[ERROR_PAGE_MANAGER] Cycle-based error modeling enabled
[ERROR_PAGE_MANAGER] Errors per interval: 1
[ERROR_PAGE_MANAGER] Error cycle interval: 4648416149 cycles

=== ERROR PAGE STATISTICS ===
Mode: CYCLE
Error Cycle Interval: 4648416149 CPU cycles
Total Error Accesses: 0
==============================
Warmup finished CPU 0 instructions: 0 cycles: 1 cumulative IPC: 0 (Simulation time: 00 hr 00 min 01 sec)
Warmup complete CPU 0 instructions: 0 cycles: 1 cumulative IPC: 0 (Simulation time: 00 hr 00 min 01 sec)
Heartbeat CPU 0 instructions: 10000002 cycles: 5278447 heartbeat IPC: 1.894 cumulative IPC: 1.894 (Simulation time: 00 hr 01 min 05 sec)
Heartbeat CPU 0 instructions: 20000002 cycles: 10685910 heartbeat IPC: 1.849 cumulative IPC: 1.872 (Simulation time: 00 hr 02 min 11 sec)
Heartbeat CPU 0 instructions: 30000006 cycles: 16063120 heartbeat IPC: 1.86 cumulative IPC: 1.868 (Simulation time: 00 hr 03 min 16 sec)
Heartbeat CPU 0 instructions: 40000007 cycles: 21446213 heartbeat IPC: 1.858 cumulative IPC: 1.865 (Simulation time: 00 hr 04 min 21 sec)
Heartbeat CPU 0 instructions: 50000007 cycles: 26809429 heartbeat IPC: 1.865 cumulative IPC: 1.865 (Simulation time: 00 hr 05 min 26 sec)
Heartbeat CPU 0 instructions: 60000007 cycles: 34081372 heartbeat IPC: 1.375 cumulative IPC: 1.76 (Simulation time: 00 hr 06 min 45 sec)
Heartbeat CPU 0 instructions: 70000007 cycles: 41637030 heartbeat IPC: 1.324 cumulative IPC: 1.681 (Simulation time: 00 hr 08 min 06 sec)
Heartbeat CPU 0 instructions: 80000009 cycles: 49082579 heartbeat IPC: 1.343 cumulative IPC: 1.63 (Simulation time: 00 hr 09 min 05 sec)
Heartbeat CPU 0 instructions: 90000010 cycles: 56663328 heartbeat IPC: 1.319 cumulative IPC: 1.588 (Simulation time: 00 hr 10 min 15 sec)
Heartbeat CPU 0 instructions: 100000010 cycles: 64157709 heartbeat IPC: 1.334 cumulative IPC: 1.559 (Simulation time: 00 hr 11 min 11 sec)
Heartbeat CPU 0 instructions: 110000011 cycles: 71631591 heartbeat IPC: 1.338 cumulative IPC: 1.536 (Simulation time: 00 hr 12 min 04 sec)
Heartbeat CPU 0 instructions: 120000014 cycles: 79042644 heartbeat IPC: 1.349 cumulative IPC: 1.518 (Simulation time: 00 hr 13 min 20 sec)
Heartbeat CPU 0 instructions: 130000017 cycles: 86521115 heartbeat IPC: 1.337 cumulative IPC: 1.503 (Simulation time: 00 hr 14 min 22 sec)
Heartbeat CPU 0 instructions: 140000017 cycles: 94001133 heartbeat IPC: 1.337 cumulative IPC: 1.489 (Simulation time: 00 hr 15 min 35 sec)
Heartbeat CPU 0 instructions: 150000019 cycles: 101444944 heartbeat IPC: 1.343 cumulative IPC: 1.479 (Simulation time: 00 hr 16 min 40 sec)
Heartbeat CPU 0 instructions: 160000019 cycles: 108598501 heartbeat IPC: 1.398 cumulative IPC: 1.473 (Simulation time: 00 hr 17 min 53 sec)
Heartbeat CPU 0 instructions: 170000020 cycles: 115765671 heartbeat IPC: 1.395 cumulative IPC: 1.468 (Simulation time: 00 hr 18 min 51 sec)
Heartbeat CPU 0 instructions: 180000023 cycles: 122959126 heartbeat IPC: 1.39 cumulative IPC: 1.464 (Simulation time: 00 hr 20 min 00 sec)
Heartbeat CPU 0 instructions: 190000024 cycles: 130059716 heartbeat IPC: 1.408 cumulative IPC: 1.461 (Simulation time: 00 hr 21 min 18 sec)
Heartbeat CPU 0 instructions: 200000024 cycles: 137273141 heartbeat IPC: 1.386 cumulative IPC: 1.457 (Simulation time: 00 hr 22 min 28 sec)
Heartbeat CPU 0 instructions: 210000028 cycles: 144425662 heartbeat IPC: 1.398 cumulative IPC: 1.454 (Simulation time: 00 hr 23 min 30 sec)
Heartbeat CPU 0 instructions: 220000032 cycles: 151546337 heartbeat IPC: 1.404 cumulative IPC: 1.452 (Simulation time: 00 hr 24 min 47 sec)
Heartbeat CPU 0 instructions: 230000034 cycles: 158654242 heartbeat IPC: 1.407 cumulative IPC: 1.45 (Simulation time: 00 hr 26 min 03 sec)
Heartbeat CPU 0 instructions: 240000034 cycles: 165843814 heartbeat IPC: 1.391 cumulative IPC: 1.447 (Simulation time: 00 hr 27 min 03 sec)
Heartbeat CPU 0 instructions: 250000034 cycles: 173054361 heartbeat IPC: 1.387 cumulative IPC: 1.445 (Simulation time: 00 hr 28 min 02 sec)
Heartbeat CPU 0 instructions: 260000038 cycles: 180142991 heartbeat IPC: 1.411 cumulative IPC: 1.443 (Simulation time: 00 hr 29 min 03 sec)
Heartbeat CPU 0 instructions: 270000041 cycles: 187256230 heartbeat IPC: 1.406 cumulative IPC: 1.442 (Simulation time: 00 hr 30 min 08 sec)
Heartbeat CPU 0 instructions: 280000041 cycles: 194325784 heartbeat IPC: 1.415 cumulative IPC: 1.441 (Simulation time: 00 hr 31 min 24 sec)
Heartbeat CPU 0 instructions: 290000041 cycles: 201487476 heartbeat IPC: 1.396 cumulative IPC: 1.439 (Simulation time: 00 hr 32 min 41 sec)
Heartbeat CPU 0 instructions: 300000044 cycles: 208579269 heartbeat IPC: 1.41 cumulative IPC: 1.438 (Simulation time: 00 hr 33 min 58 sec)
Heartbeat CPU 0 instructions: 310000045 cycles: 215689432 heartbeat IPC: 1.406 cumulative IPC: 1.437 (Simulation time: 00 hr 35 min 16 sec)
Heartbeat CPU 0 instructions: 320000048 cycles: 222804866 heartbeat IPC: 1.405 cumulative IPC: 1.436 (Simulation time: 00 hr 36 min 33 sec)
Heartbeat CPU 0 instructions: 330000049 cycles: 229884478 heartbeat IPC: 1.413 cumulative IPC: 1.436 (Simulation time: 00 hr 37 min 51 sec)
Heartbeat CPU 0 instructions: 340000051 cycles: 237139369 heartbeat IPC: 1.378 cumulative IPC: 1.434 (Simulation time: 00 hr 39 min 09 sec)
Heartbeat CPU 0 instructions: 350000052 cycles: 244256230 heartbeat IPC: 1.405 cumulative IPC: 1.433 (Simulation time: 00 hr 40 min 18 sec)
Heartbeat CPU 0 instructions: 360000056 cycles: 251409421 heartbeat IPC: 1.398 cumulative IPC: 1.432 (Simulation time: 00 hr 41 min 14 sec)
Heartbeat CPU 0 instructions: 370000056 cycles: 258534904 heartbeat IPC: 1.403 cumulative IPC: 1.431 (Simulation time: 00 hr 42 min 16 sec)
Heartbeat CPU 0 instructions: 380000056 cycles: 265693405 heartbeat IPC: 1.397 cumulative IPC: 1.43 (Simulation time: 00 hr 43 min 07 sec)
Heartbeat CPU 0 instructions: 390000058 cycles: 272858832 heartbeat IPC: 1.396 cumulative IPC: 1.429 (Simulation time: 00 hr 44 min 04 sec)
Heartbeat CPU 0 instructions: 400000062 cycles: 280027016 heartbeat IPC: 1.395 cumulative IPC: 1.428 (Simulation time: 00 hr 44 min 59 sec)
Heartbeat CPU 0 instructions: 410000063 cycles: 287133090 heartbeat IPC: 1.407 cumulative IPC: 1.428 (Simulation time: 00 hr 45 min 56 sec)
Heartbeat CPU 0 instructions: 420000065 cycles: 294255667 heartbeat IPC: 1.404 cumulative IPC: 1.427 (Simulation time: 00 hr 47 min 12 sec)
Heartbeat CPU 0 instructions: 430000066 cycles: 301457861 heartbeat IPC: 1.388 cumulative IPC: 1.426 (Simulation time: 00 hr 48 min 29 sec)
Heartbeat CPU 0 instructions: 440000068 cycles: 308682122 heartbeat IPC: 1.384 cumulative IPC: 1.425 (Simulation time: 00 hr 49 min 46 sec)
Heartbeat CPU 0 instructions: 450000070 cycles: 315813355 heartbeat IPC: 1.402 cumulative IPC: 1.425 (Simulation time: 00 hr 51 min 02 sec)
Heartbeat CPU 0 instructions: 460000072 cycles: 322953330 heartbeat IPC: 1.401 cumulative IPC: 1.424 (Simulation time: 00 hr 52 min 18 sec)
Heartbeat CPU 0 instructions: 470000073 cycles: 330073826 heartbeat IPC: 1.404 cumulative IPC: 1.424 (Simulation time: 00 hr 53 min 36 sec)
Heartbeat CPU 0 instructions: 480000074 cycles: 337196218 heartbeat IPC: 1.404 cumulative IPC: 1.424 (Simulation time: 00 hr 54 min 40 sec)
Heartbeat CPU 0 instructions: 490000075 cycles: 344264600 heartbeat IPC: 1.415 cumulative IPC: 1.423 (Simulation time: 00 hr 55 min 58 sec)
Heartbeat CPU 0 instructions: 500000076 cycles: 351380848 heartbeat IPC: 1.405 cumulative IPC: 1.423 (Simulation time: 00 hr 57 min 15 sec)
Heartbeat CPU 0 instructions: 510000078 cycles: 358532039 heartbeat IPC: 1.398 cumulative IPC: 1.422 (Simulation time: 00 hr 58 min 33 sec)
Heartbeat CPU 0 instructions: 520000078 cycles: 365748269 heartbeat IPC: 1.386 cumulative IPC: 1.422 (Simulation time: 00 hr 59 min 52 sec)
Heartbeat CPU 0 instructions: 530000079 cycles: 372891745 heartbeat IPC: 1.4 cumulative IPC: 1.421 (Simulation time: 01 hr 01 min 11 sec)
Heartbeat CPU 0 instructions: 540000082 cycles: 379960116 heartbeat IPC: 1.415 cumulative IPC: 1.421 (Simulation time: 01 hr 02 min 28 sec)
Heartbeat CPU 0 instructions: 550000085 cycles: 387041239 heartbeat IPC: 1.412 cumulative IPC: 1.421 (Simulation time: 01 hr 03 min 43 sec)
Heartbeat CPU 0 instructions: 560000085 cycles: 394212236 heartbeat IPC: 1.395 cumulative IPC: 1.421 (Simulation time: 01 hr 04 min 59 sec)
Heartbeat CPU 0 instructions: 570000085 cycles: 401382503 heartbeat IPC: 1.395 cumulative IPC: 1.42 (Simulation time: 01 hr 06 min 18 sec)
Heartbeat CPU 0 instructions: 580000087 cycles: 408560551 heartbeat IPC: 1.393 cumulative IPC: 1.42 (Simulation time: 01 hr 07 min 38 sec)
Heartbeat CPU 0 instructions: 590000088 cycles: 415706747 heartbeat IPC: 1.399 cumulative IPC: 1.419 (Simulation time: 01 hr 08 min 57 sec)
Heartbeat CPU 0 instructions: 600000088 cycles: 422831268 heartbeat IPC: 1.404 cumulative IPC: 1.419 (Simulation time: 01 hr 10 min 15 sec)
Heartbeat CPU 0 instructions: 610000091 cycles: 429949665 heartbeat IPC: 1.405 cumulative IPC: 1.419 (Simulation time: 01 hr 11 min 34 sec)
Heartbeat CPU 0 instructions: 620000094 cycles: 437124846 heartbeat IPC: 1.394 cumulative IPC: 1.418 (Simulation time: 01 hr 12 min 53 sec)
Heartbeat CPU 0 instructions: 630000096 cycles: 444275613 heartbeat IPC: 1.398 cumulative IPC: 1.418 (Simulation time: 01 hr 14 min 11 sec)
Heartbeat CPU 0 instructions: 640000100 cycles: 451427815 heartbeat IPC: 1.398 cumulative IPC: 1.418 (Simulation time: 01 hr 15 min 30 sec)
Heartbeat CPU 0 instructions: 650000104 cycles: 458570403 heartbeat IPC: 1.4 cumulative IPC: 1.417 (Simulation time: 01 hr 16 min 48 sec)
Heartbeat CPU 0 instructions: 660000105 cycles: 465728555 heartbeat IPC: 1.397 cumulative IPC: 1.417 (Simulation time: 01 hr 17 min 50 sec)
Heartbeat CPU 0 instructions: 670000107 cycles: 472859254 heartbeat IPC: 1.402 cumulative IPC: 1.417 (Simulation time: 01 hr 18 min 43 sec)
Heartbeat CPU 0 instructions: 680000109 cycles: 479958589 heartbeat IPC: 1.409 cumulative IPC: 1.417 (Simulation time: 01 hr 19 min 40 sec)
Heartbeat CPU 0 instructions: 690000113 cycles: 487075529 heartbeat IPC: 1.405 cumulative IPC: 1.417 (Simulation time: 01 hr 20 min 32 sec)
Heartbeat CPU 0 instructions: 700000113 cycles: 494206442 heartbeat IPC: 1.402 cumulative IPC: 1.416 (Simulation time: 01 hr 21 min 49 sec)
Heartbeat CPU 0 instructions: 710000117 cycles: 501429761 heartbeat IPC: 1.384 cumulative IPC: 1.416 (Simulation time: 01 hr 23 min 07 sec)
Heartbeat CPU 0 instructions: 720000119 cycles: 508557694 heartbeat IPC: 1.403 cumulative IPC: 1.416 (Simulation time: 01 hr 24 min 25 sec)
Heartbeat CPU 0 instructions: 730000121 cycles: 515683806 heartbeat IPC: 1.403 cumulative IPC: 1.416 (Simulation time: 01 hr 25 min 39 sec)
Heartbeat CPU 0 instructions: 740000122 cycles: 522898783 heartbeat IPC: 1.386 cumulative IPC: 1.415 (Simulation time: 01 hr 26 min 45 sec)
Heartbeat CPU 0 instructions: 750000124 cycles: 530007805 heartbeat IPC: 1.407 cumulative IPC: 1.415 (Simulation time: 01 hr 27 min 58 sec)
Heartbeat CPU 0 instructions: 760000127 cycles: 537140833 heartbeat IPC: 1.402 cumulative IPC: 1.415 (Simulation time: 01 hr 28 min 55 sec)
Heartbeat CPU 0 instructions: 770000129 cycles: 544291102 heartbeat IPC: 1.399 cumulative IPC: 1.415 (Simulation time: 01 hr 29 min 51 sec)
Heartbeat CPU 0 instructions: 780000129 cycles: 551405312 heartbeat IPC: 1.406 cumulative IPC: 1.415 (Simulation time: 01 hr 30 min 57 sec)
Heartbeat CPU 0 instructions: 790000131 cycles: 558521346 heartbeat IPC: 1.405 cumulative IPC: 1.414 (Simulation time: 01 hr 32 min 15 sec)
Heartbeat CPU 0 instructions: 800000131 cycles: 565772398 heartbeat IPC: 1.379 cumulative IPC: 1.414 (Simulation time: 01 hr 33 min 33 sec)
Heartbeat CPU 0 instructions: 810000133 cycles: 572846520 heartbeat IPC: 1.414 cumulative IPC: 1.414 (Simulation time: 01 hr 34 min 51 sec)
Heartbeat CPU 0 instructions: 820000133 cycles: 579963891 heartbeat IPC: 1.405 cumulative IPC: 1.414 (Simulation time: 01 hr 36 min 09 sec)
Heartbeat CPU 0 instructions: 830000134 cycles: 587128961 heartbeat IPC: 1.396 cumulative IPC: 1.414 (Simulation time: 01 hr 37 min 16 sec)
Heartbeat CPU 0 instructions: 840000134 cycles: 594263750 heartbeat IPC: 1.402 cumulative IPC: 1.414 (Simulation time: 01 hr 38 min 30 sec)
Heartbeat CPU 0 instructions: 850000134 cycles: 601397670 heartbeat IPC: 1.402 cumulative IPC: 1.413 (Simulation time: 01 hr 39 min 49 sec)
Heartbeat CPU 0 instructions: 860000138 cycles: 608514917 heartbeat IPC: 1.405 cumulative IPC: 1.413 (Simulation time: 01 hr 41 min 06 sec)
Heartbeat CPU 0 instructions: 870000140 cycles: 615640748 heartbeat IPC: 1.403 cumulative IPC: 1.413 (Simulation time: 01 hr 42 min 15 sec)
Heartbeat CPU 0 instructions: 880000140 cycles: 622732132 heartbeat IPC: 1.41 cumulative IPC: 1.413 (Simulation time: 01 hr 43 min 17 sec)
Heartbeat CPU 0 instructions: 890000143 cycles: 629849759 heartbeat IPC: 1.405 cumulative IPC: 1.413 (Simulation time: 01 hr 44 min 13 sec)
Heartbeat CPU 0 instructions: 900000143 cycles: 637090270 heartbeat IPC: 1.381 cumulative IPC: 1.413 (Simulation time: 01 hr 45 min 33 sec)
Heartbeat CPU 0 instructions: 910000143 cycles: 644207098 heartbeat IPC: 1.405 cumulative IPC: 1.413 (Simulation time: 01 hr 46 min 51 sec)
Heartbeat CPU 0 instructions: 920000146 cycles: 651318490 heartbeat IPC: 1.406 cumulative IPC: 1.413 (Simulation time: 01 hr 48 min 08 sec)
Heartbeat CPU 0 instructions: 930000148 cycles: 658468960 heartbeat IPC: 1.399 cumulative IPC: 1.412 (Simulation time: 01 hr 49 min 25 sec)
Heartbeat CPU 0 instructions: 940000150 cycles: 665604981 heartbeat IPC: 1.401 cumulative IPC: 1.412 (Simulation time: 01 hr 50 min 42 sec)
Heartbeat CPU 0 instructions: 950000152 cycles: 672706892 heartbeat IPC: 1.408 cumulative IPC: 1.412 (Simulation time: 01 hr 51 min 56 sec)
Heartbeat CPU 0 instructions: 960000154 cycles: 679852240 heartbeat IPC: 1.4 cumulative IPC: 1.412 (Simulation time: 01 hr 52 min 59 sec)
Heartbeat CPU 0 instructions: 970000157 cycles: 686973329 heartbeat IPC: 1.404 cumulative IPC: 1.412 (Simulation time: 01 hr 54 min 18 sec)
Heartbeat CPU 0 instructions: 980000159 cycles: 694081444 heartbeat IPC: 1.407 cumulative IPC: 1.412 (Simulation time: 01 hr 55 min 37 sec)
Heartbeat CPU 0 instructions: 990000163 cycles: 701324744 heartbeat IPC: 1.381 cumulative IPC: 1.412 (Simulation time: 01 hr 56 min 57 sec)
Heartbeat CPU 0 instructions: 1000000165 cycles: 708456074 heartbeat IPC: 1.402 cumulative IPC: 1.412 (Simulation time: 01 hr 58 min 16 sec)
Heartbeat CPU 0 instructions: 1010000167 cycles: 715571312 heartbeat IPC: 1.405 cumulative IPC: 1.411 (Simulation time: 01 hr 59 min 35 sec)
Heartbeat CPU 0 instructions: 1020000167 cycles: 722685074 heartbeat IPC: 1.406 cumulative IPC: 1.411 (Simulation time: 02 hr 00 min 53 sec)
Heartbeat CPU 0 instructions: 1030000169 cycles: 729828496 heartbeat IPC: 1.4 cumulative IPC: 1.411 (Simulation time: 02 hr 02 min 12 sec)
Heartbeat CPU 0 instructions: 1040000170 cycles: 736920697 heartbeat IPC: 1.41 cumulative IPC: 1.411 (Simulation time: 02 hr 03 min 30 sec)
Heartbeat CPU 0 instructions: 1050000170 cycles: 744029183 heartbeat IPC: 1.407 cumulative IPC: 1.411 (Simulation time: 02 hr 04 min 49 sec)
Heartbeat CPU 0 instructions: 1060000172 cycles: 751138378 heartbeat IPC: 1.407 cumulative IPC: 1.411 (Simulation time: 02 hr 06 min 08 sec)
Heartbeat CPU 0 instructions: 1070000172 cycles: 758289160 heartbeat IPC: 1.398 cumulative IPC: 1.411 (Simulation time: 02 hr 07 min 28 sec)
Heartbeat CPU 0 instructions: 1080000174 cycles: 765502347 heartbeat IPC: 1.386 cumulative IPC: 1.411 (Simulation time: 02 hr 08 min 48 sec)
Heartbeat CPU 0 instructions: 1090000174 cycles: 772628986 heartbeat IPC: 1.403 cumulative IPC: 1.411 (Simulation time: 02 hr 10 min 06 sec)
Heartbeat CPU 0 instructions: 1100000174 cycles: 779701286 heartbeat IPC: 1.414 cumulative IPC: 1.411 (Simulation time: 02 hr 11 min 25 sec)
Heartbeat CPU 0 instructions: 1110000176 cycles: 786842581 heartbeat IPC: 1.4 cumulative IPC: 1.411 (Simulation time: 02 hr 12 min 44 sec)
Heartbeat CPU 0 instructions: 1120000177 cycles: 793957602 heartbeat IPC: 1.405 cumulative IPC: 1.411 (Simulation time: 02 hr 14 min 02 sec)
Heartbeat CPU 0 instructions: 1130000180 cycles: 801058607 heartbeat IPC: 1.408 cumulative IPC: 1.411 (Simulation time: 02 hr 15 min 21 sec)
Heartbeat CPU 0 instructions: 1140000180 cycles: 808164748 heartbeat IPC: 1.407 cumulative IPC: 1.411 (Simulation time: 02 hr 16 min 40 sec)
Heartbeat CPU 0 instructions: 1150000180 cycles: 815281793 heartbeat IPC: 1.405 cumulative IPC: 1.411 (Simulation time: 02 hr 17 min 57 sec)
Heartbeat CPU 0 instructions: 1160000180 cycles: 822434482 heartbeat IPC: 1.398 cumulative IPC: 1.41 (Simulation time: 02 hr 19 min 13 sec)
Heartbeat CPU 0 instructions: 1170000180 cycles: 829616040 heartbeat IPC: 1.392 cumulative IPC: 1.41 (Simulation time: 02 hr 20 min 25 sec)
Heartbeat CPU 0 instructions: 1180000184 cycles: 836857297 heartbeat IPC: 1.381 cumulative IPC: 1.41 (Simulation time: 02 hr 21 min 22 sec)
Heartbeat CPU 0 instructions: 1190000184 cycles: 844013659 heartbeat IPC: 1.397 cumulative IPC: 1.41 (Simulation time: 02 hr 22 min 25 sec)
Heartbeat CPU 0 instructions: 1200000188 cycles: 851077657 heartbeat IPC: 1.416 cumulative IPC: 1.41 (Simulation time: 02 hr 23 min 37 sec)
Heartbeat CPU 0 instructions: 1210000190 cycles: 858215008 heartbeat IPC: 1.401 cumulative IPC: 1.41 (Simulation time: 02 hr 24 min 53 sec)
Heartbeat CPU 0 instructions: 1220000192 cycles: 865341254 heartbeat IPC: 1.403 cumulative IPC: 1.41 (Simulation time: 02 hr 26 min 09 sec)
Heartbeat CPU 0 instructions: 1230000192 cycles: 872485739 heartbeat IPC: 1.4 cumulative IPC: 1.41 (Simulation time: 02 hr 27 min 26 sec)
Heartbeat CPU 0 instructions: 1240000192 cycles: 879607899 heartbeat IPC: 1.404 cumulative IPC: 1.41 (Simulation time: 02 hr 28 min 41 sec)
Heartbeat CPU 0 instructions: 1250000193 cycles: 886736629 heartbeat IPC: 1.403 cumulative IPC: 1.41 (Simulation time: 02 hr 29 min 57 sec)
Heartbeat CPU 0 instructions: 1260000194 cycles: 893847641 heartbeat IPC: 1.406 cumulative IPC: 1.41 (Simulation time: 02 hr 31 min 16 sec)
Heartbeat CPU 0 instructions: 1270000195 cycles: 901073330 heartbeat IPC: 1.384 cumulative IPC: 1.409 (Simulation time: 02 hr 32 min 35 sec)
Heartbeat CPU 0 instructions: 1280000197 cycles: 908220064 heartbeat IPC: 1.399 cumulative IPC: 1.409 (Simulation time: 02 hr 33 min 53 sec)
Heartbeat CPU 0 instructions: 1290000197 cycles: 915338801 heartbeat IPC: 1.405 cumulative IPC: 1.409 (Simulation time: 02 hr 34 min 51 sec)
Heartbeat CPU 0 instructions: 1300000200 cycles: 922475070 heartbeat IPC: 1.401 cumulative IPC: 1.409 (Simulation time: 02 hr 35 min 56 sec)
Heartbeat CPU 0 instructions: 1310000200 cycles: 929613214 heartbeat IPC: 1.401 cumulative IPC: 1.409 (Simulation time: 02 hr 37 min 14 sec)
Heartbeat CPU 0 instructions: 1320000200 cycles: 936680353 heartbeat IPC: 1.415 cumulative IPC: 1.409 (Simulation time: 02 hr 38 min 29 sec)
Heartbeat CPU 0 instructions: 1330000200 cycles: 943808542 heartbeat IPC: 1.403 cumulative IPC: 1.409 (Simulation time: 02 hr 39 min 21 sec)
Heartbeat CPU 0 instructions: 1340000204 cycles: 950912357 heartbeat IPC: 1.408 cumulative IPC: 1.409 (Simulation time: 02 hr 40 min 21 sec)
Heartbeat CPU 0 instructions: 1350000204 cycles: 958054684 heartbeat IPC: 1.4 cumulative IPC: 1.409 (Simulation time: 02 hr 41 min 21 sec)
Heartbeat CPU 0 instructions: 1360000206 cycles: 965296207 heartbeat IPC: 1.381 cumulative IPC: 1.409 (Simulation time: 02 hr 42 min 38 sec)
Heartbeat CPU 0 instructions: 1370000208 cycles: 972397668 heartbeat IPC: 1.408 cumulative IPC: 1.409 (Simulation time: 02 hr 43 min 37 sec)
Heartbeat CPU 0 instructions: 1380000210 cycles: 979549941 heartbeat IPC: 1.398 cumulative IPC: 1.409 (Simulation time: 02 hr 44 min 34 sec)
Heartbeat CPU 0 instructions: 1390000211 cycles: 986678469 heartbeat IPC: 1.403 cumulative IPC: 1.409 (Simulation time: 02 hr 45 min 51 sec)
Heartbeat CPU 0 instructions: 1400000211 cycles: 993818464 heartbeat IPC: 1.401 cumulative IPC: 1.409 (Simulation time: 02 hr 47 min 06 sec)
Heartbeat CPU 0 instructions: 1410000213 cycles: 1000858661 heartbeat IPC: 1.42 cumulative IPC: 1.409 (Simulation time: 02 hr 48 min 24 sec)
Heartbeat CPU 0 instructions: 1420000215 cycles: 1007958853 heartbeat IPC: 1.408 cumulative IPC: 1.409 (Simulation time: 02 hr 49 min 42 sec)
Heartbeat CPU 0 instructions: 1430000218 cycles: 1015067920 heartbeat IPC: 1.407 cumulative IPC: 1.409 (Simulation time: 02 hr 51 min 01 sec)
Heartbeat CPU 0 instructions: 1440000218 cycles: 1022170868 heartbeat IPC: 1.408 cumulative IPC: 1.409 (Simulation time: 02 hr 52 min 20 sec)
Heartbeat CPU 0 instructions: 1450000222 cycles: 1029299241 heartbeat IPC: 1.403 cumulative IPC: 1.409 (Simulation time: 02 hr 53 min 39 sec)
Heartbeat CPU 0 instructions: 1460000222 cycles: 1036517684 heartbeat IPC: 1.385 cumulative IPC: 1.409 (Simulation time: 02 hr 54 min 59 sec)
Heartbeat CPU 0 instructions: 1470000222 cycles: 1043617834 heartbeat IPC: 1.408 cumulative IPC: 1.409 (Simulation time: 02 hr 56 min 17 sec)
Heartbeat CPU 0 instructions: 1480000224 cycles: 1050733013 heartbeat IPC: 1.405 cumulative IPC: 1.409 (Simulation time: 02 hr 57 min 33 sec)
Heartbeat CPU 0 instructions: 1490000225 cycles: 1057904978 heartbeat IPC: 1.394 cumulative IPC: 1.408 (Simulation time: 02 hr 58 min 44 sec)
Heartbeat CPU 0 instructions: 1500000225 cycles: 1064973439 heartbeat IPC: 1.415 cumulative IPC: 1.408 (Simulation time: 03 hr 00 min 02 sec)
Heartbeat CPU 0 instructions: 1510000226 cycles: 1072096432 heartbeat IPC: 1.404 cumulative IPC: 1.408 (Simulation time: 03 hr 01 min 18 sec)
Heartbeat CPU 0 instructions: 1520000228 cycles: 1079226538 heartbeat IPC: 1.403 cumulative IPC: 1.408 (Simulation time: 03 hr 02 min 38 sec)
Heartbeat CPU 0 instructions: 1530000228 cycles: 1086344887 heartbeat IPC: 1.405 cumulative IPC: 1.408 (Simulation time: 03 hr 03 min 56 sec)
Heartbeat CPU 0 instructions: 1540000231 cycles: 1093539032 heartbeat IPC: 1.39 cumulative IPC: 1.408 (Simulation time: 03 hr 05 min 09 sec)
Heartbeat CPU 0 instructions: 1550000234 cycles: 1100754847 heartbeat IPC: 1.386 cumulative IPC: 1.408 (Simulation time: 03 hr 06 min 18 sec)
Heartbeat CPU 0 instructions: 1560000235 cycles: 1107850387 heartbeat IPC: 1.409 cumulative IPC: 1.408 (Simulation time: 03 hr 07 min 37 sec)
Heartbeat CPU 0 instructions: 1570000235 cycles: 1114961668 heartbeat IPC: 1.406 cumulative IPC: 1.408 (Simulation time: 03 hr 08 min 54 sec)
Heartbeat CPU 0 instructions: 1580000236 cycles: 1122071874 heartbeat IPC: 1.406 cumulative IPC: 1.408 (Simulation time: 03 hr 10 min 07 sec)
Heartbeat CPU 0 instructions: 1590000238 cycles: 1129182948 heartbeat IPC: 1.406 cumulative IPC: 1.408 (Simulation time: 03 hr 10 min 58 sec)
Heartbeat CPU 0 instructions: 1600000239 cycles: 1136293405 heartbeat IPC: 1.406 cumulative IPC: 1.408 (Simulation time: 03 hr 11 min 53 sec)
Heartbeat CPU 0 instructions: 1610000239 cycles: 1143445975 heartbeat IPC: 1.398 cumulative IPC: 1.408 (Simulation time: 03 hr 12 min 54 sec)
Heartbeat CPU 0 instructions: 1620000241 cycles: 1150569960 heartbeat IPC: 1.404 cumulative IPC: 1.408 (Simulation time: 03 hr 14 min 12 sec)
Heartbeat CPU 0 instructions: 1630000241 cycles: 1157715761 heartbeat IPC: 1.399 cumulative IPC: 1.408 (Simulation time: 03 hr 15 min 30 sec)
Heartbeat CPU 0 instructions: 1640000243 cycles: 1164958784 heartbeat IPC: 1.381 cumulative IPC: 1.408 (Simulation time: 03 hr 16 min 48 sec)
Heartbeat CPU 0 instructions: 1650000244 cycles: 1172131487 heartbeat IPC: 1.394 cumulative IPC: 1.408 (Simulation time: 03 hr 18 min 06 sec)
Heartbeat CPU 0 instructions: 1660000244 cycles: 1179206874 heartbeat IPC: 1.413 cumulative IPC: 1.408 (Simulation time: 03 hr 19 min 23 sec)
Heartbeat CPU 0 instructions: 1670000246 cycles: 1186329084 heartbeat IPC: 1.404 cumulative IPC: 1.408 (Simulation time: 03 hr 20 min 39 sec)
Heartbeat CPU 0 instructions: 1680000248 cycles: 1193477589 heartbeat IPC: 1.399 cumulative IPC: 1.408 (Simulation time: 03 hr 21 min 47 sec)
Heartbeat CPU 0 instructions: 1690000252 cycles: 1200573913 heartbeat IPC: 1.409 cumulative IPC: 1.408 (Simulation time: 03 hr 22 min 49 sec)
Heartbeat CPU 0 instructions: 1700000255 cycles: 1207704259 heartbeat IPC: 1.402 cumulative IPC: 1.408 (Simulation time: 03 hr 23 min 51 sec)
Heartbeat CPU 0 instructions: 1710000258 cycles: 1214809071 heartbeat IPC: 1.407 cumulative IPC: 1.408 (Simulation time: 03 hr 24 min 45 sec)
Heartbeat CPU 0 instructions: 1720000261 cycles: 1221975413 heartbeat IPC: 1.395 cumulative IPC: 1.408 (Simulation time: 03 hr 25 min 41 sec)
Heartbeat CPU 0 instructions: 1730000263 cycles: 1229148296 heartbeat IPC: 1.394 cumulative IPC: 1.407 (Simulation time: 03 hr 26 min 43 sec)
Heartbeat CPU 0 instructions: 1740000266 cycles: 1236335941 heartbeat IPC: 1.391 cumulative IPC: 1.407 (Simulation time: 03 hr 27 min 37 sec)
Heartbeat CPU 0 instructions: 1750000266 cycles: 1243399356 heartbeat IPC: 1.416 cumulative IPC: 1.407 (Simulation time: 03 hr 28 min 48 sec)
Heartbeat CPU 0 instructions: 1760000266 cycles: 1250523257 heartbeat IPC: 1.404 cumulative IPC: 1.407 (Simulation time: 03 hr 30 min 01 sec)
Heartbeat CPU 0 instructions: 1770000270 cycles: 1257624354 heartbeat IPC: 1.408 cumulative IPC: 1.407 (Simulation time: 03 hr 31 min 05 sec)
Heartbeat CPU 0 instructions: 1780000273 cycles: 1264764185 heartbeat IPC: 1.401 cumulative IPC: 1.407 (Simulation time: 03 hr 32 min 22 sec)
Heartbeat CPU 0 instructions: 1790000275 cycles: 1271876411 heartbeat IPC: 1.406 cumulative IPC: 1.407 (Simulation time: 03 hr 33 min 27 sec)
Heartbeat CPU 0 instructions: 1800000275 cycles: 1279005696 heartbeat IPC: 1.403 cumulative IPC: 1.407 (Simulation time: 03 hr 34 min 29 sec)
Heartbeat CPU 0 instructions: 1810000275 cycles: 1286112263 heartbeat IPC: 1.407 cumulative IPC: 1.407 (Simulation time: 03 hr 35 min 43 sec)
Heartbeat CPU 0 instructions: 1820000276 cycles: 1293216314 heartbeat IPC: 1.408 cumulative IPC: 1.407 (Simulation time: 03 hr 36 min 35 sec)
Heartbeat CPU 0 instructions: 1830000277 cycles: 1300451736 heartbeat IPC: 1.382 cumulative IPC: 1.407 (Simulation time: 03 hr 37 min 33 sec)
Heartbeat CPU 0 instructions: 1840000278 cycles: 1307528375 heartbeat IPC: 1.413 cumulative IPC: 1.407 (Simulation time: 03 hr 38 min 25 sec)
Heartbeat CPU 0 instructions: 1850000281 cycles: 1314702479 heartbeat IPC: 1.394 cumulative IPC: 1.407 (Simulation time: 03 hr 39 min 16 sec)
Heartbeat CPU 0 instructions: 1860000284 cycles: 1321843542 heartbeat IPC: 1.4 cumulative IPC: 1.407 (Simulation time: 03 hr 40 min 27 sec)
Heartbeat CPU 0 instructions: 1870000287 cycles: 1328975208 heartbeat IPC: 1.402 cumulative IPC: 1.407 (Simulation time: 03 hr 41 min 44 sec)
Heartbeat CPU 0 instructions: 1880000289 cycles: 1336030094 heartbeat IPC: 1.417 cumulative IPC: 1.407 (Simulation time: 03 hr 42 min 58 sec)
Heartbeat CPU 0 instructions: 1890000291 cycles: 1343133591 heartbeat IPC: 1.408 cumulative IPC: 1.407 (Simulation time: 03 hr 44 min 16 sec)
Heartbeat CPU 0 instructions: 1900000291 cycles: 1350273897 heartbeat IPC: 1.401 cumulative IPC: 1.407 (Simulation time: 03 hr 45 min 35 sec)
Heartbeat CPU 0 instructions: 1910000295 cycles: 1357404996 heartbeat IPC: 1.402 cumulative IPC: 1.407 (Simulation time: 03 hr 46 min 54 sec)
Heartbeat CPU 0 instructions: 1920000295 cycles: 1364582890 heartbeat IPC: 1.393 cumulative IPC: 1.407 (Simulation time: 03 hr 48 min 13 sec)
Heartbeat CPU 0 instructions: 1930000297 cycles: 1371684688 heartbeat IPC: 1.408 cumulative IPC: 1.407 (Simulation time: 03 hr 49 min 31 sec)
Heartbeat CPU 0 instructions: 1940000300 cycles: 1378784096 heartbeat IPC: 1.409 cumulative IPC: 1.407 (Simulation time: 03 hr 50 min 50 sec)
Heartbeat CPU 0 instructions: 1950000303 cycles: 1385922945 heartbeat IPC: 1.401 cumulative IPC: 1.407 (Simulation time: 03 hr 52 min 09 sec)
Heartbeat CPU 0 instructions: 1960000304 cycles: 1393063227 heartbeat IPC: 1.401 cumulative IPC: 1.407 (Simulation time: 03 hr 53 min 27 sec)
Heartbeat CPU 0 instructions: 1970000308 cycles: 1400185540 heartbeat IPC: 1.404 cumulative IPC: 1.407 (Simulation time: 03 hr 54 min 45 sec)
Heartbeat CPU 0 instructions: 1980000310 cycles: 1407289946 heartbeat IPC: 1.408 cumulative IPC: 1.407 (Simulation time: 03 hr 56 min 02 sec)
Heartbeat CPU 0 instructions: 1990000310 cycles: 1414406197 heartbeat IPC: 1.405 cumulative IPC: 1.407 (Simulation time: 03 hr 57 min 20 sec)

=== ERROR PAGE STATISTICS ===
Mode: CYCLE
Error Cycle Interval: 4648416149 CPU cycles
Total Error Accesses: 0
==============================
Simulation finished CPU 0 instructions: 1999999507 cycles: 1421510436 cumulative IPC: 1.407 (Simulation time: 03 hr 58 min 37 sec)
Simulation complete CPU 0 instructions: 1999999507 cycles: 1421510436 cumulative IPC: 1.407 (Simulation time: 03 hr 58 min 37 sec)

ChampSim completed all CPUs

=== Simulation ===
CPU 0 runs test_traces/607.cactuBSSN_s-2421B.champsimtrace.xz

Region of Interest Statistics

CPU 0 cumulative IPC: 1.407 instructions: 1999999507 cycles: 1421510436
CPU 0 Branch Prediction Accuracy: 98.41% MPKI: 0.0223 Average ROB Occupancy at Mispredict: 325.8
Branch type MPKI
BRANCH_DIRECT_JUMP: 3.4e-05
BRANCH_INDIRECT: 4.45e-05
BRANCH_CONDITIONAL: 0.0122
BRANCH_DIRECT_CALL: 0.000332
BRANCH_INDIRECT_CALL: 1.5e-06
BRANCH_RETURN: 0.009687

cpu0->cpu0_STLB TOTAL        ACCESS:  148903370 HIT:  148663318 MISS:     240052 MSHR_MERGE:          0
cpu0->cpu0_STLB LOAD         ACCESS:  148903370 HIT:  148663318 MISS:     240052 MSHR_MERGE:          0
cpu0->cpu0_STLB RFO          ACCESS:          0 HIT:          0 MISS:          0 MSHR_MERGE:          0
cpu0->cpu0_STLB PREFETCH     ACCESS:          0 HIT:          0 MISS:          0 MSHR_MERGE:          0
cpu0->cpu0_STLB WRITE        ACCESS:          0 HIT:          0 MISS:          0 MSHR_MERGE:          0
cpu0->cpu0_STLB TRANSLATION  ACCESS:          0 HIT:          0 MISS:          0 MSHR_MERGE:          0
cpu0->cpu0_STLB PREFETCH REQUESTED:          0 ISSUED:          0 USEFUL:          0 USELESS:          0
cpu0->cpu0_STLB AVERAGE MISS LATENCY: 363.2 cycles
cpu0->cpu0_L2C TOTAL        ACCESS:  251276995 HIT:  226256092 MISS:   25020903 MSHR_MERGE:          0
cpu0->cpu0_L2C LOAD         ACCESS:  217197386 HIT:  193038360 MISS:   24159026 MSHR_MERGE:          0
cpu0->cpu0_L2C RFO          ACCESS:   16162415 HIT:   15300607 MISS:     861808 MSHR_MERGE:          0
cpu0->cpu0_L2C PREFETCH     ACCESS:          0 HIT:          0 MISS:          0 MSHR_MERGE:          0
cpu0->cpu0_L2C WRITE        ACCESS:   17917194 HIT:   17917125 MISS:         69 MSHR_MERGE:          0
cpu0->cpu0_L2C TRANSLATION  ACCESS:          0 HIT:          0 MISS:          0 MSHR_MERGE:          0
cpu0->cpu0_L2C PREFETCH REQUESTED:          0 ISSUED:          0 USEFUL:          0 USELESS:          0
cpu0->cpu0_L2C AVERAGE MISS LATENCY: 82.85 cycles
cpu0->cpu0_L1I TOTAL        ACCESS:  406810267 HIT:  404163192 MISS:    2647075 MSHR_MERGE:    1296932
cpu0->cpu0_L1I LOAD         ACCESS:  406810267 HIT:  404163192 MISS:    2647075 MSHR_MERGE:    1296932
cpu0->cpu0_L1I RFO          ACCESS:          0 HIT:          0 MISS:          0 MSHR_MERGE:          0
cpu0->cpu0_L1I PREFETCH     ACCESS:          0 HIT:          0 MISS:          0 MSHR_MERGE:          0
cpu0->cpu0_L1I WRITE        ACCESS:          0 HIT:          0 MISS:          0 MSHR_MERGE:          0
cpu0->cpu0_L1I TRANSLATION  ACCESS:          0 HIT:          0 MISS:          0 MSHR_MERGE:          0
cpu0->cpu0_L1I PREFETCH REQUESTED:          0 ISSUED:          0 USEFUL:          0 USELESS:          0
cpu0->cpu0_L1I AVERAGE MISS LATENCY: 7.258 cycles
cpu0->cpu0_L1D TOTAL        ACCESS:  640965125 HIT:  369611954 MISS:  271353171 MSHR_MERGE:   38785047
cpu0->cpu0_L1D LOAD         ACCESS:  414214611 HIT:  160570917 MISS:  253643694 MSHR_MERGE:   37245335
cpu0->cpu0_L1D RFO          ACCESS:          0 HIT:          0 MISS:          0 MSHR_MERGE:          0
cpu0->cpu0_L1D PREFETCH     ACCESS:          0 HIT:          0 MISS:          0 MSHR_MERGE:          0
cpu0->cpu0_L1D WRITE        ACCESS:  226750514 HIT:  209041037 MISS:   17709477 MSHR_MERGE:    1539712
cpu0->cpu0_L1D TRANSLATION  ACCESS:          0 HIT:          0 MISS:          0 MSHR_MERGE:          0
cpu0->cpu0_L1D PREFETCH REQUESTED:          0 ISSUED:          0 USEFUL:          0 USELESS:          0
cpu0->cpu0_L1D AVERAGE MISS LATENCY: 17.68 cycles
cpu0->cpu0_ITLB TOTAL        ACCESS:  335072066 HIT:  335071858 MISS:        208 MSHR_MERGE:        132
cpu0->cpu0_ITLB LOAD         ACCESS:  335072066 HIT:  335071858 MISS:        208 MSHR_MERGE:        132
cpu0->cpu0_ITLB RFO          ACCESS:          0 HIT:          0 MISS:          0 MSHR_MERGE:          0
cpu0->cpu0_ITLB PREFETCH     ACCESS:          0 HIT:          0 MISS:          0 MSHR_MERGE:          0
cpu0->cpu0_ITLB WRITE        ACCESS:          0 HIT:          0 MISS:          0 MSHR_MERGE:          0
cpu0->cpu0_ITLB TRANSLATION  ACCESS:          0 HIT:          0 MISS:          0 MSHR_MERGE:          0
cpu0->cpu0_ITLB PREFETCH REQUESTED:          0 ISSUED:          0 USEFUL:          0 USELESS:          0
cpu0->cpu0_ITLB AVERAGE MISS LATENCY: 602.8 cycles
cpu0->cpu0_DTLB TOTAL        ACCESS:  541481335 HIT:  342418877 MISS:  199062458 MSHR_MERGE:   50159163
cpu0->cpu0_DTLB LOAD         ACCESS:  541481335 HIT:  342418877 MISS:  199062458 MSHR_MERGE:   50159163
cpu0->cpu0_DTLB RFO          ACCESS:          0 HIT:          0 MISS:          0 MSHR_MERGE:          0
cpu0->cpu0_DTLB PREFETCH     ACCESS:          0 HIT:          0 MISS:          0 MSHR_MERGE:          0
cpu0->cpu0_DTLB WRITE        ACCESS:          0 HIT:          0 MISS:          0 MSHR_MERGE:          0
cpu0->cpu0_DTLB TRANSLATION  ACCESS:          0 HIT:          0 MISS:          0 MSHR_MERGE:          0
cpu0->cpu0_DTLB PREFETCH REQUESTED:          0 ISSUED:          0 USEFUL:          0 USELESS:          0
cpu0->cpu0_DTLB AVERAGE MISS LATENCY: 5.714 cycles
cpu0->LLC TOTAL        ACCESS:   27512797 HIT:   12389508 MISS:   15123289 MSHR_MERGE:          0
cpu0->LLC LOAD         ACCESS:   24158969 HIT:    9067785 MISS:   15091184 MSHR_MERGE:          0
cpu0->LLC RFO          ACCESS:     855276 HIT:     824657 MISS:      30619 MSHR_MERGE:          0
cpu0->LLC PREFETCH     ACCESS:          0 HIT:          0 MISS:          0 MSHR_MERGE:          0
cpu0->LLC WRITE        ACCESS:    2498552 HIT:    2497066 MISS:       1486 MSHR_MERGE:          0
cpu0->LLC TRANSLATION  ACCESS:          0 HIT:          0 MISS:          0 MSHR_MERGE:          0
cpu0->LLC PREFETCH REQUESTED:          0 ISSUED:          0 USEFUL:          0 USELESS:          0
cpu0->LLC AVERAGE MISS LATENCY: 111.3 cycles

DRAM Statistics

Channel 0 RQ ROW_BUFFER_HIT:       1061
  ROW_BUFFER_MISS:    7867516
  AVG DBUS CONGESTED CYCLE: 9.348
Channel 0 WQ ROW_BUFFER_HIT:     209106
  ROW_BUFFER_MISS:     735673
  FULL:          0
Channel 0 REFRESHES ISSUED:     118451

Channel 1 RQ ROW_BUFFER_HIT:       1030
  ROW_BUFFER_MISS:    7864129
  AVG DBUS CONGESTED CYCLE: 9.352
Channel 1 WQ ROW_BUFFER_HIT:     209737
  ROW_BUFFER_MISS:     735150
  FULL:          0
Channel 1 REFRESHES ISSUED:     118451
