
*** ChampSim Multicore Out-of-Order Simulator ***
Warmup Instructions: 0
Simulation Instructions: 9223372036854775807
Number of CPUs: 1
Page size: 2097152

Off-chip DRAM Size: 64 GiB Channels: 2 Width: 32-bit Data Rate: 4807 MT/s
[ERROR_PAGE_MANAGER] Error latency: 1990500 
[ERROR_PAGE_MANAGER] Random seed: 54321 (fixed for preload reproducibility)
[ERROR_PAGE_MANAGER] Cycle-based error modeling enabled
[ERROR_PAGE_MANAGER] Errors per interval: 1
[ERROR_PAGE_MANAGER] Error cycle interval: 464841614 cycles

=== ERROR PAGE STATISTICS ===
Mode: CYCLE
Error Cycle Interval: 464841614 CPU cycles
Total Error Accesses: 0
==============================
Warmup finished CPU 0 instructions: 0 cycles: 1 cumulative IPC: 0 (Simulation time: 00 hr 00 min 00 sec)
Warmup complete CPU 0 instructions: 0 cycles: 1 cumulative IPC: 0 (Simulation time: 00 hr 00 min 00 sec)
Heartbeat CPU 0 instructions: 10000004 cycles: 7845553 heartbeat IPC: 1.275 cumulative IPC: 1.275 (Simulation time: 00 hr 01 min 13 sec)
Heartbeat CPU 0 instructions: 20000004 cycles: 15655282 heartbeat IPC: 1.28 cumulative IPC: 1.278 (Simulation time: 00 hr 02 min 14 sec)
Heartbeat CPU 0 instructions: 30000005 cycles: 23861547 heartbeat IPC: 1.219 cumulative IPC: 1.257 (Simulation time: 00 hr 03 min 05 sec)
Heartbeat CPU 0 instructions: 40000008 cycles: 31936214 heartbeat IPC: 1.238 cumulative IPC: 1.252 (Simulation time: 00 hr 04 min 02 sec)
Heartbeat CPU 0 instructions: 50000009 cycles: 39985625 heartbeat IPC: 1.242 cumulative IPC: 1.25 (Simulation time: 00 hr 04 min 55 sec)
Heartbeat CPU 0 instructions: 60000010 cycles: 47899830 heartbeat IPC: 1.264 cumulative IPC: 1.253 (Simulation time: 00 hr 05 min 53 sec)
Heartbeat CPU 0 instructions: 70000013 cycles: 55629305 heartbeat IPC: 1.294 cumulative IPC: 1.258 (Simulation time: 00 hr 06 min 56 sec)
Heartbeat CPU 0 instructions: 80000013 cycles: 63378154 heartbeat IPC: 1.291 cumulative IPC: 1.262 (Simulation time: 00 hr 07 min 58 sec)
Heartbeat CPU 0 instructions: 90000014 cycles: 71112435 heartbeat IPC: 1.293 cumulative IPC: 1.266 (Simulation time: 00 hr 08 min 59 sec)
Heartbeat CPU 0 instructions: 100000015 cycles: 78901187 heartbeat IPC: 1.284 cumulative IPC: 1.267 (Simulation time: 00 hr 10 min 12 sec)
Heartbeat CPU 0 instructions: 110000018 cycles: 87028424 heartbeat IPC: 1.23 cumulative IPC: 1.264 (Simulation time: 00 hr 11 min 27 sec)
Heartbeat CPU 0 instructions: 120000022 cycles: 95061898 heartbeat IPC: 1.245 cumulative IPC: 1.262 (Simulation time: 00 hr 12 min 42 sec)
Heartbeat CPU 0 instructions: 130000024 cycles: 103027253 heartbeat IPC: 1.255 cumulative IPC: 1.262 (Simulation time: 00 hr 13 min 56 sec)
Heartbeat CPU 0 instructions: 140000025 cycles: 111314722 heartbeat IPC: 1.207 cumulative IPC: 1.258 (Simulation time: 00 hr 15 min 13 sec)
Heartbeat CPU 0 instructions: 150000028 cycles: 119249865 heartbeat IPC: 1.26 cumulative IPC: 1.258 (Simulation time: 00 hr 16 min 28 sec)
Heartbeat CPU 0 instructions: 160000029 cycles: 127464801 heartbeat IPC: 1.217 cumulative IPC: 1.255 (Simulation time: 00 hr 17 min 44 sec)
Heartbeat CPU 0 instructions: 170000032 cycles: 135462921 heartbeat IPC: 1.25 cumulative IPC: 1.255 (Simulation time: 00 hr 18 min 59 sec)
Heartbeat CPU 0 instructions: 180000035 cycles: 143444520 heartbeat IPC: 1.253 cumulative IPC: 1.255 (Simulation time: 00 hr 20 min 14 sec)
Heartbeat CPU 0 instructions: 190000037 cycles: 151662291 heartbeat IPC: 1.217 cumulative IPC: 1.253 (Simulation time: 00 hr 21 min 30 sec)
Heartbeat CPU 0 instructions: 200000039 cycles: 159612682 heartbeat IPC: 1.258 cumulative IPC: 1.253 (Simulation time: 00 hr 22 min 44 sec)
Heartbeat CPU 0 instructions: 210000042 cycles: 167298822 heartbeat IPC: 1.301 cumulative IPC: 1.255 (Simulation time: 00 hr 23 min 56 sec)
Heartbeat CPU 0 instructions: 220000046 cycles: 175457236 heartbeat IPC: 1.226 cumulative IPC: 1.254 (Simulation time: 00 hr 25 min 12 sec)
Heartbeat CPU 0 instructions: 230000048 cycles: 183684472 heartbeat IPC: 1.215 cumulative IPC: 1.252 (Simulation time: 00 hr 26 min 29 sec)
Heartbeat CPU 0 instructions: 240000049 cycles: 191494326 heartbeat IPC: 1.28 cumulative IPC: 1.253 (Simulation time: 00 hr 27 min 43 sec)
Heartbeat CPU 0 instructions: 250000050 cycles: 199213481 heartbeat IPC: 1.295 cumulative IPC: 1.255 (Simulation time: 00 hr 28 min 56 sec)
Heartbeat CPU 0 instructions: 260000052 cycles: 206989943 heartbeat IPC: 1.286 cumulative IPC: 1.256 (Simulation time: 00 hr 30 min 09 sec)
Heartbeat CPU 0 instructions: 270000054 cycles: 214707378 heartbeat IPC: 1.296 cumulative IPC: 1.258 (Simulation time: 00 hr 31 min 22 sec)
Heartbeat CPU 0 instructions: 280000055 cycles: 222740403 heartbeat IPC: 1.245 cumulative IPC: 1.257 (Simulation time: 00 hr 32 min 37 sec)
Heartbeat CPU 0 instructions: 290000059 cycles: 230587345 heartbeat IPC: 1.274 cumulative IPC: 1.258 (Simulation time: 00 hr 33 min 51 sec)
Heartbeat CPU 0 instructions: 300000062 cycles: 238478732 heartbeat IPC: 1.267 cumulative IPC: 1.258 (Simulation time: 00 hr 35 min 05 sec)
Heartbeat CPU 0 instructions: 310000062 cycles: 246159058 heartbeat IPC: 1.302 cumulative IPC: 1.259 (Simulation time: 00 hr 36 min 18 sec)
Heartbeat CPU 0 instructions: 320000065 cycles: 253869642 heartbeat IPC: 1.297 cumulative IPC: 1.26 (Simulation time: 00 hr 37 min 31 sec)
Heartbeat CPU 0 instructions: 330000065 cycles: 261639184 heartbeat IPC: 1.287 cumulative IPC: 1.261 (Simulation time: 00 hr 38 min 44 sec)
Heartbeat CPU 0 instructions: 340000066 cycles: 269516660 heartbeat IPC: 1.269 cumulative IPC: 1.262 (Simulation time: 00 hr 39 min 58 sec)
Heartbeat CPU 0 instructions: 350000070 cycles: 277226272 heartbeat IPC: 1.297 cumulative IPC: 1.263 (Simulation time: 00 hr 41 min 11 sec)
Heartbeat CPU 0 instructions: 360000070 cycles: 284996326 heartbeat IPC: 1.287 cumulative IPC: 1.263 (Simulation time: 00 hr 42 min 24 sec)
Heartbeat CPU 0 instructions: 370000071 cycles: 292735485 heartbeat IPC: 1.292 cumulative IPC: 1.264 (Simulation time: 00 hr 43 min 38 sec)
Heartbeat CPU 0 instructions: 380000075 cycles: 300929128 heartbeat IPC: 1.22 cumulative IPC: 1.263 (Simulation time: 00 hr 44 min 37 sec)
Heartbeat CPU 0 instructions: 390000077 cycles: 308689145 heartbeat IPC: 1.289 cumulative IPC: 1.263 (Simulation time: 00 hr 45 min 27 sec)
Heartbeat CPU 0 instructions: 400000080 cycles: 316407905 heartbeat IPC: 1.296 cumulative IPC: 1.264 (Simulation time: 00 hr 46 min 19 sec)
Heartbeat CPU 0 instructions: 410000081 cycles: 324144815 heartbeat IPC: 1.293 cumulative IPC: 1.265 (Simulation time: 00 hr 47 min 21 sec)
Heartbeat CPU 0 instructions: 420000081 cycles: 331919783 heartbeat IPC: 1.286 cumulative IPC: 1.265 (Simulation time: 00 hr 48 min 19 sec)
Heartbeat CPU 0 instructions: 430000085 cycles: 339696379 heartbeat IPC: 1.286 cumulative IPC: 1.266 (Simulation time: 00 hr 49 min 31 sec)
Heartbeat CPU 0 instructions: 440000085 cycles: 347444935 heartbeat IPC: 1.291 cumulative IPC: 1.266 (Simulation time: 00 hr 50 min 42 sec)
Heartbeat CPU 0 instructions: 450000086 cycles: 355097523 heartbeat IPC: 1.307 cumulative IPC: 1.267 (Simulation time: 00 hr 51 min 53 sec)
Heartbeat CPU 0 instructions: 460000087 cycles: 362978350 heartbeat IPC: 1.269 cumulative IPC: 1.267 (Simulation time: 00 hr 53 min 06 sec)
Heartbeat CPU 0 instructions: 470000088 cycles: 370698197 heartbeat IPC: 1.295 cumulative IPC: 1.268 (Simulation time: 00 hr 54 min 18 sec)
Heartbeat CPU 0 instructions: 480000088 cycles: 378389143 heartbeat IPC: 1.3 cumulative IPC: 1.269 (Simulation time: 00 hr 55 min 11 sec)
Heartbeat CPU 0 instructions: 490000091 cycles: 386203015 heartbeat IPC: 1.28 cumulative IPC: 1.269 (Simulation time: 00 hr 55 min 58 sec)
Heartbeat CPU 0 instructions: 500000092 cycles: 394173894 heartbeat IPC: 1.255 cumulative IPC: 1.268 (Simulation time: 00 hr 56 min 49 sec)
Heartbeat CPU 0 instructions: 510000092 cycles: 401913886 heartbeat IPC: 1.292 cumulative IPC: 1.269 (Simulation time: 00 hr 57 min 49 sec)
Heartbeat CPU 0 instructions: 520000096 cycles: 409716331 heartbeat IPC: 1.282 cumulative IPC: 1.269 (Simulation time: 00 hr 58 min 50 sec)
Heartbeat CPU 0 instructions: 530000100 cycles: 417515047 heartbeat IPC: 1.282 cumulative IPC: 1.269 (Simulation time: 01 hr 00 min 00 sec)
Heartbeat CPU 0 instructions: 540000102 cycles: 425340788 heartbeat IPC: 1.278 cumulative IPC: 1.27 (Simulation time: 01 hr 00 min 59 sec)
Heartbeat CPU 0 instructions: 550000103 cycles: 433044718 heartbeat IPC: 1.298 cumulative IPC: 1.27 (Simulation time: 01 hr 02 min 10 sec)
Heartbeat CPU 0 instructions: 560000106 cycles: 440827193 heartbeat IPC: 1.285 cumulative IPC: 1.27 (Simulation time: 01 hr 03 min 22 sec)
Heartbeat CPU 0 instructions: 570000107 cycles: 448850273 heartbeat IPC: 1.246 cumulative IPC: 1.27 (Simulation time: 01 hr 04 min 35 sec)
Heartbeat CPU 0 instructions: 580000111 cycles: 456607987 heartbeat IPC: 1.289 cumulative IPC: 1.27 (Simulation time: 01 hr 05 min 34 sec)
Heartbeat CPU 0 instructions: 590000112 cycles: 464643188 heartbeat IPC: 1.245 cumulative IPC: 1.27 (Simulation time: 01 hr 06 min 47 sec)
[ERROR_CYCLE] Error added at CPU cycle 464841614, interval 1, pending count: 1
[DRAM_CYCLE_ERROR] Cycle-based error applied! address=0x78271db80 additional_latency=1990500 cycles
Heartbeat CPU 0 instructions: 600000113 cycles: 472396923 heartbeat IPC: 1.29 cumulative IPC: 1.27 (Simulation time: 01 hr 07 min 49 sec)
Heartbeat CPU 0 instructions: 610000117 cycles: 480391398 heartbeat IPC: 1.251 cumulative IPC: 1.27 (Simulation time: 01 hr 08 min 46 sec)
Heartbeat CPU 0 instructions: 620000121 cycles: 488210484 heartbeat IPC: 1.279 cumulative IPC: 1.27 (Simulation time: 01 hr 09 min 58 sec)
Heartbeat CPU 0 instructions: 630000125 cycles: 496370710 heartbeat IPC: 1.225 cumulative IPC: 1.269 (Simulation time: 01 hr 11 min 09 sec)
Heartbeat CPU 0 instructions: 640000129 cycles: 504426873 heartbeat IPC: 1.241 cumulative IPC: 1.269 (Simulation time: 01 hr 12 min 06 sec)
Heartbeat CPU 0 instructions: 650000132 cycles: 512519072 heartbeat IPC: 1.236 cumulative IPC: 1.268 (Simulation time: 01 hr 12 min 55 sec)
Heartbeat CPU 0 instructions: 660000133 cycles: 520191742 heartbeat IPC: 1.303 cumulative IPC: 1.269 (Simulation time: 01 hr 14 min 04 sec)
Heartbeat CPU 0 instructions: 670000137 cycles: 527795946 heartbeat IPC: 1.315 cumulative IPC: 1.269 (Simulation time: 01 hr 15 min 14 sec)
Heartbeat CPU 0 instructions: 680000141 cycles: 535543935 heartbeat IPC: 1.291 cumulative IPC: 1.27 (Simulation time: 01 hr 16 min 25 sec)
Heartbeat CPU 0 instructions: 690000141 cycles: 543657577 heartbeat IPC: 1.232 cumulative IPC: 1.269 (Simulation time: 01 hr 17 min 38 sec)
Heartbeat CPU 0 instructions: 700000141 cycles: 551509152 heartbeat IPC: 1.274 cumulative IPC: 1.269 (Simulation time: 01 hr 18 min 50 sec)
Heartbeat CPU 0 instructions: 710000144 cycles: 559184495 heartbeat IPC: 1.303 cumulative IPC: 1.27 (Simulation time: 01 hr 20 min 01 sec)
Heartbeat CPU 0 instructions: 720000148 cycles: 566813616 heartbeat IPC: 1.311 cumulative IPC: 1.27 (Simulation time: 01 hr 21 min 11 sec)
Heartbeat CPU 0 instructions: 730000148 cycles: 574496522 heartbeat IPC: 1.302 cumulative IPC: 1.271 (Simulation time: 01 hr 22 min 22 sec)
Heartbeat CPU 0 instructions: 740000148 cycles: 582215578 heartbeat IPC: 1.295 cumulative IPC: 1.271 (Simulation time: 01 hr 23 min 33 sec)
Heartbeat CPU 0 instructions: 750000149 cycles: 590306560 heartbeat IPC: 1.236 cumulative IPC: 1.271 (Simulation time: 01 hr 24 min 46 sec)
Heartbeat CPU 0 instructions: 760000150 cycles: 598367609 heartbeat IPC: 1.241 cumulative IPC: 1.27 (Simulation time: 01 hr 25 min 52 sec)
Heartbeat CPU 0 instructions: 770000150 cycles: 606378239 heartbeat IPC: 1.248 cumulative IPC: 1.27 (Simulation time: 01 hr 26 min 47 sec)
Heartbeat CPU 0 instructions: 780000152 cycles: 614334699 heartbeat IPC: 1.257 cumulative IPC: 1.27 (Simulation time: 01 hr 27 min 50 sec)
Heartbeat CPU 0 instructions: 790000153 cycles: 622022582 heartbeat IPC: 1.301 cumulative IPC: 1.27 (Simulation time: 01 hr 28 min 52 sec)
Heartbeat CPU 0 instructions: 800000155 cycles: 629811545 heartbeat IPC: 1.284 cumulative IPC: 1.27 (Simulation time: 01 hr 29 min 59 sec)
Heartbeat CPU 0 instructions: 810000158 cycles: 637566556 heartbeat IPC: 1.289 cumulative IPC: 1.27 (Simulation time: 01 hr 31 min 11 sec)
Heartbeat CPU 0 instructions: 820000159 cycles: 645339603 heartbeat IPC: 1.286 cumulative IPC: 1.271 (Simulation time: 01 hr 32 min 23 sec)
Heartbeat CPU 0 instructions: 830000161 cycles: 653170049 heartbeat IPC: 1.277 cumulative IPC: 1.271 (Simulation time: 01 hr 33 min 35 sec)
Heartbeat CPU 0 instructions: 840000162 cycles: 661101761 heartbeat IPC: 1.261 cumulative IPC: 1.271 (Simulation time: 01 hr 34 min 48 sec)
Heartbeat CPU 0 instructions: 850000162 cycles: 668924490 heartbeat IPC: 1.278 cumulative IPC: 1.271 (Simulation time: 01 hr 36 min 01 sec)
Heartbeat CPU 0 instructions: 860000162 cycles: 676676859 heartbeat IPC: 1.29 cumulative IPC: 1.271 (Simulation time: 01 hr 37 min 13 sec)
Heartbeat CPU 0 instructions: 870000163 cycles: 684353474 heartbeat IPC: 1.303 cumulative IPC: 1.271 (Simulation time: 01 hr 38 min 24 sec)
Heartbeat CPU 0 instructions: 880000164 cycles: 692066761 heartbeat IPC: 1.296 cumulative IPC: 1.272 (Simulation time: 01 hr 39 min 37 sec)
Heartbeat CPU 0 instructions: 890000167 cycles: 699742855 heartbeat IPC: 1.303 cumulative IPC: 1.272 (Simulation time: 01 hr 40 min 49 sec)
Heartbeat CPU 0 instructions: 900000167 cycles: 707389019 heartbeat IPC: 1.308 cumulative IPC: 1.272 (Simulation time: 01 hr 42 min 00 sec)
Heartbeat CPU 0 instructions: 910000170 cycles: 715136290 heartbeat IPC: 1.291 cumulative IPC: 1.272 (Simulation time: 01 hr 43 min 12 sec)
Heartbeat CPU 0 instructions: 920000172 cycles: 722970730 heartbeat IPC: 1.276 cumulative IPC: 1.273 (Simulation time: 01 hr 44 min 25 sec)
Heartbeat CPU 0 instructions: 930000172 cycles: 730920972 heartbeat IPC: 1.258 cumulative IPC: 1.272 (Simulation time: 01 hr 45 min 39 sec)
Heartbeat CPU 0 instructions: 940000173 cycles: 739128012 heartbeat IPC: 1.218 cumulative IPC: 1.272 (Simulation time: 01 hr 46 min 54 sec)
Heartbeat CPU 0 instructions: 950000174 cycles: 747188711 heartbeat IPC: 1.241 cumulative IPC: 1.271 (Simulation time: 01 hr 48 min 01 sec)
Heartbeat CPU 0 instructions: 960000177 cycles: 755023635 heartbeat IPC: 1.276 cumulative IPC: 1.271 (Simulation time: 01 hr 48 min 49 sec)
Heartbeat CPU 0 instructions: 970000177 cycles: 762849408 heartbeat IPC: 1.278 cumulative IPC: 1.272 (Simulation time: 01 hr 49 min 37 sec)
Heartbeat CPU 0 instructions: 980000178 cycles: 770688251 heartbeat IPC: 1.276 cumulative IPC: 1.272 (Simulation time: 01 hr 50 min 28 sec)
Heartbeat CPU 0 instructions: 990000178 cycles: 778630784 heartbeat IPC: 1.259 cumulative IPC: 1.271 (Simulation time: 01 hr 51 min 17 sec)
Heartbeat CPU 0 instructions: 1000000180 cycles: 786719416 heartbeat IPC: 1.236 cumulative IPC: 1.271 (Simulation time: 01 hr 52 min 14 sec)
Heartbeat CPU 0 instructions: 1010000181 cycles: 794497450 heartbeat IPC: 1.286 cumulative IPC: 1.271 (Simulation time: 01 hr 53 min 03 sec)
Heartbeat CPU 0 instructions: 1020000183 cycles: 802396345 heartbeat IPC: 1.266 cumulative IPC: 1.271 (Simulation time: 01 hr 54 min 01 sec)
Heartbeat CPU 0 instructions: 1030000184 cycles: 810774571 heartbeat IPC: 1.194 cumulative IPC: 1.27 (Simulation time: 01 hr 55 min 01 sec)
Heartbeat CPU 0 instructions: 1040000185 cycles: 818468500 heartbeat IPC: 1.3 cumulative IPC: 1.271 (Simulation time: 01 hr 56 min 13 sec)
Heartbeat CPU 0 instructions: 1050000186 cycles: 826480101 heartbeat IPC: 1.248 cumulative IPC: 1.27 (Simulation time: 01 hr 57 min 22 sec)
Heartbeat CPU 0 instructions: 1060000190 cycles: 834130833 heartbeat IPC: 1.307 cumulative IPC: 1.271 (Simulation time: 01 hr 58 min 24 sec)
Heartbeat CPU 0 instructions: 1070000194 cycles: 841797468 heartbeat IPC: 1.304 cumulative IPC: 1.271 (Simulation time: 01 hr 59 min 35 sec)
Heartbeat CPU 0 instructions: 1080000194 cycles: 849507352 heartbeat IPC: 1.297 cumulative IPC: 1.271 (Simulation time: 02 hr 00 min 24 sec)
Heartbeat CPU 0 instructions: 1090000194 cycles: 857632788 heartbeat IPC: 1.231 cumulative IPC: 1.271 (Simulation time: 02 hr 01 min 36 sec)
Heartbeat CPU 0 instructions: 1100000194 cycles: 865432337 heartbeat IPC: 1.282 cumulative IPC: 1.271 (Simulation time: 02 hr 02 min 49 sec)
Heartbeat CPU 0 instructions: 1110000195 cycles: 873135584 heartbeat IPC: 1.298 cumulative IPC: 1.271 (Simulation time: 02 hr 03 min 50 sec)
Heartbeat CPU 0 instructions: 1120000195 cycles: 881063121 heartbeat IPC: 1.261 cumulative IPC: 1.271 (Simulation time: 02 hr 04 min 55 sec)
Heartbeat CPU 0 instructions: 1130000196 cycles: 888938793 heartbeat IPC: 1.27 cumulative IPC: 1.271 (Simulation time: 02 hr 06 min 08 sec)
Heartbeat CPU 0 instructions: 1140000199 cycles: 896681612 heartbeat IPC: 1.292 cumulative IPC: 1.271 (Simulation time: 02 hr 07 min 20 sec)
Heartbeat CPU 0 instructions: 1150000199 cycles: 904419501 heartbeat IPC: 1.292 cumulative IPC: 1.272 (Simulation time: 02 hr 08 min 31 sec)
Heartbeat CPU 0 instructions: 1160000201 cycles: 912281886 heartbeat IPC: 1.272 cumulative IPC: 1.272 (Simulation time: 02 hr 09 min 44 sec)
Heartbeat CPU 0 instructions: 1170000201 cycles: 920180970 heartbeat IPC: 1.266 cumulative IPC: 1.271 (Simulation time: 02 hr 10 min 49 sec)
Heartbeat CPU 0 instructions: 1180000204 cycles: 927851345 heartbeat IPC: 1.304 cumulative IPC: 1.272 (Simulation time: 02 hr 11 min 43 sec)
[ERROR_CYCLE] Error added at CPU cycle 929683228, interval 2, pending count: 1
[DRAM_CYCLE_ERROR] Cycle-based error applied! address=0x3a3dee480 additional_latency=1990500 cycles
Heartbeat CPU 0 instructions: 1190000205 cycles: 935566600 heartbeat IPC: 1.296 cumulative IPC: 1.272 (Simulation time: 02 hr 12 min 44 sec)
Heartbeat CPU 0 instructions: 1200000206 cycles: 943328366 heartbeat IPC: 1.288 cumulative IPC: 1.272 (Simulation time: 02 hr 13 min 57 sec)
Heartbeat CPU 0 instructions: 1210000206 cycles: 951105993 heartbeat IPC: 1.286 cumulative IPC: 1.272 (Simulation time: 02 hr 15 min 10 sec)
Heartbeat CPU 0 instructions: 1220000209 cycles: 959086624 heartbeat IPC: 1.253 cumulative IPC: 1.272 (Simulation time: 02 hr 16 min 24 sec)
Heartbeat CPU 0 instructions: 1230000210 cycles: 966944987 heartbeat IPC: 1.273 cumulative IPC: 1.272 (Simulation time: 02 hr 17 min 38 sec)
Heartbeat CPU 0 instructions: 1240000210 cycles: 974840283 heartbeat IPC: 1.267 cumulative IPC: 1.272 (Simulation time: 02 hr 18 min 51 sec)
Heartbeat CPU 0 instructions: 1250000214 cycles: 982522524 heartbeat IPC: 1.302 cumulative IPC: 1.272 (Simulation time: 02 hr 19 min 57 sec)
Heartbeat CPU 0 instructions: 1260000215 cycles: 990472554 heartbeat IPC: 1.258 cumulative IPC: 1.272 (Simulation time: 02 hr 21 min 04 sec)
Heartbeat CPU 0 instructions: 1270000215 cycles: 998528475 heartbeat IPC: 1.241 cumulative IPC: 1.272 (Simulation time: 02 hr 22 min 13 sec)
Heartbeat CPU 0 instructions: 1280000216 cycles: 1006308146 heartbeat IPC: 1.285 cumulative IPC: 1.272 (Simulation time: 02 hr 23 min 20 sec)
Heartbeat CPU 0 instructions: 1290000217 cycles: 1014017744 heartbeat IPC: 1.297 cumulative IPC: 1.272 (Simulation time: 02 hr 24 min 17 sec)
Heartbeat CPU 0 instructions: 1300000220 cycles: 1022050042 heartbeat IPC: 1.245 cumulative IPC: 1.272 (Simulation time: 02 hr 25 min 13 sec)
Heartbeat CPU 0 instructions: 1310000224 cycles: 1029910592 heartbeat IPC: 1.272 cumulative IPC: 1.272 (Simulation time: 02 hr 26 min 08 sec)
Heartbeat CPU 0 instructions: 1320000226 cycles: 1038122807 heartbeat IPC: 1.218 cumulative IPC: 1.272 (Simulation time: 02 hr 27 min 04 sec)
Heartbeat CPU 0 instructions: 1330000226 cycles: 1046312295 heartbeat IPC: 1.221 cumulative IPC: 1.271 (Simulation time: 02 hr 28 min 17 sec)
Heartbeat CPU 0 instructions: 1340000226 cycles: 1054498306 heartbeat IPC: 1.222 cumulative IPC: 1.271 (Simulation time: 02 hr 29 min 23 sec)
Heartbeat CPU 0 instructions: 1350000226 cycles: 1062670149 heartbeat IPC: 1.224 cumulative IPC: 1.27 (Simulation time: 02 hr 30 min 25 sec)
Heartbeat CPU 0 instructions: 1360000227 cycles: 1070432398 heartbeat IPC: 1.288 cumulative IPC: 1.271 (Simulation time: 02 hr 31 min 37 sec)
Heartbeat CPU 0 instructions: 1370000228 cycles: 1078180780 heartbeat IPC: 1.291 cumulative IPC: 1.271 (Simulation time: 02 hr 32 min 35 sec)
Heartbeat CPU 0 instructions: 1380000231 cycles: 1085882517 heartbeat IPC: 1.298 cumulative IPC: 1.271 (Simulation time: 02 hr 33 min 41 sec)
Heartbeat CPU 0 instructions: 1390000231 cycles: 1093608313 heartbeat IPC: 1.294 cumulative IPC: 1.271 (Simulation time: 02 hr 34 min 48 sec)
Heartbeat CPU 0 instructions: 1400000232 cycles: 1101738853 heartbeat IPC: 1.23 cumulative IPC: 1.271 (Simulation time: 02 hr 35 min 44 sec)
Heartbeat CPU 0 instructions: 1410000233 cycles: 1109979656 heartbeat IPC: 1.213 cumulative IPC: 1.27 (Simulation time: 02 hr 36 min 40 sec)
Heartbeat CPU 0 instructions: 1420000237 cycles: 1117852276 heartbeat IPC: 1.27 cumulative IPC: 1.27 (Simulation time: 02 hr 37 min 32 sec)
Heartbeat CPU 0 instructions: 1430000239 cycles: 1125633227 heartbeat IPC: 1.285 cumulative IPC: 1.27 (Simulation time: 02 hr 38 min 38 sec)
Heartbeat CPU 0 instructions: 1440000242 cycles: 1133317692 heartbeat IPC: 1.301 cumulative IPC: 1.271 (Simulation time: 02 hr 39 min 51 sec)
Heartbeat CPU 0 instructions: 1450000243 cycles: 1141019735 heartbeat IPC: 1.298 cumulative IPC: 1.271 (Simulation time: 02 hr 41 min 04 sec)
Heartbeat CPU 0 instructions: 1460000243 cycles: 1148712901 heartbeat IPC: 1.3 cumulative IPC: 1.271 (Simulation time: 02 hr 42 min 14 sec)
Heartbeat CPU 0 instructions: 1470000245 cycles: 1156631933 heartbeat IPC: 1.263 cumulative IPC: 1.271 (Simulation time: 02 hr 43 min 22 sec)
Heartbeat CPU 0 instructions: 1480000245 cycles: 1164747271 heartbeat IPC: 1.232 cumulative IPC: 1.271 (Simulation time: 02 hr 44 min 37 sec)
Heartbeat CPU 0 instructions: 1490000248 cycles: 1172545939 heartbeat IPC: 1.282 cumulative IPC: 1.271 (Simulation time: 02 hr 45 min 49 sec)
Heartbeat CPU 0 instructions: 1500000249 cycles: 1180285941 heartbeat IPC: 1.292 cumulative IPC: 1.271 (Simulation time: 02 hr 47 min 02 sec)
Heartbeat CPU 0 instructions: 1510000252 cycles: 1188284094 heartbeat IPC: 1.25 cumulative IPC: 1.271 (Simulation time: 02 hr 48 min 16 sec)
Heartbeat CPU 0 instructions: 1520000256 cycles: 1196482920 heartbeat IPC: 1.22 cumulative IPC: 1.27 (Simulation time: 02 hr 49 min 32 sec)
Heartbeat CPU 0 instructions: 1530000258 cycles: 1204640191 heartbeat IPC: 1.226 cumulative IPC: 1.27 (Simulation time: 02 hr 50 min 48 sec)
Heartbeat CPU 0 instructions: 1540000259 cycles: 1212883280 heartbeat IPC: 1.213 cumulative IPC: 1.27 (Simulation time: 02 hr 52 min 04 sec)
Heartbeat CPU 0 instructions: 1550000260 cycles: 1221018280 heartbeat IPC: 1.229 cumulative IPC: 1.269 (Simulation time: 02 hr 53 min 07 sec)
Heartbeat CPU 0 instructions: 1560000263 cycles: 1228909039 heartbeat IPC: 1.267 cumulative IPC: 1.269 (Simulation time: 02 hr 54 min 03 sec)
Heartbeat CPU 0 instructions: 1570000264 cycles: 1236874449 heartbeat IPC: 1.255 cumulative IPC: 1.269 (Simulation time: 02 hr 54 min 52 sec)
Heartbeat CPU 0 instructions: 1580000264 cycles: 1244494035 heartbeat IPC: 1.312 cumulative IPC: 1.27 (Simulation time: 02 hr 55 min 45 sec)
Heartbeat CPU 0 instructions: 1590000267 cycles: 1252289240 heartbeat IPC: 1.283 cumulative IPC: 1.27 (Simulation time: 02 hr 56 min 34 sec)
Heartbeat CPU 0 instructions: 1600000268 cycles: 1260110556 heartbeat IPC: 1.279 cumulative IPC: 1.27 (Simulation time: 02 hr 57 min 26 sec)
Heartbeat CPU 0 instructions: 1610000269 cycles: 1267835621 heartbeat IPC: 1.294 cumulative IPC: 1.27 (Simulation time: 02 hr 58 min 22 sec)
Heartbeat CPU 0 instructions: 1620000270 cycles: 1275504100 heartbeat IPC: 1.304 cumulative IPC: 1.27 (Simulation time: 02 hr 59 min 15 sec)
Heartbeat CPU 0 instructions: 1630000271 cycles: 1283546650 heartbeat IPC: 1.243 cumulative IPC: 1.27 (Simulation time: 03 hr 00 min 04 sec)
Heartbeat CPU 0 instructions: 1640000271 cycles: 1291606318 heartbeat IPC: 1.241 cumulative IPC: 1.27 (Simulation time: 03 hr 00 min 53 sec)
Heartbeat CPU 0 instructions: 1650000274 cycles: 1299353086 heartbeat IPC: 1.291 cumulative IPC: 1.27 (Simulation time: 03 hr 01 min 40 sec)
Heartbeat CPU 0 instructions: 1660000275 cycles: 1307112497 heartbeat IPC: 1.289 cumulative IPC: 1.27 (Simulation time: 03 hr 02 min 28 sec)
Heartbeat CPU 0 instructions: 1670000278 cycles: 1315082805 heartbeat IPC: 1.255 cumulative IPC: 1.27 (Simulation time: 03 hr 03 min 18 sec)
Heartbeat CPU 0 instructions: 1680000280 cycles: 1322875311 heartbeat IPC: 1.283 cumulative IPC: 1.27 (Simulation time: 03 hr 04 min 06 sec)
Heartbeat CPU 0 instructions: 1690000284 cycles: 1330768849 heartbeat IPC: 1.267 cumulative IPC: 1.27 (Simulation time: 03 hr 04 min 59 sec)
Heartbeat CPU 0 instructions: 1700000285 cycles: 1338511112 heartbeat IPC: 1.292 cumulative IPC: 1.27 (Simulation time: 03 hr 06 min 06 sec)
Heartbeat CPU 0 instructions: 1710000286 cycles: 1346740120 heartbeat IPC: 1.215 cumulative IPC: 1.27 (Simulation time: 03 hr 07 min 21 sec)
Heartbeat CPU 0 instructions: 1720000287 cycles: 1354520691 heartbeat IPC: 1.285 cumulative IPC: 1.27 (Simulation time: 03 hr 08 min 33 sec)
Heartbeat CPU 0 instructions: 1730000288 cycles: 1362458290 heartbeat IPC: 1.26 cumulative IPC: 1.27 (Simulation time: 03 hr 09 min 47 sec)
Heartbeat CPU 0 instructions: 1740000292 cycles: 1370286520 heartbeat IPC: 1.277 cumulative IPC: 1.27 (Simulation time: 03 hr 10 min 59 sec)
Heartbeat CPU 0 instructions: 1750000296 cycles: 1378302948 heartbeat IPC: 1.247 cumulative IPC: 1.27 (Simulation time: 03 hr 12 min 12 sec)
Heartbeat CPU 0 instructions: 1760000299 cycles: 1386312904 heartbeat IPC: 1.248 cumulative IPC: 1.27 (Simulation time: 03 hr 13 min 27 sec)
[ERROR_CYCLE] Error added at CPU cycle 1394524842, interval 3, pending count: 1
[DRAM_CYCLE_ERROR] Cycle-based error applied! address=0x3f8c77f00 additional_latency=1990500 cycles
Heartbeat CPU 0 instructions: 1770000303 cycles: 1394555823 heartbeat IPC: 1.213 cumulative IPC: 1.269 (Simulation time: 03 hr 14 min 30 sec)
Heartbeat CPU 0 instructions: 1780000307 cycles: 1402646688 heartbeat IPC: 1.236 cumulative IPC: 1.269 (Simulation time: 03 hr 15 min 29 sec)
Heartbeat CPU 0 instructions: 1790000311 cycles: 1410550332 heartbeat IPC: 1.265 cumulative IPC: 1.269 (Simulation time: 03 hr 16 min 21 sec)
Heartbeat CPU 0 instructions: 1800000313 cycles: 1418300229 heartbeat IPC: 1.29 cumulative IPC: 1.269 (Simulation time: 03 hr 17 min 18 sec)
Heartbeat CPU 0 instructions: 1810000314 cycles: 1426048733 heartbeat IPC: 1.291 cumulative IPC: 1.269 (Simulation time: 03 hr 18 min 19 sec)
Heartbeat CPU 0 instructions: 1820000314 cycles: 1433841657 heartbeat IPC: 1.283 cumulative IPC: 1.269 (Simulation time: 03 hr 19 min 10 sec)
Heartbeat CPU 0 instructions: 1830000315 cycles: 1441577912 heartbeat IPC: 1.293 cumulative IPC: 1.269 (Simulation time: 03 hr 20 min 01 sec)
Heartbeat CPU 0 instructions: 1840000319 cycles: 1449765952 heartbeat IPC: 1.221 cumulative IPC: 1.269 (Simulation time: 03 hr 21 min 13 sec)
Heartbeat CPU 0 instructions: 1850000320 cycles: 1457505290 heartbeat IPC: 1.292 cumulative IPC: 1.269 (Simulation time: 03 hr 22 min 25 sec)
Heartbeat CPU 0 instructions: 1860000323 cycles: 1465351957 heartbeat IPC: 1.274 cumulative IPC: 1.269 (Simulation time: 03 hr 23 min 38 sec)
Heartbeat CPU 0 instructions: 1870000324 cycles: 1473131414 heartbeat IPC: 1.285 cumulative IPC: 1.269 (Simulation time: 03 hr 24 min 50 sec)
Heartbeat CPU 0 instructions: 1880000326 cycles: 1480783307 heartbeat IPC: 1.307 cumulative IPC: 1.27 (Simulation time: 03 hr 26 min 02 sec)
Heartbeat CPU 0 instructions: 1890000329 cycles: 1488441885 heartbeat IPC: 1.306 cumulative IPC: 1.27 (Simulation time: 03 hr 27 min 12 sec)
Heartbeat CPU 0 instructions: 1900000330 cycles: 1496132872 heartbeat IPC: 1.3 cumulative IPC: 1.27 (Simulation time: 03 hr 28 min 22 sec)
Heartbeat CPU 0 instructions: 1910000332 cycles: 1503939776 heartbeat IPC: 1.281 cumulative IPC: 1.27 (Simulation time: 03 hr 29 min 21 sec)
Heartbeat CPU 0 instructions: 1920000333 cycles: 1511816738 heartbeat IPC: 1.27 cumulative IPC: 1.27 (Simulation time: 03 hr 30 min 31 sec)
Heartbeat CPU 0 instructions: 1930000334 cycles: 1519485663 heartbeat IPC: 1.304 cumulative IPC: 1.27 (Simulation time: 03 hr 31 min 43 sec)
Heartbeat CPU 0 instructions: 1940000334 cycles: 1527693482 heartbeat IPC: 1.218 cumulative IPC: 1.27 (Simulation time: 03 hr 32 min 59 sec)
Heartbeat CPU 0 instructions: 1950000334 cycles: 1535424657 heartbeat IPC: 1.293 cumulative IPC: 1.27 (Simulation time: 03 hr 34 min 12 sec)
Heartbeat CPU 0 instructions: 1960000335 cycles: 1543576438 heartbeat IPC: 1.227 cumulative IPC: 1.27 (Simulation time: 03 hr 35 min 27 sec)
Heartbeat CPU 0 instructions: 1970000339 cycles: 1551510915 heartbeat IPC: 1.26 cumulative IPC: 1.27 (Simulation time: 03 hr 36 min 40 sec)
Heartbeat CPU 0 instructions: 1980000340 cycles: 1559370737 heartbeat IPC: 1.272 cumulative IPC: 1.27 (Simulation time: 03 hr 37 min 51 sec)
Heartbeat CPU 0 instructions: 1990000341 cycles: 1567186786 heartbeat IPC: 1.279 cumulative IPC: 1.27 (Simulation time: 03 hr 38 min 52 sec)

=== ERROR PAGE STATISTICS ===
Mode: CYCLE
Error Cycle Interval: 464841614 CPU cycles
Total Error Accesses: 3
==============================
Simulation finished CPU 0 instructions: 1999999656 cycles: 1574952276 cumulative IPC: 1.27 (Simulation time: 03 hr 39 min 44 sec)
Simulation complete CPU 0 instructions: 1999999656 cycles: 1574952276 cumulative IPC: 1.27 (Simulation time: 03 hr 39 min 44 sec)

ChampSim completed all CPUs

=== Simulation ===
CPU 0 runs test_traces/603.bwaves_s-2931B.champsimtrace.xz

Region of Interest Statistics

CPU 0 cumulative IPC: 1.27 instructions: 1999999656 cycles: 1574952276
CPU 0 Branch Prediction Accuracy: 80.62% MPKI: 1.636 Average ROB Occupancy at Mispredict: 300.1
Branch type MPKI
BRANCH_DIRECT_JUMP: 0
BRANCH_INDIRECT: 0
BRANCH_CONDITIONAL: 1.636
BRANCH_DIRECT_CALL: 0
BRANCH_INDIRECT_CALL: 0
BRANCH_RETURN: 0

cpu0->cpu0_STLB TOTAL        ACCESS:        759 HIT:          8 MISS:        751 MSHR_MERGE:          0
cpu0->cpu0_STLB LOAD         ACCESS:        759 HIT:          8 MISS:        751 MSHR_MERGE:          0
cpu0->cpu0_STLB RFO          ACCESS:          0 HIT:          0 MISS:          0 MSHR_MERGE:          0
cpu0->cpu0_STLB PREFETCH     ACCESS:          0 HIT:          0 MISS:          0 MSHR_MERGE:          0
cpu0->cpu0_STLB WRITE        ACCESS:          0 HIT:          0 MISS:          0 MSHR_MERGE:          0
cpu0->cpu0_STLB TRANSLATION  ACCESS:          0 HIT:          0 MISS:          0 MSHR_MERGE:          0
cpu0->cpu0_STLB PREFETCH REQUESTED:          0 ISSUED:          0 USEFUL:          0 USELESS:          0
cpu0->cpu0_STLB AVERAGE MISS LATENCY: 8773 cycles
cpu0->cpu0_L2C TOTAL        ACCESS:   46485769 HIT:   16685521 MISS:   29800248 MSHR_MERGE:          0
cpu0->cpu0_L2C LOAD         ACCESS:   20689894 HIT:    2797499 MISS:   17892395 MSHR_MERGE:          0
cpu0->cpu0_L2C RFO          ACCESS:   12820834 HIT:     913141 MISS:   11907693 MSHR_MERGE:          0
cpu0->cpu0_L2C PREFETCH     ACCESS:          0 HIT:          0 MISS:          0 MSHR_MERGE:          0
cpu0->cpu0_L2C WRITE        ACCESS:   12975041 HIT:   12974881 MISS:        160 MSHR_MERGE:          0
cpu0->cpu0_L2C TRANSLATION  ACCESS:          0 HIT:          0 MISS:          0 MSHR_MERGE:          0
cpu0->cpu0_L2C PREFETCH REQUESTED:          0 ISSUED:          0 USEFUL:          0 USELESS:          0
cpu0->cpu0_L2C AVERAGE MISS LATENCY: 119.1 cycles
cpu0->cpu0_L1I TOTAL        ACCESS:  226260338 HIT:  226260265 MISS:         73 MSHR_MERGE:         24
cpu0->cpu0_L1I LOAD         ACCESS:  226260338 HIT:  226260265 MISS:         73 MSHR_MERGE:         24
cpu0->cpu0_L1I RFO          ACCESS:          0 HIT:          0 MISS:          0 MSHR_MERGE:          0
cpu0->cpu0_L1I PREFETCH     ACCESS:          0 HIT:          0 MISS:          0 MSHR_MERGE:          0
cpu0->cpu0_L1I WRITE        ACCESS:          0 HIT:          0 MISS:          0 MSHR_MERGE:          0
cpu0->cpu0_L1I TRANSLATION  ACCESS:          0 HIT:          0 MISS:          0 MSHR_MERGE:          0
cpu0->cpu0_L1I PREFETCH REQUESTED:          0 ISSUED:          0 USEFUL:          0 USELESS:          0
cpu0->cpu0_L1I AVERAGE MISS LATENCY: 161.3 cycles
cpu0->cpu0_L1D TOTAL        ACCESS:  657058550 HIT:  604940317 MISS:   52118233 MSHR_MERGE:   18592897
cpu0->cpu0_L1D LOAD         ACCESS:  291120277 HIT:  270176162 MISS:   20944115 MSHR_MERGE:     253902
cpu0->cpu0_L1D RFO          ACCESS:          0 HIT:          0 MISS:          0 MSHR_MERGE:          0
cpu0->cpu0_L1D PREFETCH     ACCESS:          0 HIT:          0 MISS:          0 MSHR_MERGE:          0
cpu0->cpu0_L1D WRITE        ACCESS:  365938273 HIT:  334764155 MISS:   31174118 MSHR_MERGE:   18338995
cpu0->cpu0_L1D TRANSLATION  ACCESS:          0 HIT:          0 MISS:          0 MSHR_MERGE:          0
cpu0->cpu0_L1D PREFETCH REQUESTED:          0 ISSUED:          0 USEFUL:          0 USELESS:          0
cpu0->cpu0_L1D AVERAGE MISS LATENCY: 115 cycles
cpu0->cpu0_ITLB TOTAL        ACCESS:  180606037 HIT:  180606030 MISS:          7 MSHR_MERGE:          6
cpu0->cpu0_ITLB LOAD         ACCESS:  180606037 HIT:  180606030 MISS:          7 MSHR_MERGE:          6
cpu0->cpu0_ITLB RFO          ACCESS:          0 HIT:          0 MISS:          0 MSHR_MERGE:          0
cpu0->cpu0_ITLB PREFETCH     ACCESS:          0 HIT:          0 MISS:          0 MSHR_MERGE:          0
cpu0->cpu0_ITLB WRITE        ACCESS:          0 HIT:          0 MISS:          0 MSHR_MERGE:          0
cpu0->cpu0_ITLB TRANSLATION  ACCESS:          0 HIT:          0 MISS:          0 MSHR_MERGE:          0
cpu0->cpu0_ITLB PREFETCH REQUESTED:          0 ISSUED:          0 USEFUL:          0 USELESS:          0
cpu0->cpu0_ITLB AVERAGE MISS LATENCY: 1.722e+04 cycles
cpu0->cpu0_DTLB TOTAL        ACCESS:  551939231 HIT:  551932990 MISS:       6241 MSHR_MERGE:       5483
cpu0->cpu0_DTLB LOAD         ACCESS:  551939231 HIT:  551932990 MISS:       6241 MSHR_MERGE:       5483
cpu0->cpu0_DTLB RFO          ACCESS:          0 HIT:          0 MISS:          0 MSHR_MERGE:          0
cpu0->cpu0_DTLB PREFETCH     ACCESS:          0 HIT:          0 MISS:          0 MSHR_MERGE:          0
cpu0->cpu0_DTLB WRITE        ACCESS:          0 HIT:          0 MISS:          0 MSHR_MERGE:          0
cpu0->cpu0_DTLB TRANSLATION  ACCESS:          0 HIT:          0 MISS:          0 MSHR_MERGE:          0
cpu0->cpu0_DTLB PREFETCH REQUESTED:          0 ISSUED:          0 USEFUL:          0 USELESS:          0
cpu0->cpu0_DTLB AVERAGE MISS LATENCY: 8675 cycles
cpu0->LLC TOTAL        ACCESS:   41705468 HIT:   14446325 MISS:   27259143 MSHR_MERGE:          0
cpu0->LLC LOAD         ACCESS:   17892395 HIT:    2541173 MISS:   15351222 MSHR_MERGE:          0
cpu0->LLC RFO          ACCESS:   11907693 HIT:          0 MISS:   11907693 MSHR_MERGE:          0
cpu0->LLC PREFETCH     ACCESS:          0 HIT:          0 MISS:          0 MSHR_MERGE:          0
cpu0->LLC WRITE        ACCESS:   11905380 HIT:   11905152 MISS:        228 MSHR_MERGE:          0
cpu0->LLC TRANSLATION  ACCESS:          0 HIT:          0 MISS:          0 MSHR_MERGE:          0
cpu0->LLC PREFETCH REQUESTED:          0 ISSUED:          0 USEFUL:          0 USELESS:          0
cpu0->LLC AVERAGE MISS LATENCY: 112.8 cycles

DRAM Statistics

Channel 0 RQ ROW_BUFFER_HIT:     287167
  ROW_BUFFER_MISS:   13343170
  AVG DBUS CONGESTED CYCLE: 10.85
Channel 0 WQ ROW_BUFFER_HIT:    2665319
  ROW_BUFFER_MISS:    3281784
  FULL:          0
Channel 0 REFRESHES ISSUED:     131237

Channel 1 RQ ROW_BUFFER_HIT:     281081
  ROW_BUFFER_MISS:   13349006
  AVG DBUS CONGESTED CYCLE: 10.85
Channel 1 WQ ROW_BUFFER_HIT:    2667580
  ROW_BUFFER_MISS:    3279452
  FULL:          0
Channel 1 REFRESHES ISSUED:     131237
