[VMEM] WARNING: physical memory size is smaller than virtual memory size.

*** ChampSim Multicore Out-of-Order Simulator ***
Warmup Instructions: 0
Simulation Instructions: 9223372036854775807
Number of CPUs: 1
Page size: 2097152

Off-chip DRAM Size: 32 GiB Channels: 2 Width: 32-bit Data Rate: 4807 MT/s
[ERROR_PAGE_MANAGER] Error latency: 1990500 
[ERROR_PAGE_MANAGER] Random seed: 54321 (fixed for preload reproducibility)
[ERROR_PAGE_MANAGER] Cycle-based error modeling enabled
[ERROR_PAGE_MANAGER] Errors per interval: 1
[ERROR_PAGE_MANAGER] Error cycle interval: 70532401 cycles

=== ERROR PAGE STATISTICS ===
Mode: CYCLE
Error Cycle Interval: 70532401 CPU cycles
Total Error Accesses: 0
==============================
Warmup finished CPU 0 instructions: 0 cycles: 1 cumulative IPC: 0 (Simulation time: 00 hr 00 min 00 sec)
Warmup complete CPU 0 instructions: 0 cycles: 1 cumulative IPC: 0 (Simulation time: 00 hr 00 min 00 sec)
Heartbeat CPU 0 instructions: 10000002 cycles: 4902225 heartbeat IPC: 2.04 cumulative IPC: 2.04 (Simulation time: 00 hr 00 min 59 sec)
Heartbeat CPU 0 instructions: 20000002 cycles: 9748688 heartbeat IPC: 2.063 cumulative IPC: 2.052 (Simulation time: 00 hr 01 min 57 sec)
Heartbeat CPU 0 instructions: 30000006 cycles: 14571930 heartbeat IPC: 2.073 cumulative IPC: 2.059 (Simulation time: 00 hr 02 min 55 sec)
Heartbeat CPU 0 instructions: 40000007 cycles: 19406541 heartbeat IPC: 2.068 cumulative IPC: 2.061 (Simulation time: 00 hr 03 min 53 sec)
Heartbeat CPU 0 instructions: 50000007 cycles: 24255078 heartbeat IPC: 2.062 cumulative IPC: 2.061 (Simulation time: 00 hr 04 min 52 sec)
Heartbeat CPU 0 instructions: 60000008 cycles: 30550937 heartbeat IPC: 1.588 cumulative IPC: 1.964 (Simulation time: 00 hr 05 min 59 sec)
Heartbeat CPU 0 instructions: 70000012 cycles: 36689834 heartbeat IPC: 1.629 cumulative IPC: 1.908 (Simulation time: 00 hr 07 min 02 sec)
Heartbeat CPU 0 instructions: 80000013 cycles: 42835216 heartbeat IPC: 1.627 cumulative IPC: 1.868 (Simulation time: 00 hr 08 min 08 sec)
Heartbeat CPU 0 instructions: 90000016 cycles: 49011632 heartbeat IPC: 1.619 cumulative IPC: 1.836 (Simulation time: 00 hr 09 min 11 sec)
Heartbeat CPU 0 instructions: 100000018 cycles: 55187842 heartbeat IPC: 1.619 cumulative IPC: 1.812 (Simulation time: 00 hr 10 min 19 sec)
Heartbeat CPU 0 instructions: 110000019 cycles: 61365260 heartbeat IPC: 1.619 cumulative IPC: 1.793 (Simulation time: 00 hr 11 min 28 sec)
Heartbeat CPU 0 instructions: 120000020 cycles: 67550141 heartbeat IPC: 1.617 cumulative IPC: 1.776 (Simulation time: 00 hr 12 min 25 sec)
[ERROR_CYCLE] Error added at CPU cycle 70532402, interval 1, pending count: 1
[DRAM_CYCLE_ERROR] Cycle-based error applied! address=0x14bb0ad80 additional_latency=1990500 cycles
Heartbeat CPU 0 instructions: 130000020 cycles: 73754703 heartbeat IPC: 1.612 cumulative IPC: 1.763 (Simulation time: 00 hr 13 min 26 sec)
Heartbeat CPU 0 instructions: 140000022 cycles: 79972995 heartbeat IPC: 1.608 cumulative IPC: 1.751 (Simulation time: 00 hr 14 min 12 sec)
Heartbeat CPU 0 instructions: 150000024 cycles: 86266300 heartbeat IPC: 1.589 cumulative IPC: 1.739 (Simulation time: 00 hr 15 min 00 sec)
Heartbeat CPU 0 instructions: 160000024 cycles: 92496200 heartbeat IPC: 1.605 cumulative IPC: 1.73 (Simulation time: 00 hr 15 min 59 sec)
Heartbeat CPU 0 instructions: 170000025 cycles: 98722625 heartbeat IPC: 1.606 cumulative IPC: 1.722 (Simulation time: 00 hr 16 min 51 sec)
Heartbeat CPU 0 instructions: 180000026 cycles: 104966455 heartbeat IPC: 1.602 cumulative IPC: 1.715 (Simulation time: 00 hr 17 min 39 sec)
Heartbeat CPU 0 instructions: 190000027 cycles: 111228909 heartbeat IPC: 1.597 cumulative IPC: 1.708 (Simulation time: 00 hr 18 min 42 sec)
Heartbeat CPU 0 instructions: 200000029 cycles: 117489998 heartbeat IPC: 1.597 cumulative IPC: 1.702 (Simulation time: 00 hr 19 min 50 sec)
Heartbeat CPU 0 instructions: 210000030 cycles: 123738407 heartbeat IPC: 1.6 cumulative IPC: 1.697 (Simulation time: 00 hr 20 min 51 sec)
Heartbeat CPU 0 instructions: 220000031 cycles: 129967237 heartbeat IPC: 1.605 cumulative IPC: 1.693 (Simulation time: 00 hr 21 min 59 sec)
Heartbeat CPU 0 instructions: 230000034 cycles: 136208894 heartbeat IPC: 1.602 cumulative IPC: 1.689 (Simulation time: 00 hr 23 min 08 sec)
[ERROR_CYCLE] Error added at CPU cycle 141064802, interval 2, pending count: 1
[DRAM_CYCLE_ERROR] Cycle-based error applied! address=0x1ff214480 additional_latency=1990500 cycles
Heartbeat CPU 0 instructions: 240000034 cycles: 142593963 heartbeat IPC: 1.566 cumulative IPC: 1.683 (Simulation time: 00 hr 24 min 09 sec)
Heartbeat CPU 0 instructions: 250000034 cycles: 148840733 heartbeat IPC: 1.601 cumulative IPC: 1.68 (Simulation time: 00 hr 25 min 15 sec)
Heartbeat CPU 0 instructions: 260000038 cycles: 155050436 heartbeat IPC: 1.61 cumulative IPC: 1.677 (Simulation time: 00 hr 26 min 21 sec)
Heartbeat CPU 0 instructions: 270000041 cycles: 161254408 heartbeat IPC: 1.612 cumulative IPC: 1.674 (Simulation time: 00 hr 27 min 28 sec)
Heartbeat CPU 0 instructions: 280000042 cycles: 167483779 heartbeat IPC: 1.605 cumulative IPC: 1.672 (Simulation time: 00 hr 28 min 33 sec)
Heartbeat CPU 0 instructions: 290000042 cycles: 173724114 heartbeat IPC: 1.602 cumulative IPC: 1.669 (Simulation time: 00 hr 29 min 40 sec)
Heartbeat CPU 0 instructions: 300000046 cycles: 179959823 heartbeat IPC: 1.604 cumulative IPC: 1.667 (Simulation time: 00 hr 30 min 46 sec)
Heartbeat CPU 0 instructions: 310000049 cycles: 186170342 heartbeat IPC: 1.61 cumulative IPC: 1.665 (Simulation time: 00 hr 31 min 53 sec)
Heartbeat CPU 0 instructions: 320000053 cycles: 192406304 heartbeat IPC: 1.604 cumulative IPC: 1.663 (Simulation time: 00 hr 32 min 59 sec)
Heartbeat CPU 0 instructions: 330000054 cycles: 198677940 heartbeat IPC: 1.594 cumulative IPC: 1.661 (Simulation time: 00 hr 34 min 06 sec)
Heartbeat CPU 0 instructions: 340000054 cycles: 205041727 heartbeat IPC: 1.571 cumulative IPC: 1.658 (Simulation time: 00 hr 35 min 14 sec)
Heartbeat CPU 0 instructions: 350000056 cycles: 211334071 heartbeat IPC: 1.589 cumulative IPC: 1.656 (Simulation time: 00 hr 36 min 22 sec)
[ERROR_CYCLE] Error added at CPU cycle 211597203, interval 3, pending count: 1
[DRAM_CYCLE_ERROR] Cycle-based error applied! address=0x32efa1a40 additional_latency=1990500 cycles
Heartbeat CPU 0 instructions: 360000056 cycles: 217634406 heartbeat IPC: 1.587 cumulative IPC: 1.654 (Simulation time: 00 hr 37 min 29 sec)
Heartbeat CPU 0 instructions: 370000057 cycles: 223922111 heartbeat IPC: 1.59 cumulative IPC: 1.652 (Simulation time: 00 hr 38 min 36 sec)
Heartbeat CPU 0 instructions: 380000061 cycles: 230231473 heartbeat IPC: 1.585 cumulative IPC: 1.651 (Simulation time: 00 hr 39 min 43 sec)
Heartbeat CPU 0 instructions: 390000063 cycles: 236510617 heartbeat IPC: 1.593 cumulative IPC: 1.649 (Simulation time: 00 hr 40 min 39 sec)
Heartbeat CPU 0 instructions: 400000067 cycles: 242755727 heartbeat IPC: 1.601 cumulative IPC: 1.648 (Simulation time: 00 hr 41 min 44 sec)
Heartbeat CPU 0 instructions: 410000067 cycles: 248966330 heartbeat IPC: 1.61 cumulative IPC: 1.647 (Simulation time: 00 hr 42 min 53 sec)
Heartbeat CPU 0 instructions: 420000070 cycles: 255192353 heartbeat IPC: 1.606 cumulative IPC: 1.646 (Simulation time: 00 hr 44 min 02 sec)
Heartbeat CPU 0 instructions: 430000072 cycles: 261527148 heartbeat IPC: 1.579 cumulative IPC: 1.644 (Simulation time: 00 hr 45 min 12 sec)
Heartbeat CPU 0 instructions: 440000074 cycles: 267807970 heartbeat IPC: 1.592 cumulative IPC: 1.643 (Simulation time: 00 hr 46 min 21 sec)
Heartbeat CPU 0 instructions: 450000076 cycles: 274052082 heartbeat IPC: 1.602 cumulative IPC: 1.642 (Simulation time: 00 hr 47 min 30 sec)
Heartbeat CPU 0 instructions: 460000077 cycles: 280248735 heartbeat IPC: 1.614 cumulative IPC: 1.641 (Simulation time: 00 hr 48 min 39 sec)
[ERROR_CYCLE] Error added at CPU cycle 282129604, interval 4, pending count: 1
[DRAM_CYCLE_ERROR] Cycle-based error applied! address=0x1e386b900 additional_latency=1990500 cycles
Heartbeat CPU 0 instructions: 470000077 cycles: 286457663 heartbeat IPC: 1.611 cumulative IPC: 1.641 (Simulation time: 00 hr 49 min 36 sec)
Heartbeat CPU 0 instructions: 480000079 cycles: 292652431 heartbeat IPC: 1.614 cumulative IPC: 1.64 (Simulation time: 00 hr 50 min 25 sec)
Heartbeat CPU 0 instructions: 490000079 cycles: 298845017 heartbeat IPC: 1.615 cumulative IPC: 1.64 (Simulation time: 00 hr 51 min 32 sec)
Heartbeat CPU 0 instructions: 500000082 cycles: 305028587 heartbeat IPC: 1.617 cumulative IPC: 1.639 (Simulation time: 00 hr 52 min 27 sec)
Heartbeat CPU 0 instructions: 510000082 cycles: 311182435 heartbeat IPC: 1.625 cumulative IPC: 1.639 (Simulation time: 00 hr 53 min 19 sec)
Heartbeat CPU 0 instructions: 520000085 cycles: 317406361 heartbeat IPC: 1.607 cumulative IPC: 1.638 (Simulation time: 00 hr 54 min 23 sec)
Heartbeat CPU 0 instructions: 530000086 cycles: 323598076 heartbeat IPC: 1.615 cumulative IPC: 1.638 (Simulation time: 00 hr 55 min 32 sec)
Heartbeat CPU 0 instructions: 540000086 cycles: 329776098 heartbeat IPC: 1.619 cumulative IPC: 1.637 (Simulation time: 00 hr 56 min 40 sec)
Heartbeat CPU 0 instructions: 550000086 cycles: 335955493 heartbeat IPC: 1.618 cumulative IPC: 1.637 (Simulation time: 00 hr 57 min 48 sec)
Heartbeat CPU 0 instructions: 560000089 cycles: 342155284 heartbeat IPC: 1.613 cumulative IPC: 1.637 (Simulation time: 00 hr 58 min 57 sec)
Heartbeat CPU 0 instructions: 570000089 cycles: 348345406 heartbeat IPC: 1.615 cumulative IPC: 1.636 (Simulation time: 01 hr 00 min 05 sec)
[ERROR_CYCLE] Error added at CPU cycle 352662006, interval 5, pending count: 1
[DRAM_CYCLE_ERROR] Cycle-based error applied! address=0x1b2cddec0 additional_latency=1990500 cycles
Heartbeat CPU 0 instructions: 580000090 cycles: 354621482 heartbeat IPC: 1.593 cumulative IPC: 1.636 (Simulation time: 01 hr 01 min 08 sec)
Heartbeat CPU 0 instructions: 590000092 cycles: 360852216 heartbeat IPC: 1.605 cumulative IPC: 1.635 (Simulation time: 01 hr 01 min 54 sec)
Heartbeat CPU 0 instructions: 600000092 cycles: 367100813 heartbeat IPC: 1.6 cumulative IPC: 1.634 (Simulation time: 01 hr 02 min 42 sec)
Heartbeat CPU 0 instructions: 610000096 cycles: 373348251 heartbeat IPC: 1.601 cumulative IPC: 1.634 (Simulation time: 01 hr 03 min 35 sec)
Heartbeat CPU 0 instructions: 620000098 cycles: 379676828 heartbeat IPC: 1.58 cumulative IPC: 1.633 (Simulation time: 01 hr 04 min 38 sec)
Heartbeat CPU 0 instructions: 630000101 cycles: 385918387 heartbeat IPC: 1.602 cumulative IPC: 1.632 (Simulation time: 01 hr 05 min 31 sec)
Heartbeat CPU 0 instructions: 640000105 cycles: 392122699 heartbeat IPC: 1.612 cumulative IPC: 1.632 (Simulation time: 01 hr 06 min 26 sec)
Heartbeat CPU 0 instructions: 650000105 cycles: 398292809 heartbeat IPC: 1.621 cumulative IPC: 1.632 (Simulation time: 01 hr 07 min 31 sec)
Heartbeat CPU 0 instructions: 660000105 cycles: 404445832 heartbeat IPC: 1.625 cumulative IPC: 1.632 (Simulation time: 01 hr 08 min 37 sec)
Heartbeat CPU 0 instructions: 670000107 cycles: 410656477 heartbeat IPC: 1.61 cumulative IPC: 1.632 (Simulation time: 01 hr 09 min 42 sec)
Heartbeat CPU 0 instructions: 680000110 cycles: 416881553 heartbeat IPC: 1.606 cumulative IPC: 1.631 (Simulation time: 01 hr 10 min 48 sec)
Heartbeat CPU 0 instructions: 690000111 cycles: 423073870 heartbeat IPC: 1.615 cumulative IPC: 1.631 (Simulation time: 01 hr 11 min 54 sec)
[ERROR_CYCLE] Error added at CPU cycle 423194407, interval 6, pending count: 1
[DRAM_CYCLE_ERROR] Cycle-based error applied! address=0x1cc745d40 additional_latency=1990500 cycles
Heartbeat CPU 0 instructions: 700000113 cycles: 429262431 heartbeat IPC: 1.616 cumulative IPC: 1.631 (Simulation time: 01 hr 13 min 00 sec)
Heartbeat CPU 0 instructions: 710000114 cycles: 435505595 heartbeat IPC: 1.602 cumulative IPC: 1.63 (Simulation time: 01 hr 14 min 06 sec)
Heartbeat CPU 0 instructions: 720000116 cycles: 441718161 heartbeat IPC: 1.61 cumulative IPC: 1.63 (Simulation time: 01 hr 15 min 11 sec)
Heartbeat CPU 0 instructions: 730000120 cycles: 447922824 heartbeat IPC: 1.612 cumulative IPC: 1.63 (Simulation time: 01 hr 16 min 17 sec)
Heartbeat CPU 0 instructions: 740000124 cycles: 454120716 heartbeat IPC: 1.613 cumulative IPC: 1.63 (Simulation time: 01 hr 17 min 05 sec)
Heartbeat CPU 0 instructions: 750000124 cycles: 460309968 heartbeat IPC: 1.616 cumulative IPC: 1.629 (Simulation time: 01 hr 18 min 14 sec)
Heartbeat CPU 0 instructions: 760000127 cycles: 466496347 heartbeat IPC: 1.616 cumulative IPC: 1.629 (Simulation time: 01 hr 19 min 22 sec)
Heartbeat CPU 0 instructions: 770000129 cycles: 472697252 heartbeat IPC: 1.613 cumulative IPC: 1.629 (Simulation time: 01 hr 20 min 29 sec)
Heartbeat CPU 0 instructions: 780000129 cycles: 478885235 heartbeat IPC: 1.616 cumulative IPC: 1.629 (Simulation time: 01 hr 21 min 35 sec)
Heartbeat CPU 0 instructions: 790000131 cycles: 485078547 heartbeat IPC: 1.615 cumulative IPC: 1.629 (Simulation time: 01 hr 22 min 39 sec)
Heartbeat CPU 0 instructions: 800000131 cycles: 491312815 heartbeat IPC: 1.604 cumulative IPC: 1.628 (Simulation time: 01 hr 23 min 25 sec)
[ERROR_CYCLE] Error added at CPU cycle 493726807, interval 7, pending count: 1
[DRAM_CYCLE_ERROR] Cycle-based error applied! address=0x236d0e900 additional_latency=1990500 cycles
Heartbeat CPU 0 instructions: 810000133 cycles: 497495129 heartbeat IPC: 1.618 cumulative IPC: 1.628 (Simulation time: 01 hr 24 min 29 sec)
Heartbeat CPU 0 instructions: 820000136 cycles: 503720680 heartbeat IPC: 1.606 cumulative IPC: 1.628 (Simulation time: 01 hr 25 min 37 sec)
Heartbeat CPU 0 instructions: 830000140 cycles: 509922456 heartbeat IPC: 1.612 cumulative IPC: 1.628 (Simulation time: 01 hr 26 min 46 sec)
Heartbeat CPU 0 instructions: 840000142 cycles: 516087719 heartbeat IPC: 1.622 cumulative IPC: 1.628 (Simulation time: 01 hr 27 min 54 sec)
Heartbeat CPU 0 instructions: 850000144 cycles: 522255897 heartbeat IPC: 1.621 cumulative IPC: 1.628 (Simulation time: 01 hr 29 min 02 sec)
Heartbeat CPU 0 instructions: 860000148 cycles: 528436199 heartbeat IPC: 1.618 cumulative IPC: 1.627 (Simulation time: 01 hr 30 min 09 sec)
Heartbeat CPU 0 instructions: 870000149 cycles: 534648142 heartbeat IPC: 1.61 cumulative IPC: 1.627 (Simulation time: 01 hr 31 min 16 sec)
Heartbeat CPU 0 instructions: 880000150 cycles: 540837745 heartbeat IPC: 1.616 cumulative IPC: 1.627 (Simulation time: 01 hr 32 min 05 sec)
Heartbeat CPU 0 instructions: 890000153 cycles: 546981543 heartbeat IPC: 1.628 cumulative IPC: 1.627 (Simulation time: 01 hr 32 min 49 sec)
Heartbeat CPU 0 instructions: 900000153 cycles: 553160014 heartbeat IPC: 1.619 cumulative IPC: 1.627 (Simulation time: 01 hr 33 min 40 sec)
Heartbeat CPU 0 instructions: 910000155 cycles: 559309123 heartbeat IPC: 1.626 cumulative IPC: 1.627 (Simulation time: 01 hr 34 min 45 sec)
[ERROR_CYCLE] Error added at CPU cycle 564259208, interval 8, pending count: 1
[DRAM_CYCLE_ERROR] Cycle-based error applied! address=0x697112b80 additional_latency=1990500 cycles
Heartbeat CPU 0 instructions: 920000159 cycles: 565502227 heartbeat IPC: 1.615 cumulative IPC: 1.627 (Simulation time: 01 hr 35 min 51 sec)
Heartbeat CPU 0 instructions: 930000160 cycles: 571673126 heartbeat IPC: 1.621 cumulative IPC: 1.627 (Simulation time: 01 hr 36 min 57 sec)
Heartbeat CPU 0 instructions: 940000163 cycles: 577850515 heartbeat IPC: 1.619 cumulative IPC: 1.627 (Simulation time: 01 hr 38 min 03 sec)
Heartbeat CPU 0 instructions: 950000166 cycles: 584033830 heartbeat IPC: 1.617 cumulative IPC: 1.627 (Simulation time: 01 hr 39 min 09 sec)
Heartbeat CPU 0 instructions: 960000170 cycles: 590222120 heartbeat IPC: 1.616 cumulative IPC: 1.627 (Simulation time: 01 hr 40 min 15 sec)
Heartbeat CPU 0 instructions: 970000172 cycles: 596463374 heartbeat IPC: 1.602 cumulative IPC: 1.626 (Simulation time: 01 hr 41 min 21 sec)
Heartbeat CPU 0 instructions: 980000173 cycles: 602709928 heartbeat IPC: 1.601 cumulative IPC: 1.626 (Simulation time: 01 hr 42 min 28 sec)
Heartbeat CPU 0 instructions: 990000173 cycles: 608972927 heartbeat IPC: 1.597 cumulative IPC: 1.626 (Simulation time: 01 hr 43 min 28 sec)
Heartbeat CPU 0 instructions: 1000000174 cycles: 615161578 heartbeat IPC: 1.616 cumulative IPC: 1.626 (Simulation time: 01 hr 44 min 19 sec)
Heartbeat CPU 0 instructions: 1010000177 cycles: 621378997 heartbeat IPC: 1.608 cumulative IPC: 1.625 (Simulation time: 01 hr 45 min 25 sec)
Heartbeat CPU 0 instructions: 1020000179 cycles: 627597614 heartbeat IPC: 1.608 cumulative IPC: 1.625 (Simulation time: 01 hr 46 min 33 sec)
Heartbeat CPU 0 instructions: 1030000179 cycles: 633788277 heartbeat IPC: 1.615 cumulative IPC: 1.625 (Simulation time: 01 hr 47 min 41 sec)
[ERROR_CYCLE] Error added at CPU cycle 634791609, interval 9, pending count: 1
[DRAM_CYCLE_ERROR] Cycle-based error applied! address=0x21148c980 additional_latency=1990500 cycles
Heartbeat CPU 0 instructions: 1040000179 cycles: 639972748 heartbeat IPC: 1.617 cumulative IPC: 1.625 (Simulation time: 01 hr 48 min 49 sec)
Heartbeat CPU 0 instructions: 1050000183 cycles: 646147878 heartbeat IPC: 1.619 cumulative IPC: 1.625 (Simulation time: 01 hr 49 min 47 sec)
Heartbeat CPU 0 instructions: 1060000184 cycles: 652353795 heartbeat IPC: 1.611 cumulative IPC: 1.625 (Simulation time: 01 hr 50 min 36 sec)
Heartbeat CPU 0 instructions: 1070000187 cycles: 658558946 heartbeat IPC: 1.612 cumulative IPC: 1.625 (Simulation time: 01 hr 51 min 30 sec)
Heartbeat CPU 0 instructions: 1080000187 cycles: 664789937 heartbeat IPC: 1.605 cumulative IPC: 1.625 (Simulation time: 01 hr 52 min 21 sec)
Heartbeat CPU 0 instructions: 1090000188 cycles: 670959249 heartbeat IPC: 1.621 cumulative IPC: 1.625 (Simulation time: 01 hr 53 min 08 sec)
Heartbeat CPU 0 instructions: 1100000188 cycles: 677136188 heartbeat IPC: 1.619 cumulative IPC: 1.624 (Simulation time: 01 hr 53 min 53 sec)
Heartbeat CPU 0 instructions: 1110000188 cycles: 683330922 heartbeat IPC: 1.614 cumulative IPC: 1.624 (Simulation time: 01 hr 54 min 40 sec)
Heartbeat CPU 0 instructions: 1120000190 cycles: 689529215 heartbeat IPC: 1.613 cumulative IPC: 1.624 (Simulation time: 01 hr 55 min 38 sec)
Heartbeat CPU 0 instructions: 1130000192 cycles: 695705368 heartbeat IPC: 1.619 cumulative IPC: 1.624 (Simulation time: 01 hr 56 min 47 sec)
Heartbeat CPU 0 instructions: 1140000194 cycles: 701862923 heartbeat IPC: 1.624 cumulative IPC: 1.624 (Simulation time: 01 hr 57 min 55 sec)
[ERROR_CYCLE] Error added at CPU cycle 705324011, interval 10, pending count: 1
[DRAM_CYCLE_ERROR] Cycle-based error applied! address=0x76f43db40 additional_latency=1990500 cycles
Heartbeat CPU 0 instructions: 1150000194 cycles: 708018101 heartbeat IPC: 1.625 cumulative IPC: 1.624 (Simulation time: 01 hr 59 min 04 sec)
Heartbeat CPU 0 instructions: 1160000196 cycles: 714179211 heartbeat IPC: 1.623 cumulative IPC: 1.624 (Simulation time: 02 hr 00 min 12 sec)
Heartbeat CPU 0 instructions: 1170000199 cycles: 720399391 heartbeat IPC: 1.608 cumulative IPC: 1.624 (Simulation time: 02 hr 01 min 21 sec)
Heartbeat CPU 0 instructions: 1180000201 cycles: 726652277 heartbeat IPC: 1.599 cumulative IPC: 1.624 (Simulation time: 02 hr 02 min 31 sec)
Heartbeat CPU 0 instructions: 1190000204 cycles: 732839281 heartbeat IPC: 1.616 cumulative IPC: 1.624 (Simulation time: 02 hr 03 min 39 sec)
Heartbeat CPU 0 instructions: 1200000204 cycles: 739026764 heartbeat IPC: 1.616 cumulative IPC: 1.624 (Simulation time: 02 hr 04 min 48 sec)
Heartbeat CPU 0 instructions: 1210000205 cycles: 745291503 heartbeat IPC: 1.596 cumulative IPC: 1.624 (Simulation time: 02 hr 05 min 57 sec)
Heartbeat CPU 0 instructions: 1220000207 cycles: 751529919 heartbeat IPC: 1.603 cumulative IPC: 1.623 (Simulation time: 02 hr 07 min 06 sec)
Heartbeat CPU 0 instructions: 1230000209 cycles: 757780170 heartbeat IPC: 1.6 cumulative IPC: 1.623 (Simulation time: 02 hr 08 min 16 sec)
Heartbeat CPU 0 instructions: 1240000212 cycles: 763975944 heartbeat IPC: 1.614 cumulative IPC: 1.623 (Simulation time: 02 hr 09 min 25 sec)
Heartbeat CPU 0 instructions: 1250000212 cycles: 770180100 heartbeat IPC: 1.612 cumulative IPC: 1.623 (Simulation time: 02 hr 10 min 34 sec)
[ERROR_CYCLE] Error added at CPU cycle 775856412, interval 11, pending count: 1
[DRAM_CYCLE_ERROR] Cycle-based error applied! address=0x1cf5a4b00 additional_latency=1990500 cycles
Heartbeat CPU 0 instructions: 1260000214 cycles: 776429876 heartbeat IPC: 1.6 cumulative IPC: 1.623 (Simulation time: 02 hr 11 min 43 sec)
Heartbeat CPU 0 instructions: 1270000216 cycles: 782721799 heartbeat IPC: 1.589 cumulative IPC: 1.623 (Simulation time: 02 hr 12 min 52 sec)
Heartbeat CPU 0 instructions: 1280000219 cycles: 788949601 heartbeat IPC: 1.606 cumulative IPC: 1.622 (Simulation time: 02 hr 14 min 02 sec)
Heartbeat CPU 0 instructions: 1290000221 cycles: 795156970 heartbeat IPC: 1.611 cumulative IPC: 1.622 (Simulation time: 02 hr 15 min 11 sec)
Heartbeat CPU 0 instructions: 1300000223 cycles: 801400825 heartbeat IPC: 1.602 cumulative IPC: 1.622 (Simulation time: 02 hr 16 min 19 sec)
Heartbeat CPU 0 instructions: 1310000223 cycles: 807638032 heartbeat IPC: 1.603 cumulative IPC: 1.622 (Simulation time: 02 hr 17 min 28 sec)
Heartbeat CPU 0 instructions: 1320000225 cycles: 813858812 heartbeat IPC: 1.608 cumulative IPC: 1.622 (Simulation time: 02 hr 18 min 37 sec)
Heartbeat CPU 0 instructions: 1330000229 cycles: 820059247 heartbeat IPC: 1.613 cumulative IPC: 1.622 (Simulation time: 02 hr 19 min 47 sec)
Heartbeat CPU 0 instructions: 1340000230 cycles: 826237473 heartbeat IPC: 1.619 cumulative IPC: 1.622 (Simulation time: 02 hr 20 min 56 sec)
Heartbeat CPU 0 instructions: 1350000231 cycles: 832429749 heartbeat IPC: 1.615 cumulative IPC: 1.622 (Simulation time: 02 hr 22 min 05 sec)
Heartbeat CPU 0 instructions: 1360000234 cycles: 838741945 heartbeat IPC: 1.584 cumulative IPC: 1.621 (Simulation time: 02 hr 23 min 15 sec)
Heartbeat CPU 0 instructions: 1370000234 cycles: 844972152 heartbeat IPC: 1.605 cumulative IPC: 1.621 (Simulation time: 02 hr 24 min 24 sec)
[ERROR_CYCLE] Error added at CPU cycle 846388812, interval 12, pending count: 1
[DRAM_CYCLE_ERROR] Cycle-based error applied! address=0x26a13a1c0 additional_latency=1990500 cycles
Heartbeat CPU 0 instructions: 1380000236 cycles: 851213510 heartbeat IPC: 1.602 cumulative IPC: 1.621 (Simulation time: 02 hr 25 min 33 sec)
Heartbeat CPU 0 instructions: 1390000237 cycles: 857472730 heartbeat IPC: 1.598 cumulative IPC: 1.621 (Simulation time: 02 hr 26 min 43 sec)
Heartbeat CPU 0 instructions: 1400000238 cycles: 863764850 heartbeat IPC: 1.589 cumulative IPC: 1.621 (Simulation time: 02 hr 27 min 53 sec)
Heartbeat CPU 0 instructions: 1410000241 cycles: 870056222 heartbeat IPC: 1.589 cumulative IPC: 1.621 (Simulation time: 02 hr 29 min 03 sec)
Heartbeat CPU 0 instructions: 1420000242 cycles: 876310140 heartbeat IPC: 1.599 cumulative IPC: 1.62 (Simulation time: 02 hr 30 min 12 sec)
Heartbeat CPU 0 instructions: 1430000243 cycles: 882524484 heartbeat IPC: 1.609 cumulative IPC: 1.62 (Simulation time: 02 hr 31 min 15 sec)
Heartbeat CPU 0 instructions: 1440000247 cycles: 888755387 heartbeat IPC: 1.605 cumulative IPC: 1.62 (Simulation time: 02 hr 32 min 01 sec)
Heartbeat CPU 0 instructions: 1450000247 cycles: 895005489 heartbeat IPC: 1.6 cumulative IPC: 1.62 (Simulation time: 02 hr 32 min 49 sec)
Heartbeat CPU 0 instructions: 1460000251 cycles: 901303313 heartbeat IPC: 1.588 cumulative IPC: 1.62 (Simulation time: 02 hr 33 min 48 sec)
Heartbeat CPU 0 instructions: 1470000253 cycles: 907484200 heartbeat IPC: 1.618 cumulative IPC: 1.62 (Simulation time: 02 hr 34 min 35 sec)
Heartbeat CPU 0 instructions: 1480000257 cycles: 913643838 heartbeat IPC: 1.623 cumulative IPC: 1.62 (Simulation time: 02 hr 35 min 19 sec)
[ERROR_CYCLE] Error added at CPU cycle 916921213, interval 13, pending count: 1
[DRAM_CYCLE_ERROR] Cycle-based error applied! address=0x51ea0a80 additional_latency=1990500 cycles
Heartbeat CPU 0 instructions: 1490000257 cycles: 919805129 heartbeat IPC: 1.623 cumulative IPC: 1.62 (Simulation time: 02 hr 36 min 03 sec)
Heartbeat CPU 0 instructions: 1500000258 cycles: 926000446 heartbeat IPC: 1.614 cumulative IPC: 1.62 (Simulation time: 02 hr 36 min 52 sec)
Heartbeat CPU 0 instructions: 1510000259 cycles: 932166981 heartbeat IPC: 1.622 cumulative IPC: 1.62 (Simulation time: 02 hr 37 min 45 sec)
Heartbeat CPU 0 instructions: 1520000263 cycles: 938297347 heartbeat IPC: 1.631 cumulative IPC: 1.62 (Simulation time: 02 hr 38 min 29 sec)
Heartbeat CPU 0 instructions: 1530000263 cycles: 944404472 heartbeat IPC: 1.637 cumulative IPC: 1.62 (Simulation time: 02 hr 39 min 16 sec)
Heartbeat CPU 0 instructions: 1540000265 cycles: 950523781 heartbeat IPC: 1.634 cumulative IPC: 1.62 (Simulation time: 02 hr 40 min 08 sec)
Heartbeat CPU 0 instructions: 1550000267 cycles: 956738818 heartbeat IPC: 1.609 cumulative IPC: 1.62 (Simulation time: 02 hr 40 min 52 sec)
Heartbeat CPU 0 instructions: 1560000267 cycles: 962909251 heartbeat IPC: 1.621 cumulative IPC: 1.62 (Simulation time: 02 hr 41 min 59 sec)
Heartbeat CPU 0 instructions: 1570000268 cycles: 969082886 heartbeat IPC: 1.62 cumulative IPC: 1.62 (Simulation time: 02 hr 43 min 07 sec)
Heartbeat CPU 0 instructions: 1580000269 cycles: 975251466 heartbeat IPC: 1.621 cumulative IPC: 1.62 (Simulation time: 02 hr 44 min 14 sec)
Heartbeat CPU 0 instructions: 1590000269 cycles: 981412562 heartbeat IPC: 1.623 cumulative IPC: 1.62 (Simulation time: 02 hr 45 min 22 sec)
[ERROR_CYCLE] Error added at CPU cycle 987453615, interval 14, pending count: 1
[DRAM_CYCLE_ERROR] Cycle-based error applied! address=0x76f556fc0 additional_latency=1990500 cycles
Heartbeat CPU 0 instructions: 1600000269 cycles: 987637675 heartbeat IPC: 1.606 cumulative IPC: 1.62 (Simulation time: 02 hr 46 min 30 sec)
Heartbeat CPU 0 instructions: 1610000272 cycles: 993858733 heartbeat IPC: 1.607 cumulative IPC: 1.62 (Simulation time: 02 hr 47 min 38 sec)
Heartbeat CPU 0 instructions: 1620000272 cycles: 1000076037 heartbeat IPC: 1.608 cumulative IPC: 1.62 (Simulation time: 02 hr 48 min 47 sec)
Heartbeat CPU 0 instructions: 1630000274 cycles: 1006297775 heartbeat IPC: 1.607 cumulative IPC: 1.62 (Simulation time: 02 hr 49 min 55 sec)
Heartbeat CPU 0 instructions: 1640000274 cycles: 1012578636 heartbeat IPC: 1.592 cumulative IPC: 1.62 (Simulation time: 02 hr 51 min 04 sec)
Heartbeat CPU 0 instructions: 1650000277 cycles: 1018843456 heartbeat IPC: 1.596 cumulative IPC: 1.619 (Simulation time: 02 hr 52 min 13 sec)
Heartbeat CPU 0 instructions: 1660000277 cycles: 1025064418 heartbeat IPC: 1.607 cumulative IPC: 1.619 (Simulation time: 02 hr 53 min 22 sec)
Heartbeat CPU 0 instructions: 1670000280 cycles: 1031266833 heartbeat IPC: 1.612 cumulative IPC: 1.619 (Simulation time: 02 hr 54 min 30 sec)
Heartbeat CPU 0 instructions: 1680000280 cycles: 1037447199 heartbeat IPC: 1.618 cumulative IPC: 1.619 (Simulation time: 02 hr 55 min 37 sec)
Heartbeat CPU 0 instructions: 1690000283 cycles: 1043647449 heartbeat IPC: 1.613 cumulative IPC: 1.619 (Simulation time: 02 hr 56 min 44 sec)
Heartbeat CPU 0 instructions: 1700000285 cycles: 1049875183 heartbeat IPC: 1.606 cumulative IPC: 1.619 (Simulation time: 02 hr 57 min 52 sec)
Heartbeat CPU 0 instructions: 1710000288 cycles: 1056104973 heartbeat IPC: 1.605 cumulative IPC: 1.619 (Simulation time: 02 hr 58 min 53 sec)
[ERROR_CYCLE] Error added at CPU cycle 1057986016, interval 15, pending count: 1
[DRAM_CYCLE_ERROR] Cycle-based error applied! address=0x4162fdac0 additional_latency=1990500 cycles
Heartbeat CPU 0 instructions: 1720000288 cycles: 1062313804 heartbeat IPC: 1.611 cumulative IPC: 1.619 (Simulation time: 03 hr 00 min 00 sec)
Heartbeat CPU 0 instructions: 1730000288 cycles: 1068497260 heartbeat IPC: 1.617 cumulative IPC: 1.619 (Simulation time: 03 hr 01 min 07 sec)
Heartbeat CPU 0 instructions: 1740000291 cycles: 1074759355 heartbeat IPC: 1.597 cumulative IPC: 1.619 (Simulation time: 03 hr 02 min 15 sec)
Heartbeat CPU 0 instructions: 1750000291 cycles: 1080929318 heartbeat IPC: 1.621 cumulative IPC: 1.619 (Simulation time: 03 hr 03 min 22 sec)
Heartbeat CPU 0 instructions: 1760000291 cycles: 1087072958 heartbeat IPC: 1.628 cumulative IPC: 1.619 (Simulation time: 03 hr 04 min 30 sec)
Heartbeat CPU 0 instructions: 1770000292 cycles: 1093222695 heartbeat IPC: 1.626 cumulative IPC: 1.619 (Simulation time: 03 hr 05 min 38 sec)
Heartbeat CPU 0 instructions: 1780000295 cycles: 1099377697 heartbeat IPC: 1.625 cumulative IPC: 1.619 (Simulation time: 03 hr 06 min 45 sec)
Heartbeat CPU 0 instructions: 1790000296 cycles: 1105532401 heartbeat IPC: 1.625 cumulative IPC: 1.619 (Simulation time: 03 hr 07 min 53 sec)
Heartbeat CPU 0 instructions: 1800000299 cycles: 1111745136 heartbeat IPC: 1.61 cumulative IPC: 1.619 (Simulation time: 03 hr 08 min 59 sec)
Heartbeat CPU 0 instructions: 1810000299 cycles: 1117952565 heartbeat IPC: 1.611 cumulative IPC: 1.619 (Simulation time: 03 hr 10 min 03 sec)
Heartbeat CPU 0 instructions: 1820000301 cycles: 1124107232 heartbeat IPC: 1.625 cumulative IPC: 1.619 (Simulation time: 03 hr 10 min 55 sec)
[ERROR_CYCLE] Error added at CPU cycle 1128518416, interval 16, pending count: 1
[DRAM_CYCLE_ERROR] Cycle-based error applied! address=0x76f5e4d00 additional_latency=1990500 cycles
Heartbeat CPU 0 instructions: 1830000301 cycles: 1130330079 heartbeat IPC: 1.607 cumulative IPC: 1.619 (Simulation time: 03 hr 11 min 47 sec)
Heartbeat CPU 0 instructions: 1840000304 cycles: 1136547540 heartbeat IPC: 1.608 cumulative IPC: 1.619 (Simulation time: 03 hr 12 min 51 sec)
Heartbeat CPU 0 instructions: 1850000306 cycles: 1142755605 heartbeat IPC: 1.611 cumulative IPC: 1.619 (Simulation time: 03 hr 14 min 00 sec)
Heartbeat CPU 0 instructions: 1860000310 cycles: 1148951072 heartbeat IPC: 1.614 cumulative IPC: 1.619 (Simulation time: 03 hr 15 min 09 sec)
Heartbeat CPU 0 instructions: 1870000313 cycles: 1155130248 heartbeat IPC: 1.618 cumulative IPC: 1.619 (Simulation time: 03 hr 16 min 18 sec)
Heartbeat CPU 0 instructions: 1880000314 cycles: 1161308852 heartbeat IPC: 1.618 cumulative IPC: 1.619 (Simulation time: 03 hr 17 min 20 sec)
Heartbeat CPU 0 instructions: 1890000314 cycles: 1167551047 heartbeat IPC: 1.602 cumulative IPC: 1.619 (Simulation time: 03 hr 18 min 28 sec)
Heartbeat CPU 0 instructions: 1900000314 cycles: 1173792747 heartbeat IPC: 1.602 cumulative IPC: 1.619 (Simulation time: 03 hr 19 min 36 sec)
Heartbeat CPU 0 instructions: 1910000315 cycles: 1180012084 heartbeat IPC: 1.608 cumulative IPC: 1.619 (Simulation time: 03 hr 20 min 43 sec)
Heartbeat CPU 0 instructions: 1920000315 cycles: 1186289469 heartbeat IPC: 1.593 cumulative IPC: 1.618 (Simulation time: 03 hr 21 min 50 sec)
Heartbeat CPU 0 instructions: 1930000317 cycles: 1192492388 heartbeat IPC: 1.612 cumulative IPC: 1.618 (Simulation time: 03 hr 22 min 57 sec)
Heartbeat CPU 0 instructions: 1940000317 cycles: 1198717694 heartbeat IPC: 1.606 cumulative IPC: 1.618 (Simulation time: 03 hr 24 min 04 sec)
[ERROR_CYCLE] Error added at CPU cycle 1199050817, interval 17, pending count: 1
[DRAM_CYCLE_ERROR] Cycle-based error applied! address=0x40736f980 additional_latency=1990500 cycles
Heartbeat CPU 0 instructions: 1950000318 cycles: 1204933408 heartbeat IPC: 1.609 cumulative IPC: 1.618 (Simulation time: 03 hr 25 min 11 sec)
Heartbeat CPU 0 instructions: 1960000319 cycles: 1211131603 heartbeat IPC: 1.613 cumulative IPC: 1.618 (Simulation time: 03 hr 26 min 18 sec)
Heartbeat CPU 0 instructions: 1970000321 cycles: 1217310790 heartbeat IPC: 1.618 cumulative IPC: 1.618 (Simulation time: 03 hr 27 min 25 sec)
Heartbeat CPU 0 instructions: 1980000325 cycles: 1223498235 heartbeat IPC: 1.616 cumulative IPC: 1.618 (Simulation time: 03 hr 28 min 22 sec)
Heartbeat CPU 0 instructions: 1990000326 cycles: 1229730796 heartbeat IPC: 1.604 cumulative IPC: 1.618 (Simulation time: 03 hr 29 min 28 sec)

=== ERROR PAGE STATISTICS ===
Mode: CYCLE
Error Cycle Interval: 70532401 CPU cycles
Total Error Accesses: 17
==============================
Simulation finished CPU 0 instructions: 1999999510 cycles: 1235983334 cumulative IPC: 1.618 (Simulation time: 03 hr 30 min 35 sec)
Simulation complete CPU 0 instructions: 1999999510 cycles: 1235983334 cumulative IPC: 1.618 (Simulation time: 03 hr 30 min 35 sec)

ChampSim completed all CPUs

=== Simulation ===
CPU 0 runs test_traces/607.cactuBSSN_s-2421B.champsimtrace.xz

Region of Interest Statistics

CPU 0 cumulative IPC: 1.618 instructions: 1999999510 cycles: 1235983334
CPU 0 Branch Prediction Accuracy: 98.41% MPKI: 0.0223 Average ROB Occupancy at Mispredict: 322.1
Branch type MPKI
BRANCH_DIRECT_JUMP: 3.4e-05
BRANCH_INDIRECT: 4.45e-05
BRANCH_CONDITIONAL: 0.0122
BRANCH_DIRECT_CALL: 0.000332
BRANCH_INDIRECT_CALL: 1.5e-06
BRANCH_RETURN: 0.009687

cpu0->cpu0_STLB TOTAL        ACCESS:   18065940 HIT:   18065697 MISS:        243 MSHR_MERGE:          0
cpu0->cpu0_STLB LOAD         ACCESS:   18065940 HIT:   18065697 MISS:        243 MSHR_MERGE:          0
cpu0->cpu0_STLB RFO          ACCESS:          0 HIT:          0 MISS:          0 MSHR_MERGE:          0
cpu0->cpu0_STLB PREFETCH     ACCESS:          0 HIT:          0 MISS:          0 MSHR_MERGE:          0
cpu0->cpu0_STLB WRITE        ACCESS:          0 HIT:          0 MISS:          0 MSHR_MERGE:          0
cpu0->cpu0_STLB TRANSLATION  ACCESS:          0 HIT:          0 MISS:          0 MSHR_MERGE:          0
cpu0->cpu0_STLB PREFETCH REQUESTED:          0 ISSUED:          0 USEFUL:          0 USELESS:          0
cpu0->cpu0_STLB AVERAGE MISS LATENCY: 9076 cycles
cpu0->cpu0_L2C TOTAL        ACCESS:  251087097 HIT:  230704355 MISS:   20382742 MSHR_MERGE:          0
cpu0->cpu0_L2C LOAD         ACCESS:  217005814 HIT:  196653698 MISS:   20352116 MSHR_MERGE:          0
cpu0->cpu0_L2C RFO          ACCESS:   16173160 HIT:   16142552 MISS:      30608 MSHR_MERGE:          0
cpu0->cpu0_L2C PREFETCH     ACCESS:          0 HIT:          0 MISS:          0 MSHR_MERGE:          0
cpu0->cpu0_L2C WRITE        ACCESS:   17908123 HIT:   17908105 MISS:         18 MSHR_MERGE:          0
cpu0->cpu0_L2C TRANSLATION  ACCESS:          0 HIT:          0 MISS:          0 MSHR_MERGE:          0
cpu0->cpu0_L2C PREFETCH REQUESTED:          0 ISSUED:          0 USEFUL:          0 USELESS:          0
cpu0->cpu0_L2C AVERAGE MISS LATENCY: 95.31 cycles
cpu0->cpu0_L1I TOTAL        ACCESS:  392705226 HIT:  390047198 MISS:    2658028 MSHR_MERGE:    1307885
cpu0->cpu0_L1I LOAD         ACCESS:  392705226 HIT:  390047198 MISS:    2658028 MSHR_MERGE:    1307885
cpu0->cpu0_L1I RFO          ACCESS:          0 HIT:          0 MISS:          0 MSHR_MERGE:          0
cpu0->cpu0_L1I PREFETCH     ACCESS:          0 HIT:          0 MISS:          0 MSHR_MERGE:          0
cpu0->cpu0_L1I WRITE        ACCESS:          0 HIT:          0 MISS:          0 MSHR_MERGE:          0
cpu0->cpu0_L1I TRANSLATION  ACCESS:          0 HIT:          0 MISS:          0 MSHR_MERGE:          0
cpu0->cpu0_L1I PREFETCH REQUESTED:          0 ISSUED:          0 USEFUL:          0 USELESS:          0
cpu0->cpu0_L1I AVERAGE MISS LATENCY: 7.267 cycles
cpu0->cpu0_L1D TOTAL        ACCESS:  650986130 HIT:  376288698 MISS:  274697432 MSHR_MERGE:   42198636
cpu0->cpu0_L1D LOAD         ACCESS:  424236058 HIT:  167462175 MISS:  256773883 MSHR_MERGE:   40455323
cpu0->cpu0_L1D RFO          ACCESS:          0 HIT:          0 MISS:          0 MSHR_MERGE:          0
cpu0->cpu0_L1D PREFETCH     ACCESS:          0 HIT:          0 MISS:          0 MSHR_MERGE:          0
cpu0->cpu0_L1D WRITE        ACCESS:  226750072 HIT:  208826523 MISS:   17923549 MSHR_MERGE:    1743313
cpu0->cpu0_L1D TRANSLATION  ACCESS:          0 HIT:          0 MISS:          0 MSHR_MERGE:          0
cpu0->cpu0_L1D PREFETCH REQUESTED:          0 ISSUED:          0 USEFUL:          0 USELESS:          0
cpu0->cpu0_L1D AVERAGE MISS LATENCY: 17.52 cycles
cpu0->cpu0_ITLB TOTAL        ACCESS:  319408829 HIT:  319408816 MISS:         13 MSHR_MERGE:         10
cpu0->cpu0_ITLB LOAD         ACCESS:  319408829 HIT:  319408816 MISS:         13 MSHR_MERGE:         10
cpu0->cpu0_ITLB RFO          ACCESS:          0 HIT:          0 MISS:          0 MSHR_MERGE:          0
cpu0->cpu0_ITLB PREFETCH     ACCESS:          0 HIT:          0 MISS:          0 MSHR_MERGE:          0
cpu0->cpu0_ITLB WRITE        ACCESS:          0 HIT:          0 MISS:          0 MSHR_MERGE:          0
cpu0->cpu0_ITLB TRANSLATION  ACCESS:          0 HIT:          0 MISS:          0 MSHR_MERGE:          0
cpu0->cpu0_ITLB PREFETCH REQUESTED:          0 ISSUED:          0 USEFUL:          0 USELESS:          0
cpu0->cpu0_ITLB AVERAGE MISS LATENCY: 8638 cycles
cpu0->cpu0_DTLB TOTAL        ACCESS:  491337518 HIT:  454265227 MISS:   37072291 MSHR_MERGE:   19006354
cpu0->cpu0_DTLB LOAD         ACCESS:  491337518 HIT:  454265227 MISS:   37072291 MSHR_MERGE:   19006354
cpu0->cpu0_DTLB RFO          ACCESS:          0 HIT:          0 MISS:          0 MSHR_MERGE:          0
cpu0->cpu0_DTLB PREFETCH     ACCESS:          0 HIT:          0 MISS:          0 MSHR_MERGE:          0
cpu0->cpu0_DTLB WRITE        ACCESS:          0 HIT:          0 MISS:          0 MSHR_MERGE:          0
cpu0->cpu0_DTLB TRANSLATION  ACCESS:          0 HIT:          0 MISS:          0 MSHR_MERGE:          0
cpu0->cpu0_DTLB PREFETCH REQUESTED:          0 ISSUED:          0 USEFUL:          0 USELESS:          0
cpu0->cpu0_DTLB AVERAGE MISS LATENCY: 5.142 cycles
cpu0->LLC TOTAL        ACCESS:   22275863 HIT:    7173056 MISS:   15102807 MSHR_MERGE:          0
cpu0->LLC LOAD         ACCESS:   20352116 HIT:    5279965 MISS:   15072151 MSHR_MERGE:          0
cpu0->LLC RFO          ACCESS:      30608 HIT:          0 MISS:      30608 MSHR_MERGE:          0
cpu0->LLC PREFETCH     ACCESS:          0 HIT:          0 MISS:          0 MSHR_MERGE:          0
cpu0->LLC WRITE        ACCESS:    1893139 HIT:    1893091 MISS:         48 MSHR_MERGE:          0
cpu0->LLC TRANSLATION  ACCESS:          0 HIT:          0 MISS:          0 MSHR_MERGE:          0
cpu0->LLC PREFETCH REQUESTED:          0 ISSUED:          0 USEFUL:          0 USELESS:          0
cpu0->LLC AVERAGE MISS LATENCY: 107.4 cycles

DRAM Statistics

Channel 0 RQ ROW_BUFFER_HIT:      35203
  ROW_BUFFER_MISS:    7516412
  AVG DBUS CONGESTED CYCLE: 10.14
Channel 0 WQ ROW_BUFFER_HIT:     286471
  ROW_BUFFER_MISS:     657706
  FULL:          0
Channel 0 REFRESHES ISSUED:     102992

Channel 1 RQ ROW_BUFFER_HIT:      35216
  ROW_BUFFER_MISS:    7516409
  AVG DBUS CONGESTED CYCLE: 10.14
Channel 1 WQ ROW_BUFFER_HIT:     285635
  ROW_BUFFER_MISS:     658535
  FULL:          0
Channel 1 REFRESHES ISSUED:     102992
