[VMEM] WARNING: physical memory size is smaller than virtual memory size.

*** ChampSim Multicore Out-of-Order Simulator ***
Warmup Instructions: 0
Simulation Instructions: 9223372036854775807
Number of CPUs: 1
Page size: 4096

Off-chip DRAM Size: 32 GiB Channels: 2 Width: 32-bit Data Rate: 4807 MT/s
[ERROR_PAGE_MANAGER] Error latency: 173500 
[ERROR_PAGE_MANAGER] Random seed: 54321 (fixed for preload reproducibility)
[ERROR_PAGE_MANAGER] Cycle-based error modeling enabled
[ERROR_PAGE_MANAGER] Errors per interval: 1
[ERROR_PAGE_MANAGER] Error cycle interval: 705324015 cycles

=== ERROR PAGE STATISTICS ===
Mode: CYCLE
Error Cycle Interval: 705324015 CPU cycles
Total Error Accesses: 0
==============================
Warmup finished CPU 0 instructions: 0 cycles: 1 cumulative IPC: 0 (Simulation time: 00 hr 00 min 00 sec)
Warmup complete CPU 0 instructions: 0 cycles: 1 cumulative IPC: 0 (Simulation time: 00 hr 00 min 00 sec)
Heartbeat CPU 0 instructions: 10000001 cycles: 16836481 heartbeat IPC: 0.5939 cumulative IPC: 0.5939 (Simulation time: 00 hr 01 min 53 sec)
Heartbeat CPU 0 instructions: 20000002 cycles: 38827584 heartbeat IPC: 0.4547 cumulative IPC: 0.5151 (Simulation time: 00 hr 04 min 14 sec)
Heartbeat CPU 0 instructions: 30000002 cycles: 64487892 heartbeat IPC: 0.3897 cumulative IPC: 0.4652 (Simulation time: 00 hr 06 min 20 sec)
Heartbeat CPU 0 instructions: 40000005 cycles: 81935836 heartbeat IPC: 0.5731 cumulative IPC: 0.4882 (Simulation time: 00 hr 07 min 37 sec)
Heartbeat CPU 0 instructions: 50000005 cycles: 161337808 heartbeat IPC: 0.1259 cumulative IPC: 0.3099 (Simulation time: 00 hr 13 min 34 sec)
Heartbeat CPU 0 instructions: 60000005 cycles: 187181297 heartbeat IPC: 0.3869 cumulative IPC: 0.3205 (Simulation time: 00 hr 15 min 30 sec)
Heartbeat CPU 0 instructions: 70000005 cycles: 220556123 heartbeat IPC: 0.2996 cumulative IPC: 0.3174 (Simulation time: 00 hr 18 min 08 sec)
Heartbeat CPU 0 instructions: 80000005 cycles: 239160349 heartbeat IPC: 0.5375 cumulative IPC: 0.3345 (Simulation time: 00 hr 20 min 01 sec)
Heartbeat CPU 0 instructions: 90000007 cycles: 255723696 heartbeat IPC: 0.6037 cumulative IPC: 0.3519 (Simulation time: 00 hr 21 min 22 sec)
Heartbeat CPU 0 instructions: 100000007 cycles: 271473652 heartbeat IPC: 0.6349 cumulative IPC: 0.3684 (Simulation time: 00 hr 22 min 43 sec)
Heartbeat CPU 0 instructions: 110000007 cycles: 308778485 heartbeat IPC: 0.2681 cumulative IPC: 0.3562 (Simulation time: 00 hr 26 min 16 sec)
Heartbeat CPU 0 instructions: 120000009 cycles: 335828523 heartbeat IPC: 0.3697 cumulative IPC: 0.3573 (Simulation time: 00 hr 28 min 42 sec)
Heartbeat CPU 0 instructions: 130000009 cycles: 358966627 heartbeat IPC: 0.4322 cumulative IPC: 0.3622 (Simulation time: 00 hr 31 min 13 sec)
Heartbeat CPU 0 instructions: 140000010 cycles: 391584252 heartbeat IPC: 0.3066 cumulative IPC: 0.3575 (Simulation time: 00 hr 34 min 29 sec)
Heartbeat CPU 0 instructions: 150000010 cycles: 441215487 heartbeat IPC: 0.2015 cumulative IPC: 0.34 (Simulation time: 00 hr 38 min 38 sec)
Heartbeat CPU 0 instructions: 160000012 cycles: 457453118 heartbeat IPC: 0.6159 cumulative IPC: 0.3498 (Simulation time: 00 hr 40 min 17 sec)
Heartbeat CPU 0 instructions: 170000016 cycles: 467961652 heartbeat IPC: 0.9516 cumulative IPC: 0.3633 (Simulation time: 00 hr 41 min 24 sec)
Heartbeat CPU 0 instructions: 180000016 cycles: 515642190 heartbeat IPC: 0.2097 cumulative IPC: 0.3491 (Simulation time: 00 hr 45 min 19 sec)
Heartbeat CPU 0 instructions: 190000016 cycles: 526889194 heartbeat IPC: 0.8891 cumulative IPC: 0.3606 (Simulation time: 00 hr 46 min 39 sec)
Heartbeat CPU 0 instructions: 200000019 cycles: 545015676 heartbeat IPC: 0.5517 cumulative IPC: 0.367 (Simulation time: 00 hr 48 min 34 sec)
Heartbeat CPU 0 instructions: 210000021 cycles: 577030029 heartbeat IPC: 0.3124 cumulative IPC: 0.3639 (Simulation time: 00 hr 51 min 47 sec)
Heartbeat CPU 0 instructions: 220000024 cycles: 620009188 heartbeat IPC: 0.2327 cumulative IPC: 0.3548 (Simulation time: 00 hr 55 min 47 sec)
Heartbeat CPU 0 instructions: 230000024 cycles: 641425355 heartbeat IPC: 0.4669 cumulative IPC: 0.3586 (Simulation time: 00 hr 57 min 55 sec)
Heartbeat CPU 0 instructions: 240000024 cycles: 662675308 heartbeat IPC: 0.4706 cumulative IPC: 0.3622 (Simulation time: 00 hr 59 min 40 sec)
Heartbeat CPU 0 instructions: 250000028 cycles: 674688865 heartbeat IPC: 0.8324 cumulative IPC: 0.3705 (Simulation time: 01 hr 01 min 07 sec)
[ERROR_CYCLE] Error added at CPU cycle 705324016, interval 1, pending count: 1
[DRAM_CYCLE_ERROR] Cycle-based error applied! address=0x10b982c00 additional_latency=173500 cycles
Heartbeat CPU 0 instructions: 260000028 cycles: 739312107 heartbeat IPC: 0.1547 cumulative IPC: 0.3517 (Simulation time: 01 hr 06 min 09 sec)
Heartbeat CPU 0 instructions: 270000028 cycles: 819294999 heartbeat IPC: 0.125 cumulative IPC: 0.3296 (Simulation time: 01 hr 12 min 41 sec)
Heartbeat CPU 0 instructions: 280000028 cycles: 845106207 heartbeat IPC: 0.3874 cumulative IPC: 0.3313 (Simulation time: 01 hr 14 min 55 sec)
Heartbeat CPU 0 instructions: 290000029 cycles: 877444864 heartbeat IPC: 0.3092 cumulative IPC: 0.3305 (Simulation time: 01 hr 17 min 42 sec)
Heartbeat CPU 0 instructions: 300000030 cycles: 911369621 heartbeat IPC: 0.2948 cumulative IPC: 0.3292 (Simulation time: 01 hr 20 min 49 sec)
Heartbeat CPU 0 instructions: 310000030 cycles: 932265557 heartbeat IPC: 0.4786 cumulative IPC: 0.3325 (Simulation time: 01 hr 23 min 03 sec)
Heartbeat CPU 0 instructions: 320000030 cycles: 954303253 heartbeat IPC: 0.4538 cumulative IPC: 0.3353 (Simulation time: 01 hr 25 min 25 sec)
Heartbeat CPU 0 instructions: 330000032 cycles: 991664675 heartbeat IPC: 0.2677 cumulative IPC: 0.3328 (Simulation time: 01 hr 28 min 57 sec)
Heartbeat CPU 0 instructions: 340000032 cycles: 1006775574 heartbeat IPC: 0.6618 cumulative IPC: 0.3377 (Simulation time: 01 hr 30 min 32 sec)
Heartbeat CPU 0 instructions: 350000032 cycles: 1017321984 heartbeat IPC: 0.9482 cumulative IPC: 0.344 (Simulation time: 01 hr 31 min 48 sec)
Heartbeat CPU 0 instructions: 360000032 cycles: 1050364856 heartbeat IPC: 0.3026 cumulative IPC: 0.3427 (Simulation time: 01 hr 35 min 02 sec)
Heartbeat CPU 0 instructions: 370000034 cycles: 1071678520 heartbeat IPC: 0.4692 cumulative IPC: 0.3453 (Simulation time: 01 hr 37 min 17 sec)
Heartbeat CPU 0 instructions: 380000034 cycles: 1088581266 heartbeat IPC: 0.5916 cumulative IPC: 0.3491 (Simulation time: 01 hr 39 min 01 sec)
Heartbeat CPU 0 instructions: 390000037 cycles: 1128954608 heartbeat IPC: 0.2477 cumulative IPC: 0.3455 (Simulation time: 01 hr 41 min 58 sec)
Heartbeat CPU 0 instructions: 400000039 cycles: 1173561595 heartbeat IPC: 0.2242 cumulative IPC: 0.3408 (Simulation time: 01 hr 46 min 22 sec)
Heartbeat CPU 0 instructions: 410000039 cycles: 1190690018 heartbeat IPC: 0.5838 cumulative IPC: 0.3443 (Simulation time: 01 hr 48 min 17 sec)
Heartbeat CPU 0 instructions: 420000040 cycles: 1201697616 heartbeat IPC: 0.9085 cumulative IPC: 0.3495 (Simulation time: 01 hr 49 min 29 sec)
Heartbeat CPU 0 instructions: 430000041 cycles: 1220725553 heartbeat IPC: 0.5255 cumulative IPC: 0.3522 (Simulation time: 01 hr 51 min 33 sec)
Heartbeat CPU 0 instructions: 440000041 cycles: 1269293238 heartbeat IPC: 0.2059 cumulative IPC: 0.3466 (Simulation time: 01 hr 56 min 20 sec)
Heartbeat CPU 0 instructions: 450000041 cycles: 1279732742 heartbeat IPC: 0.9579 cumulative IPC: 0.3516 (Simulation time: 01 hr 57 min 38 sec)
Heartbeat CPU 0 instructions: 460000041 cycles: 1298782191 heartbeat IPC: 0.5249 cumulative IPC: 0.3542 (Simulation time: 01 hr 59 min 44 sec)
Heartbeat CPU 0 instructions: 470000043 cycles: 1310754647 heartbeat IPC: 0.8353 cumulative IPC: 0.3586 (Simulation time: 02 hr 00 min 56 sec)
Heartbeat CPU 0 instructions: 480000043 cycles: 1325437339 heartbeat IPC: 0.6811 cumulative IPC: 0.3621 (Simulation time: 02 hr 02 min 19 sec)
Heartbeat CPU 0 instructions: 490000043 cycles: 1371310034 heartbeat IPC: 0.218 cumulative IPC: 0.3573 (Simulation time: 02 hr 06 min 29 sec)
Heartbeat CPU 0 instructions: 500000046 cycles: 1390505701 heartbeat IPC: 0.521 cumulative IPC: 0.3596 (Simulation time: 02 hr 08 min 17 sec)
Heartbeat CPU 0 instructions: 510000047 cycles: 1410071168 heartbeat IPC: 0.5111 cumulative IPC: 0.3617 (Simulation time: 02 hr 10 min 02 sec)
[ERROR_CYCLE] Error added at CPU cycle 1410648031, interval 2, pending count: 1
[DRAM_CYCLE_ERROR] Cycle-based error applied! address=0x2cca76f70 additional_latency=173500 cycles
Heartbeat CPU 0 instructions: 520000048 cycles: 1423108819 heartbeat IPC: 0.767 cumulative IPC: 0.3654 (Simulation time: 02 hr 11 min 15 sec)
Heartbeat CPU 0 instructions: 530000052 cycles: 1439993811 heartbeat IPC: 0.5922 cumulative IPC: 0.3681 (Simulation time: 02 hr 13 min 05 sec)
Heartbeat CPU 0 instructions: 540000053 cycles: 1482448356 heartbeat IPC: 0.2355 cumulative IPC: 0.3643 (Simulation time: 02 hr 17 min 07 sec)
Heartbeat CPU 0 instructions: 550000054 cycles: 1536333919 heartbeat IPC: 0.1856 cumulative IPC: 0.358 (Simulation time: 02 hr 21 min 39 sec)
Heartbeat CPU 0 instructions: 560000054 cycles: 1588939944 heartbeat IPC: 0.1901 cumulative IPC: 0.3524 (Simulation time: 02 hr 26 min 17 sec)
Heartbeat CPU 0 instructions: 570000057 cycles: 1640240861 heartbeat IPC: 0.1949 cumulative IPC: 0.3475 (Simulation time: 02 hr 31 min 11 sec)
Heartbeat CPU 0 instructions: 580000060 cycles: 1690671919 heartbeat IPC: 0.1983 cumulative IPC: 0.3431 (Simulation time: 02 hr 36 min 01 sec)
Heartbeat CPU 0 instructions: 590000060 cycles: 1741988314 heartbeat IPC: 0.1949 cumulative IPC: 0.3387 (Simulation time: 02 hr 39 min 52 sec)
Heartbeat CPU 0 instructions: 600000061 cycles: 1792284620 heartbeat IPC: 0.1988 cumulative IPC: 0.3348 (Simulation time: 02 hr 44 min 06 sec)
Heartbeat CPU 0 instructions: 610000062 cycles: 1842577661 heartbeat IPC: 0.1988 cumulative IPC: 0.3311 (Simulation time: 02 hr 48 min 47 sec)
Heartbeat CPU 0 instructions: 620000063 cycles: 1890404902 heartbeat IPC: 0.2091 cumulative IPC: 0.328 (Simulation time: 02 hr 53 min 21 sec)
Heartbeat CPU 0 instructions: 630000065 cycles: 1937586789 heartbeat IPC: 0.2119 cumulative IPC: 0.3251 (Simulation time: 02 hr 57 min 53 sec)
Heartbeat CPU 0 instructions: 640000065 cycles: 1983256863 heartbeat IPC: 0.219 cumulative IPC: 0.3227 (Simulation time: 03 hr 02 min 19 sec)
Heartbeat CPU 0 instructions: 650000065 cycles: 2037386800 heartbeat IPC: 0.1847 cumulative IPC: 0.319 (Simulation time: 03 hr 07 min 12 sec)
Heartbeat CPU 0 instructions: 660000066 cycles: 2097184374 heartbeat IPC: 0.1672 cumulative IPC: 0.3147 (Simulation time: 03 hr 12 min 27 sec)
[ERROR_CYCLE] Error added at CPU cycle 2115972045, interval 3, pending count: 1
[DRAM_CYCLE_ERROR] Cycle-based error applied! address=0x54cb5a378 additional_latency=173500 cycles
Heartbeat CPU 0 instructions: 670000070 cycles: 2159359311 heartbeat IPC: 0.1608 cumulative IPC: 0.3103 (Simulation time: 03 hr 18 min 10 sec)
Heartbeat CPU 0 instructions: 680000072 cycles: 2228810689 heartbeat IPC: 0.144 cumulative IPC: 0.3051 (Simulation time: 03 hr 23 min 29 sec)
Heartbeat CPU 0 instructions: 690000076 cycles: 2287008675 heartbeat IPC: 0.1718 cumulative IPC: 0.3017 (Simulation time: 03 hr 28 min 17 sec)
Heartbeat CPU 0 instructions: 700000078 cycles: 2320811104 heartbeat IPC: 0.2958 cumulative IPC: 0.3016 (Simulation time: 03 hr 31 min 34 sec)
Heartbeat CPU 0 instructions: 710000082 cycles: 2338455689 heartbeat IPC: 0.5667 cumulative IPC: 0.3036 (Simulation time: 03 hr 33 min 33 sec)
Heartbeat CPU 0 instructions: 720000084 cycles: 2359084343 heartbeat IPC: 0.4848 cumulative IPC: 0.3052 (Simulation time: 03 hr 35 min 51 sec)
Heartbeat CPU 0 instructions: 730000086 cycles: 2375430615 heartbeat IPC: 0.6118 cumulative IPC: 0.3073 (Simulation time: 03 hr 37 min 42 sec)
Heartbeat CPU 0 instructions: 740000087 cycles: 2386521350 heartbeat IPC: 0.9017 cumulative IPC: 0.3101 (Simulation time: 03 hr 39 min 04 sec)
Heartbeat CPU 0 instructions: 750000088 cycles: 2409730768 heartbeat IPC: 0.4309 cumulative IPC: 0.3112 (Simulation time: 03 hr 41 min 31 sec)
Heartbeat CPU 0 instructions: 760000089 cycles: 2420860218 heartbeat IPC: 0.8985 cumulative IPC: 0.3139 (Simulation time: 03 hr 42 min 26 sec)
Heartbeat CPU 0 instructions: 770000091 cycles: 2435591054 heartbeat IPC: 0.6788 cumulative IPC: 0.3161 (Simulation time: 03 hr 43 min 40 sec)
Heartbeat CPU 0 instructions: 780000093 cycles: 2461075675 heartbeat IPC: 0.3924 cumulative IPC: 0.3169 (Simulation time: 03 hr 45 min 52 sec)
Heartbeat CPU 0 instructions: 790000093 cycles: 2486797877 heartbeat IPC: 0.3888 cumulative IPC: 0.3177 (Simulation time: 03 hr 48 min 03 sec)
[VMEM] WARNING: Out of physical memory, freeing ppages
Heartbeat CPU 0 instructions: 800000093 cycles: 2531170190 heartbeat IPC: 0.2254 cumulative IPC: 0.3161 (Simulation time: 03 hr 51 min 04 sec)
Heartbeat CPU 0 instructions: 810000094 cycles: 2565535962 heartbeat IPC: 0.291 cumulative IPC: 0.3157 (Simulation time: 03 hr 53 min 56 sec)
Heartbeat CPU 0 instructions: 820000094 cycles: 2593086499 heartbeat IPC: 0.363 cumulative IPC: 0.3162 (Simulation time: 03 hr 56 min 36 sec)
Heartbeat CPU 0 instructions: 830000094 cycles: 2613328582 heartbeat IPC: 0.494 cumulative IPC: 0.3176 (Simulation time: 03 hr 58 min 47 sec)
Heartbeat CPU 0 instructions: 840000097 cycles: 2655888472 heartbeat IPC: 0.235 cumulative IPC: 0.3163 (Simulation time: 04 hr 02 min 59 sec)
Heartbeat CPU 0 instructions: 850000099 cycles: 2689536793 heartbeat IPC: 0.2972 cumulative IPC: 0.316 (Simulation time: 04 hr 06 min 18 sec)
Heartbeat CPU 0 instructions: 860000100 cycles: 2706878793 heartbeat IPC: 0.5766 cumulative IPC: 0.3177 (Simulation time: 04 hr 08 min 14 sec)
Heartbeat CPU 0 instructions: 870000103 cycles: 2717890314 heartbeat IPC: 0.9081 cumulative IPC: 0.3201 (Simulation time: 04 hr 09 min 35 sec)
Heartbeat CPU 0 instructions: 880000103 cycles: 2739570563 heartbeat IPC: 0.4612 cumulative IPC: 0.3212 (Simulation time: 04 hr 11 min 55 sec)
Heartbeat CPU 0 instructions: 890000103 cycles: 2757871719 heartbeat IPC: 0.5464 cumulative IPC: 0.3227 (Simulation time: 04 hr 13 min 44 sec)
Heartbeat CPU 0 instructions: 900000107 cycles: 2795145942 heartbeat IPC: 0.2683 cumulative IPC: 0.322 (Simulation time: 04 hr 17 min 08 sec)
Heartbeat CPU 0 instructions: 910000107 cycles: 2811386089 heartbeat IPC: 0.6158 cumulative IPC: 0.3237 (Simulation time: 04 hr 18 min 36 sec)
[ERROR_CYCLE] Error added at CPU cycle 2821296060, interval 4, pending count: 1
[DRAM_CYCLE_ERROR] Cycle-based error applied! address=0x582076120 additional_latency=173500 cycles
Heartbeat CPU 0 instructions: 920000108 cycles: 2835435160 heartbeat IPC: 0.4158 cumulative IPC: 0.3245 (Simulation time: 04 hr 21 min 10 sec)
Heartbeat CPU 0 instructions: 930000109 cycles: 2853987812 heartbeat IPC: 0.539 cumulative IPC: 0.3259 (Simulation time: 04 hr 23 min 14 sec)
Heartbeat CPU 0 instructions: 940000113 cycles: 2907661078 heartbeat IPC: 0.1863 cumulative IPC: 0.3233 (Simulation time: 04 hr 28 min 26 sec)
Heartbeat CPU 0 instructions: 950000113 cycles: 2969140310 heartbeat IPC: 0.1627 cumulative IPC: 0.32 (Simulation time: 04 hr 34 min 23 sec)
Heartbeat CPU 0 instructions: 960000113 cycles: 3000619173 heartbeat IPC: 0.3177 cumulative IPC: 0.3199 (Simulation time: 04 hr 37 min 40 sec)
Heartbeat CPU 0 instructions: 970000113 cycles: 3015925688 heartbeat IPC: 0.6533 cumulative IPC: 0.3216 (Simulation time: 04 hr 39 min 26 sec)
Heartbeat CPU 0 instructions: 980000113 cycles: 3028886093 heartbeat IPC: 0.7716 cumulative IPC: 0.3236 (Simulation time: 04 hr 40 min 58 sec)
Heartbeat CPU 0 instructions: 990000115 cycles: 3054603601 heartbeat IPC: 0.3888 cumulative IPC: 0.3241 (Simulation time: 04 hr 43 min 43 sec)
Heartbeat CPU 0 instructions: 1000000115 cycles: 3069923278 heartbeat IPC: 0.6528 cumulative IPC: 0.3257 (Simulation time: 04 hr 45 min 20 sec)
Heartbeat CPU 0 instructions: 1010000115 cycles: 3087396081 heartbeat IPC: 0.5723 cumulative IPC: 0.3271 (Simulation time: 04 hr 46 min 51 sec)
Heartbeat CPU 0 instructions: 1020000118 cycles: 3107729671 heartbeat IPC: 0.4918 cumulative IPC: 0.3282 (Simulation time: 04 hr 49 min 02 sec)
Heartbeat CPU 0 instructions: 1030000118 cycles: 3125036141 heartbeat IPC: 0.5778 cumulative IPC: 0.3296 (Simulation time: 04 hr 50 min 59 sec)
Heartbeat CPU 0 instructions: 1040000118 cycles: 3145095713 heartbeat IPC: 0.4985 cumulative IPC: 0.3307 (Simulation time: 04 hr 52 min 41 sec)
Heartbeat CPU 0 instructions: 1050000118 cycles: 3217710351 heartbeat IPC: 0.1377 cumulative IPC: 0.3263 (Simulation time: 04 hr 59 min 01 sec)
Heartbeat CPU 0 instructions: 1060000120 cycles: 3276440488 heartbeat IPC: 0.1703 cumulative IPC: 0.3235 (Simulation time: 05 hr 03 min 39 sec)
Heartbeat CPU 0 instructions: 1070000124 cycles: 3290196774 heartbeat IPC: 0.7269 cumulative IPC: 0.3252 (Simulation time: 05 hr 05 min 16 sec)
Heartbeat CPU 0 instructions: 1080000124 cycles: 3304403049 heartbeat IPC: 0.7039 cumulative IPC: 0.3268 (Simulation time: 05 hr 06 min 57 sec)
Heartbeat CPU 0 instructions: 1090000127 cycles: 3361668189 heartbeat IPC: 0.1746 cumulative IPC: 0.3242 (Simulation time: 05 hr 12 min 28 sec)
Heartbeat CPU 0 instructions: 1100000129 cycles: 3386514479 heartbeat IPC: 0.4025 cumulative IPC: 0.3248 (Simulation time: 05 hr 14 min 33 sec)
Heartbeat CPU 0 instructions: 1110000132 cycles: 3402260669 heartbeat IPC: 0.6351 cumulative IPC: 0.3263 (Simulation time: 05 hr 16 min 07 sec)
Heartbeat CPU 0 instructions: 1120000135 cycles: 3415899099 heartbeat IPC: 0.7332 cumulative IPC: 0.3279 (Simulation time: 05 hr 17 min 44 sec)
Heartbeat CPU 0 instructions: 1130000136 cycles: 3427334275 heartbeat IPC: 0.8745 cumulative IPC: 0.3297 (Simulation time: 05 hr 19 min 09 sec)
Heartbeat CPU 0 instructions: 1140000137 cycles: 3468556526 heartbeat IPC: 0.2426 cumulative IPC: 0.3287 (Simulation time: 05 hr 23 min 13 sec)
Heartbeat CPU 0 instructions: 1150000140 cycles: 3487429945 heartbeat IPC: 0.5298 cumulative IPC: 0.3298 (Simulation time: 05 hr 25 min 19 sec)
Heartbeat CPU 0 instructions: 1160000144 cycles: 3520476188 heartbeat IPC: 0.3026 cumulative IPC: 0.3295 (Simulation time: 05 hr 28 min 12 sec)
[ERROR_CYCLE] Error added at CPU cycle 3526620075, interval 5, pending count: 1
[DRAM_CYCLE_ERROR] Cycle-based error applied! address=0x4a6135280 additional_latency=173500 cycles
Heartbeat CPU 0 instructions: 1170000146 cycles: 3536286674 heartbeat IPC: 0.6325 cumulative IPC: 0.3309 (Simulation time: 05 hr 29 min 29 sec)
Heartbeat CPU 0 instructions: 1180000149 cycles: 3555902823 heartbeat IPC: 0.5098 cumulative IPC: 0.3318 (Simulation time: 05 hr 31 min 10 sec)
Heartbeat CPU 0 instructions: 1190000149 cycles: 3605281838 heartbeat IPC: 0.2025 cumulative IPC: 0.3301 (Simulation time: 05 hr 34 min 30 sec)
Heartbeat CPU 0 instructions: 1200000152 cycles: 3621159985 heartbeat IPC: 0.6298 cumulative IPC: 0.3314 (Simulation time: 05 hr 35 min 46 sec)
Heartbeat CPU 0 instructions: 1210000156 cycles: 3647003321 heartbeat IPC: 0.3869 cumulative IPC: 0.3318 (Simulation time: 05 hr 38 min 26 sec)
Heartbeat CPU 0 instructions: 1220000159 cycles: 3670261700 heartbeat IPC: 0.43 cumulative IPC: 0.3324 (Simulation time: 05 hr 41 min 00 sec)
Heartbeat CPU 0 instructions: 1230000162 cycles: 3682063238 heartbeat IPC: 0.8473 cumulative IPC: 0.3341 (Simulation time: 05 hr 42 min 26 sec)
Heartbeat CPU 0 instructions: 1240000164 cycles: 3695333329 heartbeat IPC: 0.7536 cumulative IPC: 0.3356 (Simulation time: 05 hr 44 min 00 sec)
Heartbeat CPU 0 instructions: 1250000167 cycles: 3733413615 heartbeat IPC: 0.2626 cumulative IPC: 0.3348 (Simulation time: 05 hr 47 min 48 sec)
Heartbeat CPU 0 instructions: 1260000170 cycles: 3750155264 heartbeat IPC: 0.5973 cumulative IPC: 0.336 (Simulation time: 05 hr 49 min 41 sec)
Heartbeat CPU 0 instructions: 1270000170 cycles: 3771353892 heartbeat IPC: 0.4717 cumulative IPC: 0.3367 (Simulation time: 05 hr 51 min 49 sec)
Heartbeat CPU 0 instructions: 1280000174 cycles: 3796425644 heartbeat IPC: 0.3989 cumulative IPC: 0.3372 (Simulation time: 05 hr 53 min 43 sec)
Heartbeat CPU 0 instructions: 1290000176 cycles: 3843865730 heartbeat IPC: 0.2108 cumulative IPC: 0.3356 (Simulation time: 05 hr 57 min 48 sec)
Heartbeat CPU 0 instructions: 1300000178 cycles: 3857156845 heartbeat IPC: 0.7524 cumulative IPC: 0.337 (Simulation time: 05 hr 59 min 01 sec)
Heartbeat CPU 0 instructions: 1310000178 cycles: 3872198640 heartbeat IPC: 0.6648 cumulative IPC: 0.3383 (Simulation time: 06 hr 00 min 27 sec)
Heartbeat CPU 0 instructions: 1320000178 cycles: 3884990476 heartbeat IPC: 0.7817 cumulative IPC: 0.3398 (Simulation time: 06 hr 02 min 03 sec)
Heartbeat CPU 0 instructions: 1330000178 cycles: 3916456674 heartbeat IPC: 0.3178 cumulative IPC: 0.3396 (Simulation time: 06 hr 05 min 18 sec)
Heartbeat CPU 0 instructions: 1340000182 cycles: 3972963565 heartbeat IPC: 0.177 cumulative IPC: 0.3373 (Simulation time: 06 hr 10 min 50 sec)
Heartbeat CPU 0 instructions: 1350000182 cycles: 4009851349 heartbeat IPC: 0.2711 cumulative IPC: 0.3367 (Simulation time: 06 hr 14 min 13 sec)
Heartbeat CPU 0 instructions: 1360000185 cycles: 4023041727 heartbeat IPC: 0.7581 cumulative IPC: 0.3381 (Simulation time: 06 hr 15 min 47 sec)
Heartbeat CPU 0 instructions: 1370000185 cycles: 4046305097 heartbeat IPC: 0.4299 cumulative IPC: 0.3386 (Simulation time: 06 hr 18 min 21 sec)
Heartbeat CPU 0 instructions: 1380000188 cycles: 4062330400 heartbeat IPC: 0.624 cumulative IPC: 0.3397 (Simulation time: 06 hr 19 min 44 sec)
Heartbeat CPU 0 instructions: 1390000191 cycles: 4075536057 heartbeat IPC: 0.7573 cumulative IPC: 0.3411 (Simulation time: 06 hr 21 min 07 sec)
Heartbeat CPU 0 instructions: 1400000191 cycles: 4089998794 heartbeat IPC: 0.6914 cumulative IPC: 0.3423 (Simulation time: 06 hr 22 min 44 sec)
Heartbeat CPU 0 instructions: 1410000194 cycles: 4113498172 heartbeat IPC: 0.4255 cumulative IPC: 0.3428 (Simulation time: 06 hr 24 min 46 sec)
Heartbeat CPU 0 instructions: 1420000195 cycles: 4125415815 heartbeat IPC: 0.8391 cumulative IPC: 0.3442 (Simulation time: 06 hr 25 min 45 sec)
Heartbeat CPU 0 instructions: 1430000197 cycles: 4140110603 heartbeat IPC: 0.6805 cumulative IPC: 0.3454 (Simulation time: 06 hr 27 min 00 sec)
Heartbeat CPU 0 instructions: 1440000197 cycles: 4184779761 heartbeat IPC: 0.2239 cumulative IPC: 0.3441 (Simulation time: 06 hr 31 min 10 sec)
Heartbeat CPU 0 instructions: 1450000200 cycles: 4208183498 heartbeat IPC: 0.4273 cumulative IPC: 0.3446 (Simulation time: 06 hr 33 min 31 sec)
Heartbeat CPU 0 instructions: 1460000200 cycles: 4222439418 heartbeat IPC: 0.7015 cumulative IPC: 0.3458 (Simulation time: 06 hr 34 min 41 sec)
[ERROR_CYCLE] Error added at CPU cycle 4231944091, interval 6, pending count: 1
[DRAM_CYCLE_ERROR] Cycle-based error applied! address=0x676a70430 additional_latency=173500 cycles
Heartbeat CPU 0 instructions: 1470000204 cycles: 4237267830 heartbeat IPC: 0.6744 cumulative IPC: 0.3469 (Simulation time: 06 hr 35 min 53 sec)
Heartbeat CPU 0 instructions: 1480000204 cycles: 4253721524 heartbeat IPC: 0.6078 cumulative IPC: 0.3479 (Simulation time: 06 hr 37 min 21 sec)
Heartbeat CPU 0 instructions: 1490000204 cycles: 4302541381 heartbeat IPC: 0.2048 cumulative IPC: 0.3463 (Simulation time: 06 hr 41 min 20 sec)
Heartbeat CPU 0 instructions: 1500000205 cycles: 4317243774 heartbeat IPC: 0.6802 cumulative IPC: 0.3474 (Simulation time: 06 hr 43 min 01 sec)
Heartbeat CPU 0 instructions: 1510000205 cycles: 4330816238 heartbeat IPC: 0.7368 cumulative IPC: 0.3487 (Simulation time: 06 hr 44 min 37 sec)
Heartbeat CPU 0 instructions: 1520000205 cycles: 4346524273 heartbeat IPC: 0.6366 cumulative IPC: 0.3497 (Simulation time: 06 hr 46 min 25 sec)
Heartbeat CPU 0 instructions: 1530000205 cycles: 4386263571 heartbeat IPC: 0.2516 cumulative IPC: 0.3488 (Simulation time: 06 hr 50 min 20 sec)
Heartbeat CPU 0 instructions: 1540000205 cycles: 4435181291 heartbeat IPC: 0.2044 cumulative IPC: 0.3472 (Simulation time: 06 hr 53 min 48 sec)
Heartbeat CPU 0 instructions: 1550000206 cycles: 4484717272 heartbeat IPC: 0.2019 cumulative IPC: 0.3456 (Simulation time: 06 hr 58 min 30 sec)
Heartbeat CPU 0 instructions: 1560000210 cycles: 4533646007 heartbeat IPC: 0.2044 cumulative IPC: 0.3441 (Simulation time: 07 hr 03 min 12 sec)
Heartbeat CPU 0 instructions: 1570000210 cycles: 4585733875 heartbeat IPC: 0.192 cumulative IPC: 0.3424 (Simulation time: 07 hr 07 min 21 sec)
Heartbeat CPU 0 instructions: 1580000212 cycles: 4653410223 heartbeat IPC: 0.1478 cumulative IPC: 0.3395 (Simulation time: 07 hr 12 min 29 sec)
Heartbeat CPU 0 instructions: 1590000216 cycles: 4723193117 heartbeat IPC: 0.1433 cumulative IPC: 0.3366 (Simulation time: 07 hr 19 min 07 sec)
Heartbeat CPU 0 instructions: 1600000218 cycles: 4774851763 heartbeat IPC: 0.1936 cumulative IPC: 0.3351 (Simulation time: 07 hr 24 min 09 sec)
Heartbeat CPU 0 instructions: 1610000218 cycles: 4791802160 heartbeat IPC: 0.59 cumulative IPC: 0.336 (Simulation time: 07 hr 26 min 02 sec)
Heartbeat CPU 0 instructions: 1620000222 cycles: 4804544145 heartbeat IPC: 0.7848 cumulative IPC: 0.3372 (Simulation time: 07 hr 27 min 30 sec)
[VMEM] WARNING: Out of physical memory, freeing ppages
Heartbeat CPU 0 instructions: 1630000223 cycles: 4833788678 heartbeat IPC: 0.3419 cumulative IPC: 0.3372 (Simulation time: 07 hr 29 min 50 sec)
Heartbeat CPU 0 instructions: 1640000224 cycles: 4852198782 heartbeat IPC: 0.5432 cumulative IPC: 0.338 (Simulation time: 07 hr 31 min 30 sec)
Heartbeat CPU 0 instructions: 1650000228 cycles: 4869198012 heartbeat IPC: 0.5883 cumulative IPC: 0.3389 (Simulation time: 07 hr 33 min 21 sec)
Heartbeat CPU 0 instructions: 1660000230 cycles: 4888724089 heartbeat IPC: 0.5121 cumulative IPC: 0.3396 (Simulation time: 07 hr 35 min 30 sec)
Heartbeat CPU 0 instructions: 1670000231 cycles: 4931742531 heartbeat IPC: 0.2325 cumulative IPC: 0.3386 (Simulation time: 07 hr 39 min 48 sec)
[ERROR_CYCLE] Error added at CPU cycle 4937268106, interval 7, pending count: 1
[DRAM_CYCLE_ERROR] Cycle-based error applied! address=0x7189d7b70 additional_latency=173500 cycles
Heartbeat CPU 0 instructions: 1680000231 cycles: 4969901718 heartbeat IPC: 0.2621 cumulative IPC: 0.338 (Simulation time: 07 hr 43 min 51 sec)
Heartbeat CPU 0 instructions: 1690000231 cycles: 4980615235 heartbeat IPC: 0.9334 cumulative IPC: 0.3393 (Simulation time: 07 hr 45 min 11 sec)
Heartbeat CPU 0 instructions: 1700000232 cycles: 4999740133 heartbeat IPC: 0.5229 cumulative IPC: 0.34 (Simulation time: 07 hr 47 min 19 sec)
Heartbeat CPU 0 instructions: 1710000236 cycles: 5018653340 heartbeat IPC: 0.5287 cumulative IPC: 0.3407 (Simulation time: 07 hr 49 min 26 sec)
Heartbeat CPU 0 instructions: 1720000238 cycles: 5035122593 heartbeat IPC: 0.6072 cumulative IPC: 0.3416 (Simulation time: 07 hr 51 min 10 sec)
Heartbeat CPU 0 instructions: 1730000238 cycles: 5047641189 heartbeat IPC: 0.7988 cumulative IPC: 0.3427 (Simulation time: 07 hr 52 min 24 sec)
Heartbeat CPU 0 instructions: 1740000240 cycles: 5077795507 heartbeat IPC: 0.3316 cumulative IPC: 0.3427 (Simulation time: 07 hr 54 min 31 sec)
Heartbeat CPU 0 instructions: 1750000242 cycles: 5091191288 heartbeat IPC: 0.7465 cumulative IPC: 0.3437 (Simulation time: 07 hr 55 min 33 sec)
Heartbeat CPU 0 instructions: 1760000244 cycles: 5117351467 heartbeat IPC: 0.3823 cumulative IPC: 0.3439 (Simulation time: 07 hr 57 min 53 sec)
Heartbeat CPU 0 instructions: 1770000244 cycles: 5134494292 heartbeat IPC: 0.5833 cumulative IPC: 0.3447 (Simulation time: 07 hr 59 min 44 sec)
Heartbeat CPU 0 instructions: 1780000245 cycles: 5164647746 heartbeat IPC: 0.3316 cumulative IPC: 0.3447 (Simulation time: 08 hr 02 min 14 sec)
Heartbeat CPU 0 instructions: 1790000247 cycles: 5233577480 heartbeat IPC: 0.1451 cumulative IPC: 0.342 (Simulation time: 08 hr 08 min 39 sec)
Heartbeat CPU 0 instructions: 1800000249 cycles: 5268957947 heartbeat IPC: 0.2826 cumulative IPC: 0.3416 (Simulation time: 08 hr 12 min 04 sec)
Heartbeat CPU 0 instructions: 1810000250 cycles: 5282633735 heartbeat IPC: 0.7312 cumulative IPC: 0.3426 (Simulation time: 08 hr 13 min 20 sec)
Heartbeat CPU 0 instructions: 1820000254 cycles: 5315564891 heartbeat IPC: 0.3037 cumulative IPC: 0.3424 (Simulation time: 08 hr 16 min 45 sec)
Heartbeat CPU 0 instructions: 1830000257 cycles: 5329313604 heartbeat IPC: 0.7273 cumulative IPC: 0.3434 (Simulation time: 08 hr 18 min 22 sec)
Heartbeat CPU 0 instructions: 1840000258 cycles: 5338752580 heartbeat IPC: 1.059 cumulative IPC: 0.3446 (Simulation time: 08 hr 19 min 34 sec)
Heartbeat CPU 0 instructions: 1850000262 cycles: 5355332784 heartbeat IPC: 0.6031 cumulative IPC: 0.3455 (Simulation time: 08 hr 21 min 19 sec)
Heartbeat CPU 0 instructions: 1860000265 cycles: 5380703409 heartbeat IPC: 0.3942 cumulative IPC: 0.3457 (Simulation time: 08 hr 24 min 01 sec)
Heartbeat CPU 0 instructions: 1870000265 cycles: 5406591638 heartbeat IPC: 0.3863 cumulative IPC: 0.3459 (Simulation time: 08 hr 26 min 44 sec)
Heartbeat CPU 0 instructions: 1880000265 cycles: 5419449482 heartbeat IPC: 0.7777 cumulative IPC: 0.3469 (Simulation time: 08 hr 28 min 11 sec)
Heartbeat CPU 0 instructions: 1890000265 cycles: 5444330247 heartbeat IPC: 0.4019 cumulative IPC: 0.3472 (Simulation time: 08 hr 30 min 52 sec)
Heartbeat CPU 0 instructions: 1900000266 cycles: 5455890833 heartbeat IPC: 0.865 cumulative IPC: 0.3482 (Simulation time: 08 hr 31 min 59 sec)
Heartbeat CPU 0 instructions: 1910000266 cycles: 5469723199 heartbeat IPC: 0.7229 cumulative IPC: 0.3492 (Simulation time: 08 hr 33 min 21 sec)
Heartbeat CPU 0 instructions: 1920000266 cycles: 5481271072 heartbeat IPC: 0.866 cumulative IPC: 0.3503 (Simulation time: 08 hr 34 min 37 sec)
Heartbeat CPU 0 instructions: 1930000266 cycles: 5505634873 heartbeat IPC: 0.4104 cumulative IPC: 0.3505 (Simulation time: 08 hr 36 min 57 sec)
Heartbeat CPU 0 instructions: 1940000267 cycles: 5519575812 heartbeat IPC: 0.7173 cumulative IPC: 0.3515 (Simulation time: 08 hr 38 min 29 sec)
Heartbeat CPU 0 instructions: 1950000268 cycles: 5540297779 heartbeat IPC: 0.4826 cumulative IPC: 0.352 (Simulation time: 08 hr 40 min 34 sec)
Heartbeat CPU 0 instructions: 1960000268 cycles: 5554736963 heartbeat IPC: 0.6926 cumulative IPC: 0.3529 (Simulation time: 08 hr 42 min 13 sec)
Heartbeat CPU 0 instructions: 1970000269 cycles: 5586851255 heartbeat IPC: 0.3114 cumulative IPC: 0.3526 (Simulation time: 08 hr 45 min 11 sec)
[ERROR_CYCLE] Error added at CPU cycle 5642592121, interval 8, pending count: 1
[DRAM_CYCLE_ERROR] Cycle-based error applied! address=0x5d99c0250 additional_latency=173500 cycles
Heartbeat CPU 0 instructions: 1980000269 cycles: 5646555576 heartbeat IPC: 0.1675 cumulative IPC: 0.3507 (Simulation time: 08 hr 49 min 43 sec)
Heartbeat CPU 0 instructions: 1990000270 cycles: 5706282918 heartbeat IPC: 0.1674 cumulative IPC: 0.3487 (Simulation time: 08 hr 55 min 20 sec)

=== ERROR PAGE STATISTICS ===
Mode: CYCLE
Error Cycle Interval: 705324015 CPU cycles
Total Error Accesses: 8
==============================
Simulation finished CPU 0 instructions: 1999999938 cycles: 5763126014 cumulative IPC: 0.347 (Simulation time: 09 hr 00 min 44 sec)
Simulation complete CPU 0 instructions: 1999999938 cycles: 5763126014 cumulative IPC: 0.347 (Simulation time: 09 hr 00 min 44 sec)

ChampSim completed all CPUs

=== Simulation ===
CPU 0 runs test_traces/605.mcf_s-994B.champsimtrace.xz

Region of Interest Statistics

CPU 0 cumulative IPC: 0.347 instructions: 1999999938 cycles: 5763126014
CPU 0 Branch Prediction Accuracy: 92.62% MPKI: 18.99 Average ROB Occupancy at Mispredict: 34.57
Branch type MPKI
BRANCH_DIRECT_JUMP: 0.123
BRANCH_INDIRECT: 0
BRANCH_CONDITIONAL: 18.86
BRANCH_DIRECT_CALL: 6.5e-06
BRANCH_INDIRECT_CALL: 0.0004185
BRANCH_RETURN: 1e-05

cpu0->cpu0_STLB TOTAL        ACCESS:   24265432 HIT:   11227794 MISS:   13037638 MSHR_MERGE:          0
cpu0->cpu0_STLB LOAD         ACCESS:   24265432 HIT:   11227794 MISS:   13037638 MSHR_MERGE:          0
cpu0->cpu0_STLB RFO          ACCESS:          0 HIT:          0 MISS:          0 MSHR_MERGE:          0
cpu0->cpu0_STLB PREFETCH     ACCESS:          0 HIT:          0 MISS:          0 MSHR_MERGE:          0
cpu0->cpu0_STLB WRITE        ACCESS:          0 HIT:          0 MISS:          0 MSHR_MERGE:          0
cpu0->cpu0_STLB TRANSLATION  ACCESS:          0 HIT:          0 MISS:          0 MSHR_MERGE:          0
cpu0->cpu0_STLB PREFETCH REQUESTED:          0 ISSUED:          0 USEFUL:          0 USELESS:          0
cpu0->cpu0_STLB AVERAGE MISS LATENCY: 234.1 cycles
cpu0->cpu0_L2C TOTAL        ACCESS:   81182095 HIT:   27437958 MISS:   53744137 MSHR_MERGE:          0
cpu0->cpu0_L2C LOAD         ACCESS:   75044099 HIT:   21364486 MISS:   53679613 MSHR_MERGE:          0
cpu0->cpu0_L2C RFO          ACCESS:     492988 HIT:     432820 MISS:      60168 MSHR_MERGE:          0
cpu0->cpu0_L2C PREFETCH     ACCESS:          0 HIT:          0 MISS:          0 MSHR_MERGE:          0
cpu0->cpu0_L2C WRITE        ACCESS:    5645008 HIT:    5640652 MISS:       4356 MSHR_MERGE:          0
cpu0->cpu0_L2C TRANSLATION  ACCESS:          0 HIT:          0 MISS:          0 MSHR_MERGE:          0
cpu0->cpu0_L2C PREFETCH REQUESTED:          0 ISSUED:          0 USEFUL:          0 USELESS:          0
cpu0->cpu0_L2C AVERAGE MISS LATENCY: 92.28 cycles
cpu0->cpu0_L1I TOTAL        ACCESS:    3227497 HIT:    3227406 MISS:         91 MSHR_MERGE:         25
cpu0->cpu0_L1I LOAD         ACCESS:    3227497 HIT:    3227406 MISS:         91 MSHR_MERGE:         25
cpu0->cpu0_L1I RFO          ACCESS:          0 HIT:          0 MISS:          0 MSHR_MERGE:          0
cpu0->cpu0_L1I PREFETCH     ACCESS:          0 HIT:          0 MISS:          0 MSHR_MERGE:          0
cpu0->cpu0_L1I WRITE        ACCESS:          0 HIT:          0 MISS:          0 MSHR_MERGE:          0
cpu0->cpu0_L1I TRANSLATION  ACCESS:          0 HIT:          0 MISS:          0 MSHR_MERGE:          0
cpu0->cpu0_L1I PREFETCH REQUESTED:          0 ISSUED:          0 USEFUL:          0 USELESS:          0
cpu0->cpu0_L1I AVERAGE MISS LATENCY: 125.5 cycles
cpu0->cpu0_L1D TOTAL        ACCESS:  806974766 HIT:  724736167 MISS:   82238599 MSHR_MERGE:    6700914
cpu0->cpu0_L1D LOAD         ACCESS:  606393123 HIT:  525537697 MISS:   80855426 MSHR_MERGE:    5811371
cpu0->cpu0_L1D RFO          ACCESS:          0 HIT:          0 MISS:          0 MSHR_MERGE:          0
cpu0->cpu0_L1D PREFETCH     ACCESS:          0 HIT:          0 MISS:          0 MSHR_MERGE:          0
cpu0->cpu0_L1D WRITE        ACCESS:  200581643 HIT:  199198470 MISS:    1383173 MSHR_MERGE:     889543
cpu0->cpu0_L1D TRANSLATION  ACCESS:          0 HIT:          0 MISS:          0 MSHR_MERGE:          0
cpu0->cpu0_L1D PREFETCH REQUESTED:          0 ISSUED:          0 USEFUL:          0 USELESS:          0
cpu0->cpu0_L1D AVERAGE MISS LATENCY: 74.57 cycles
cpu0->cpu0_ITLB TOTAL        ACCESS:    3077160 HIT:    3077153 MISS:          7 MSHR_MERGE:          1
cpu0->cpu0_ITLB LOAD         ACCESS:    3077160 HIT:    3077153 MISS:          7 MSHR_MERGE:          1
cpu0->cpu0_ITLB RFO          ACCESS:          0 HIT:          0 MISS:          0 MSHR_MERGE:          0
cpu0->cpu0_ITLB PREFETCH     ACCESS:          0 HIT:          0 MISS:          0 MSHR_MERGE:          0
cpu0->cpu0_ITLB WRITE        ACCESS:          0 HIT:          0 MISS:          0 MSHR_MERGE:          0
cpu0->cpu0_ITLB TRANSLATION  ACCESS:          0 HIT:          0 MISS:          0 MSHR_MERGE:          0
cpu0->cpu0_ITLB PREFETCH REQUESTED:          0 ISSUED:          0 USEFUL:          0 USELESS:          0
cpu0->cpu0_ITLB AVERAGE MISS LATENCY: 690 cycles
cpu0->cpu0_DTLB TOTAL        ACCESS:  721869400 HIT:  688506209 MISS:   33363191 MSHR_MERGE:    9097765
cpu0->cpu0_DTLB LOAD         ACCESS:  721869400 HIT:  688506209 MISS:   33363191 MSHR_MERGE:    9097765
cpu0->cpu0_DTLB RFO          ACCESS:          0 HIT:          0 MISS:          0 MSHR_MERGE:          0
cpu0->cpu0_DTLB PREFETCH     ACCESS:          0 HIT:          0 MISS:          0 MSHR_MERGE:          0
cpu0->cpu0_DTLB WRITE        ACCESS:          0 HIT:          0 MISS:          0 MSHR_MERGE:          0
cpu0->cpu0_DTLB TRANSLATION  ACCESS:          0 HIT:          0 MISS:          0 MSHR_MERGE:          0
cpu0->cpu0_DTLB PREFETCH REQUESTED:          0 ISSUED:          0 USEFUL:          0 USELESS:          0
cpu0->cpu0_DTLB AVERAGE MISS LATENCY: 131.3 cycles
cpu0->LLC TOTAL        ACCESS:   57703594 HIT:   16608853 MISS:   41094741 MSHR_MERGE:          0
cpu0->LLC LOAD         ACCESS:   53679611 HIT:   12604866 MISS:   41074745 MSHR_MERGE:          0
cpu0->LLC RFO          ACCESS:      60168 HIT:      41469 MISS:      18699 MSHR_MERGE:          0
cpu0->LLC PREFETCH     ACCESS:          0 HIT:          0 MISS:          0 MSHR_MERGE:          0
cpu0->LLC WRITE        ACCESS:    3963815 HIT:    3962518 MISS:       1297 MSHR_MERGE:          0
cpu0->LLC TRANSLATION  ACCESS:          0 HIT:          0 MISS:          0 MSHR_MERGE:          0
cpu0->LLC PREFETCH REQUESTED:          0 ISSUED:          0 USEFUL:          0 USELESS:          0
cpu0->LLC AVERAGE MISS LATENCY: 100.1 cycles

DRAM Statistics

Channel 0 RQ ROW_BUFFER_HIT:     490736
  ROW_BUFFER_MISS:   36059491
  AVG DBUS CONGESTED CYCLE: 9.429
Channel 0 WQ ROW_BUFFER_HIT:     379521
  ROW_BUFFER_MISS:    1201245
  FULL:          0
Channel 0 REFRESHES ISSUED:     480229

Channel 1 RQ ROW_BUFFER_HIT:     497153
  ROW_BUFFER_MISS:   36279955
  AVG DBUS CONGESTED CYCLE: 9.422
Channel 1 WQ ROW_BUFFER_HIT:     381192
  ROW_BUFFER_MISS:    1199020
  FULL:          0
Channel 1 REFRESHES ISSUED:     480229
