
*** ChampSim Multicore Out-of-Order Simulator ***
Warmup Instructions: 0
Simulation Instructions: 9223372036854775807
Number of CPUs: 1
Page size: 1048576

Off-chip DRAM Size: 64 GiB Channels: 2 Width: 32-bit Data Rate: 4807 MT/s
[ERROR_PAGE_MANAGER] Error latency: 2459910500 
[ERROR_PAGE_MANAGER] Random seed: 54321 (fixed for preload reproducibility)
[ERROR_PAGE_MANAGER] Cycle-based error modeling enabled
[ERROR_PAGE_MANAGER] Errors per interval: 1
[ERROR_PAGE_MANAGER] Error cycle interval: 46484161 cycles

=== ERROR PAGE STATISTICS ===
Mode: CYCLE
Error Cycle Interval: 46484161 CPU cycles
Total Error Accesses: 0
==============================
Warmup finished CPU 0 instructions: 0 cycles: 1 cumulative IPC: 0 (Simulation time: 00 hr 00 min 00 sec)
Warmup complete CPU 0 instructions: 0 cycles: 1 cumulative IPC: 0 (Simulation time: 00 hr 00 min 00 sec)
Simulation CPU 0 panic: IPC 0 < 0.01
Simulation CPU 0 panic: IPC 0 < 0.01
Simulation CPU 0 panic: IPC 0.0002609 < 0.01
Simulation CPU 0 panic: IPC 1.8e-06 < 0.01
[ERROR_CYCLE] Error added at CPU cycle 46484161, interval 1, pending count: 1
Simulation CPU 0 panic: IPC 9e-07 < 0.01
[DRAM_CYCLE_ERROR] Cycle-based error applied! address=0x537c09610 additional_latency=2459910500 cycles
Simulation CPU 0 panic: IPC 1e-07 < 0.01
Simulation CPU 0 panic: IPC 3.7e-06 < 0.01
Simulation CPU 0 panic: IPC 1e-07 < 0.01
Simulation CPU 0 panic: IPC 1.1e-06 < 0.01
[ERROR_CYCLE] Error added at CPU cycle 92968322, interval 2, pending count: 1
[DRAM_CYCLE_ERROR] Cycle-based error applied! address=0x537c11c50 additional_latency=2459910500 cycles
Simulation CPU 0 panic: IPC 2.8e-06 < 0.01
Simulation CPU 0 panic: IPC 0 < 0.01
Simulation CPU 0 panic: IPC 2.9e-06 < 0.01
Simulation CPU 0 panic: IPC 2.7e-06 < 0.01
[ERROR_CYCLE] Error added at CPU cycle 139452483, interval 3, pending count: 1
Simulation CPU 0 panic: IPC 1e-07 < 0.01
[DRAM_CYCLE_ERROR] Cycle-based error applied! address=0x537c15cf0 additional_latency=2459910500 cycles
Simulation CPU 0 panic: IPC 1.1e-06 < 0.01
Simulation CPU 0 panic: IPC 2.4e-06 < 0.01
Simulation CPU 0 panic: IPC 1.2e-06 < 0.01
Simulation CPU 0 panic: IPC 1e-07 < 0.01
[ERROR_CYCLE] Error added at CPU cycle 185936644, interval 4, pending count: 1
[DRAM_CYCLE_ERROR] Cycle-based error applied! address=0x8075fae0 additional_latency=2459910500 cycles
Simulation CPU 0 panic: IPC 0 < 0.01
Simulation CPU 0 panic: IPC 2.7e-06 < 0.01
Simulation CPU 0 panic: IPC 2.9e-06 < 0.01
Simulation CPU 0 panic: IPC 2.8e-06 < 0.01
Simulation CPU 0 panic: IPC 3.9e-06 < 0.01
[ERROR_CYCLE] Error added at CPU cycle 232420805, interval 5, pending count: 1
[DRAM_CYCLE_ERROR] Cycle-based error applied! address=0xd33936e90 additional_latency=2459910500 cycles
Simulation CPU 0 panic: IPC 0 < 0.01
Simulation CPU 0 panic: IPC 1.3e-06 < 0.01
Simulation CPU 0 panic: IPC 4.3e-06 < 0.01
Simulation CPU 0 panic: IPC 1e-07 < 0.01
[ERROR_CYCLE] Error added at CPU cycle 278904966, interval 6, pending count: 1
[DRAM_CYCLE_ERROR] Cycle-based error applied! address=0x862d85ef0 additional_latency=2459910500 cycles
Simulation CPU 0 panic: IPC 1.1e-06 < 0.01
Simulation CPU 0 panic: IPC 1.3e-06 < 0.01
Simulation CPU 0 panic: IPC 2.31e-05 < 0.01
Simulation CPU 0 panic: IPC 1e-07 < 0.01
Simulation CPU 0 panic: IPC 2.3e-06 < 0.01
[ERROR_CYCLE] Error added at CPU cycle 325389128, interval 7, pending count: 1
[DRAM_CYCLE_ERROR] Cycle-based error applied! address=0x8637222a0 additional_latency=2459910500 cycles
Simulation CPU 0 panic: IPC 0 < 0.01
Simulation CPU 0 panic: IPC 4e-06 < 0.01
Simulation CPU 0 panic: IPC 6e-06 < 0.01
Simulation CPU 0 panic: IPC 1e-07 < 0.01
Simulation CPU 0 panic: IPC 5e-07 < 0.01
[ERROR_CYCLE] Error added at CPU cycle 371873289, interval 8, pending count: 1
[DRAM_CYCLE_ERROR] Cycle-based error applied! address=0x9b53b5730 additional_latency=2459910500 cycles
Simulation CPU 0 panic: IPC 0 < 0.01
Simulation CPU 0 panic: IPC 0 < 0.01
Simulation CPU 0 panic: IPC 5.9e-06 < 0.01
Simulation CPU 0 panic: IPC 1.48e-05 < 0.01
[ERROR_CYCLE] Error added at CPU cycle 418357450, interval 9, pending count: 1
Simulation CPU 0 panic: IPC 7.6e-06 < 0.01
[DRAM_CYCLE_ERROR] Cycle-based error applied! address=0x537c31b78 additional_latency=2459910500 cycles
Simulation CPU 0 panic: IPC 0 < 0.01
Simulation CPU 0 panic: IPC 0.0009948 < 0.01
Simulation CPU 0 panic: IPC 0.0014688 < 0.01
Simulation CPU 0 panic: IPC 0.0001267 < 0.01
[ERROR_CYCLE] Error added at CPU cycle 464841611, interval 10, pending count: 1
[DRAM_CYCLE_ERROR] Cycle-based error applied! address=0x98bdf63a8 additional_latency=2459910500 cycles
Simulation CPU 0 panic: IPC 0 < 0.01
Simulation CPU 0 panic: IPC 0.0001632 < 0.01
Simulation CPU 0 panic: IPC 0.000147 < 0.01
Simulation CPU 0 panic: IPC 0.0001535 < 0.01
Simulation CPU 0 panic: IPC 0.0001866 < 0.01
[ERROR_CYCLE] Error added at CPU cycle 511325771, interval 11, pending count: 1
[DRAM_CYCLE_ERROR] Cycle-based error applied! address=0x4d73e3cb0 additional_latency=2459910500 cycles
Simulation CPU 0 panic: IPC 0 < 0.01
Simulation CPU 0 panic: IPC 1.93e-05 < 0.01
Simulation CPU 0 panic: IPC 0.0001391 < 0.01
Simulation CPU 0 critical: IPC 0.015869 < 0.02
[ERROR_CYCLE] Error added at CPU cycle 557809932, interval 12, pending count: 1
Simulation CPU 0 warning: IPC 0.049357 < 0.05
[DRAM_CYCLE_ERROR] Cycle-based error applied! address=0xc174707d8 additional_latency=2459910500 cycles
Simulation CPU 0 panic: IPC 0 < 0.01
Simulation CPU 0 warning: IPC 0.032397 < 0.05
[ERROR_CYCLE] Error added at CPU cycle 604294093, interval 13, pending count: 1
[DRAM_CYCLE_ERROR] Cycle-based error applied! address=0x537c41f60 additional_latency=2459910500 cycles
Simulation CPU 0 critical: IPC 0.016387 < 0.02
Simulation CPU 0 warning: IPC 0.0219 < 0.05
[ERROR_CYCLE] Error added at CPU cycle 650778254, interval 14, pending count: 1
[DRAM_CYCLE_ERROR] Cycle-based error applied! address=0x537c45fb8 additional_latency=2459910500 cycles
Simulation CPU 0 panic: IPC 0 < 0.01
Heartbeat CPU 0 instructions: 10000003 cycles: 679692193 heartbeat IPC: 0.01471 cumulative IPC: 0.01471 (Simulation time: 00 hr 55 min 50 sec)
Heartbeat CPU 0 instructions: 20000005 cycles: 696699816 heartbeat IPC: 0.588 cumulative IPC: 0.02871 (Simulation time: 00 hr 57 min 40 sec)
[ERROR_CYCLE] Error added at CPU cycle 697262415, interval 15, pending count: 1
[DRAM_CYCLE_ERROR] Cycle-based error applied! address=0x1f428fe48 additional_latency=2459910500 cycles
Simulation CPU 0 panic: IPC 0.0045944 < 0.01
Simulation CPU 0 panic: IPC 6.6e-06 < 0.01
Simulation CPU 0 panic: IPC 9.1e-06 < 0.01
[ERROR_CYCLE] Error added at CPU cycle 743746576, interval 16, pending count: 1
[DRAM_CYCLE_ERROR] Cycle-based error applied! address=0x68fdba640 additional_latency=2459910500 cycles
Simulation CPU 0 panic: IPC 0.0072996 < 0.01
Simulation CPU 0 panic: IPC 0.0011184 < 0.01
Simulation CPU 0 panic: IPC 2.36e-05 < 0.01
Heartbeat CPU 0 instructions: 30000009 cycles: 781026331 heartbeat IPC: 0.1186 cumulative IPC: 0.03841 (Simulation time: 01 hr 05 min 36 sec)
Heartbeat CPU 0 instructions: 40000010 cycles: 789602852 heartbeat IPC: 1.166 cumulative IPC: 0.05066 (Simulation time: 01 hr 06 min 47 sec)
[ERROR_CYCLE] Error added at CPU cycle 790230737, interval 17, pending count: 1
[DRAM_CYCLE_ERROR] Cycle-based error applied! address=0xf7d6bb280 additional_latency=2459910500 cycles
Simulation CPU 0 warning: IPC 0.028246 < 0.05
Heartbeat CPU 0 instructions: 50000010 cycles: 807403456 heartbeat IPC: 0.5618 cumulative IPC: 0.06193 (Simulation time: 01 hr 08 min 44 sec)
Heartbeat CPU 0 instructions: 60000013 cycles: 814994797 heartbeat IPC: 1.317 cumulative IPC: 0.07362 (Simulation time: 01 hr 09 min 35 sec)
Heartbeat CPU 0 instructions: 70000014 cycles: 822394236 heartbeat IPC: 1.351 cumulative IPC: 0.08512 (Simulation time: 01 hr 10 min 25 sec)
Heartbeat CPU 0 instructions: 80000014 cycles: 828399907 heartbeat IPC: 1.665 cumulative IPC: 0.09657 (Simulation time: 01 hr 11 min 21 sec)
Heartbeat CPU 0 instructions: 90000015 cycles: 834176864 heartbeat IPC: 1.731 cumulative IPC: 0.1079 (Simulation time: 01 hr 12 min 08 sec)
[ERROR_CYCLE] Error added at CPU cycle 836714899, interval 18, pending count: 1
[DRAM_CYCLE_ERROR] Cycle-based error applied! address=0xa0921028 additional_latency=2459910500 cycles
Heartbeat CPU 0 instructions: 100000015 cycles: 850703636 heartbeat IPC: 0.6051 cumulative IPC: 0.1175 (Simulation time: 01 hr 14 min 14 sec)
Heartbeat CPU 0 instructions: 110000018 cycles: 868698622 heartbeat IPC: 0.5557 cumulative IPC: 0.1266 (Simulation time: 01 hr 15 min 59 sec)
Heartbeat CPU 0 instructions: 120000020 cycles: 877176961 heartbeat IPC: 1.179 cumulative IPC: 0.1368 (Simulation time: 01 hr 17 min 03 sec)
[ERROR_CYCLE] Error added at CPU cycle 883199060, interval 19, pending count: 1
[DRAM_CYCLE_ERROR] Cycle-based error applied! address=0x862d69e08 additional_latency=2459910500 cycles
Heartbeat CPU 0 instructions: 130000020 cycles: 894920822 heartbeat IPC: 0.5636 cumulative IPC: 0.1453 (Simulation time: 01 hr 18 min 52 sec)
Heartbeat CPU 0 instructions: 140000021 cycles: 902508545 heartbeat IPC: 1.318 cumulative IPC: 0.1551 (Simulation time: 01 hr 19 min 56 sec)
Heartbeat CPU 0 instructions: 150000022 cycles: 909215725 heartbeat IPC: 1.491 cumulative IPC: 0.165 (Simulation time: 01 hr 20 min 37 sec)
Heartbeat CPU 0 instructions: 160000024 cycles: 915034968 heartbeat IPC: 1.718 cumulative IPC: 0.1749 (Simulation time: 01 hr 21 min 16 sec)
Heartbeat CPU 0 instructions: 170000027 cycles: 922027298 heartbeat IPC: 1.43 cumulative IPC: 0.1844 (Simulation time: 01 hr 22 min 03 sec)
[ERROR_CYCLE] Error added at CPU cycle 929683221, interval 20, pending count: 1
[DRAM_CYCLE_ERROR] Cycle-based error applied! address=0xa2e75c2a8 additional_latency=2459910500 cycles
Heartbeat CPU 0 instructions: 180000031 cycles: 940822654 heartbeat IPC: 0.532 cumulative IPC: 0.1913 (Simulation time: 01 hr 23 min 52 sec)
Heartbeat CPU 0 instructions: 190000035 cycles: 949044785 heartbeat IPC: 1.216 cumulative IPC: 0.2002 (Simulation time: 01 hr 24 min 54 sec)
Heartbeat CPU 0 instructions: 200000037 cycles: 956092628 heartbeat IPC: 1.419 cumulative IPC: 0.2092 (Simulation time: 01 hr 25 min 46 sec)
Heartbeat CPU 0 instructions: 210000041 cycles: 964860952 heartbeat IPC: 1.14 cumulative IPC: 0.2176 (Simulation time: 01 hr 26 min 40 sec)
Heartbeat CPU 0 instructions: 220000041 cycles: 973308002 heartbeat IPC: 1.184 cumulative IPC: 0.226 (Simulation time: 01 hr 27 min 43 sec)
[ERROR_CYCLE] Error added at CPU cycle 976167382, interval 21, pending count: 1
[DRAM_CYCLE_ERROR] Cycle-based error applied! address=0xf7d6c4380 additional_latency=2459910500 cycles
Heartbeat CPU 0 instructions: 230000042 cycles: 991073231 heartbeat IPC: 0.5629 cumulative IPC: 0.2321 (Simulation time: 01 hr 29 min 44 sec)
Heartbeat CPU 0 instructions: 240000046 cycles: 998654883 heartbeat IPC: 1.319 cumulative IPC: 0.2403 (Simulation time: 01 hr 30 min 53 sec)
Heartbeat CPU 0 instructions: 250000047 cycles: 1006026659 heartbeat IPC: 1.357 cumulative IPC: 0.2485 (Simulation time: 01 hr 32 min 00 sec)
Heartbeat CPU 0 instructions: 260000047 cycles: 1013215799 heartbeat IPC: 1.391 cumulative IPC: 0.2566 (Simulation time: 01 hr 33 min 07 sec)
[ERROR_CYCLE] Error added at CPU cycle 1022651542, interval 22, pending count: 1
[DRAM_CYCLE_ERROR] Cycle-based error applied! address=0x537c4f398 additional_latency=2459910500 cycles
Simulation CPU 0 panic: IPC 0 < 0.01
Heartbeat CPU 0 instructions: 270000047 cycles: 1039341685 heartbeat IPC: 0.3828 cumulative IPC: 0.2598 (Simulation time: 01 hr 35 min 55 sec)
Heartbeat CPU 0 instructions: 280000048 cycles: 1046307984 heartbeat IPC: 1.435 cumulative IPC: 0.2676 (Simulation time: 01 hr 36 min 59 sec)
Heartbeat CPU 0 instructions: 290000050 cycles: 1051991609 heartbeat IPC: 1.759 cumulative IPC: 0.2757 (Simulation time: 01 hr 37 min 54 sec)
Heartbeat CPU 0 instructions: 300000051 cycles: 1057188403 heartbeat IPC: 1.924 cumulative IPC: 0.2838 (Simulation time: 01 hr 38 min 45 sec)
Heartbeat CPU 0 instructions: 310000051 cycles: 1062615510 heartbeat IPC: 1.843 cumulative IPC: 0.2917 (Simulation time: 01 hr 39 min 39 sec)
Heartbeat CPU 0 instructions: 320000051 cycles: 1068282730 heartbeat IPC: 1.765 cumulative IPC: 0.2995 (Simulation time: 01 hr 40 min 29 sec)
[ERROR_CYCLE] Error added at CPU cycle 1069135703, interval 23, pending count: 1
[DRAM_CYCLE_ERROR] Cycle-based error applied! address=0xa090de30 additional_latency=2459910500 cycles
Heartbeat CPU 0 instructions: 330000051 cycles: 1084062666 heartbeat IPC: 0.6337 cumulative IPC: 0.3044 (Simulation time: 01 hr 42 min 14 sec)
Heartbeat CPU 0 instructions: 340000051 cycles: 1090466407 heartbeat IPC: 1.562 cumulative IPC: 0.3118 (Simulation time: 01 hr 43 min 02 sec)
Heartbeat CPU 0 instructions: 350000053 cycles: 1097645558 heartbeat IPC: 1.393 cumulative IPC: 0.3189 (Simulation time: 01 hr 44 min 06 sec)
Heartbeat CPU 0 instructions: 360000054 cycles: 1106555508 heartbeat IPC: 1.122 cumulative IPC: 0.3253 (Simulation time: 01 hr 45 min 15 sec)
Heartbeat CPU 0 instructions: 370000054 cycles: 1114685796 heartbeat IPC: 1.23 cumulative IPC: 0.3319 (Simulation time: 01 hr 46 min 06 sec)
[ERROR_CYCLE] Error added at CPU cycle 1115619864, interval 24, pending count: 1
[DRAM_CYCLE_ERROR] Cycle-based error applied! address=0x1f42ccab8 additional_latency=2459910500 cycles
Heartbeat CPU 0 instructions: 380000056 cycles: 1133100165 heartbeat IPC: 0.5431 cumulative IPC: 0.3354 (Simulation time: 01 hr 48 min 02 sec)
Heartbeat CPU 0 instructions: 390000059 cycles: 1141263026 heartbeat IPC: 1.225 cumulative IPC: 0.3417 (Simulation time: 01 hr 48 min 59 sec)
Heartbeat CPU 0 instructions: 400000059 cycles: 1148955984 heartbeat IPC: 1.3 cumulative IPC: 0.3481 (Simulation time: 01 hr 50 min 07 sec)
Heartbeat CPU 0 instructions: 410000063 cycles: 1156407231 heartbeat IPC: 1.342 cumulative IPC: 0.3545 (Simulation time: 01 hr 51 min 12 sec)
[ERROR_CYCLE] Error added at CPU cycle 1162104025, interval 25, pending count: 1
[DRAM_CYCLE_ERROR] Cycle-based error applied! address=0x787c19900 additional_latency=2459910500 cycles
Heartbeat CPU 0 instructions: 420000063 cycles: 1163437559 heartbeat IPC: 1.422 cumulative IPC: 0.361 (Simulation time: 01 hr 52 min 05 sec)
Heartbeat CPU 0 instructions: 430000064 cycles: 1168886162 heartbeat IPC: 1.835 cumulative IPC: 0.3679 (Simulation time: 01 hr 52 min 46 sec)
Heartbeat CPU 0 instructions: 440000064 cycles: 1174873161 heartbeat IPC: 1.67 cumulative IPC: 0.3745 (Simulation time: 01 hr 53 min 28 sec)
Heartbeat CPU 0 instructions: 450000064 cycles: 1181889152 heartbeat IPC: 1.425 cumulative IPC: 0.3807 (Simulation time: 01 hr 54 min 20 sec)
Heartbeat CPU 0 instructions: 460000065 cycles: 1190694644 heartbeat IPC: 1.136 cumulative IPC: 0.3863 (Simulation time: 01 hr 55 min 37 sec)
Heartbeat CPU 0 instructions: 470000065 cycles: 1199473522 heartbeat IPC: 1.139 cumulative IPC: 0.3918 (Simulation time: 01 hr 56 min 43 sec)
Heartbeat CPU 0 instructions: 480000066 cycles: 1207703868 heartbeat IPC: 1.215 cumulative IPC: 0.3974 (Simulation time: 01 hr 57 min 59 sec)
[ERROR_CYCLE] Error added at CPU cycle 1208588186, interval 26, pending count: 1
[DRAM_CYCLE_ERROR] Cycle-based error applied! address=0xf612f9720 additional_latency=2459910500 cycles
Heartbeat CPU 0 instructions: 490000067 cycles: 1225293422 heartbeat IPC: 0.5685 cumulative IPC: 0.3999 (Simulation time: 02 hr 00 min 01 sec)
Heartbeat CPU 0 instructions: 500000069 cycles: 1232793886 heartbeat IPC: 1.333 cumulative IPC: 0.4056 (Simulation time: 02 hr 00 min 57 sec)
Heartbeat CPU 0 instructions: 510000070 cycles: 1240070795 heartbeat IPC: 1.374 cumulative IPC: 0.4113 (Simulation time: 02 hr 02 min 01 sec)
Heartbeat CPU 0 instructions: 520000073 cycles: 1247181334 heartbeat IPC: 1.406 cumulative IPC: 0.4169 (Simulation time: 02 hr 02 min 47 sec)
[ERROR_CYCLE] Error added at CPU cycle 1255072347, interval 27, pending count: 1
[DRAM_CYCLE_ERROR] Cycle-based error applied! address=0x537c50c10 additional_latency=2459910500 cycles
Simulation CPU 0 panic: IPC 0 < 0.01
Heartbeat CPU 0 instructions: 530000073 cycles: 1273244790 heartbeat IPC: 0.3837 cumulative IPC: 0.4163 (Simulation time: 02 hr 05 min 00 sec)
Heartbeat CPU 0 instructions: 540000075 cycles: 1289344973 heartbeat IPC: 0.6211 cumulative IPC: 0.4188 (Simulation time: 02 hr 06 min 43 sec)
[ERROR_CYCLE] Error added at CPU cycle 1301556508, interval 28, pending count: 1
[DRAM_CYCLE_ERROR] Cycle-based error applied! address=0x41d71b540 additional_latency=2459910500 cycles
Simulation CPU 0 warning: IPC 0.044745 < 0.05
Heartbeat CPU 0 instructions: 550000077 cycles: 1315159338 heartbeat IPC: 0.3874 cumulative IPC: 0.4182 (Simulation time: 02 hr 09 min 07 sec)
[ERROR_CYCLE] Error added at CPU cycle 1348040670, interval 29, pending count: 1
[DRAM_CYCLE_ERROR] Cycle-based error applied! address=0x76b200c48 additional_latency=2459910500 cycles
Simulation CPU 0 warning: IPC 0.038686 < 0.05
Heartbeat CPU 0 instructions: 560000080 cycles: 1359333612 heartbeat IPC: 0.2264 cumulative IPC: 0.412 (Simulation time: 02 hr 13 min 52 sec)
Heartbeat CPU 0 instructions: 570000082 cycles: 1384353628 heartbeat IPC: 0.3997 cumulative IPC: 0.4117 (Simulation time: 02 hr 16 min 59 sec)
[ERROR_CYCLE] Error added at CPU cycle 1394524831, interval 30, pending count: 1
[DRAM_CYCLE_ERROR] Cycle-based error applied! address=0xb627012d8 additional_latency=2459910500 cycles
Simulation CPU 0 panic: IPC 0.0032598 < 0.01
Heartbeat CPU 0 instructions: 580000083 cycles: 1409848657 heartbeat IPC: 0.3922 cumulative IPC: 0.4114 (Simulation time: 02 hr 19 min 58 sec)
Heartbeat CPU 0 instructions: 590000083 cycles: 1434681398 heartbeat IPC: 0.4027 cumulative IPC: 0.4112 (Simulation time: 02 hr 22 min 55 sec)
[ERROR_CYCLE] Error added at CPU cycle 1441008992, interval 31, pending count: 1
[DRAM_CYCLE_ERROR] Cycle-based error applied! address=0xdb8007c0 additional_latency=2459910500 cycles
Simulation CPU 0 panic: IPC 0.000489 < 0.01
Heartbeat CPU 0 instructions: 600000083 cycles: 1469288240 heartbeat IPC: 0.289 cumulative IPC: 0.4084 (Simulation time: 02 hr 26 min 27 sec)
Heartbeat CPU 0 instructions: 610000084 cycles: 1484753768 heartbeat IPC: 0.6466 cumulative IPC: 0.4108 (Simulation time: 02 hr 28 min 15 sec)
[ERROR_CYCLE] Error added at CPU cycle 1487493153, interval 32, pending count: 1
[DRAM_CYCLE_ERROR] Cycle-based error applied! address=0x537c5ed50 additional_latency=2459910500 cycles
Simulation CPU 0 panic: IPC 0 < 0.01
Heartbeat CPU 0 instructions: 620000088 cycles: 1519263175 heartbeat IPC: 0.2898 cumulative IPC: 0.4081 (Simulation time: 02 hr 31 min 33 sec)
[ERROR_CYCLE] Error added at CPU cycle 1533977313, interval 33, pending count: 1
[DRAM_CYCLE_ERROR] Cycle-based error applied! address=0x537c61d68 additional_latency=2459910500 cycles
Simulation CPU 0 panic: IPC 0 < 0.01
Heartbeat CPU 0 instructions: 630000090 cycles: 1553722399 heartbeat IPC: 0.2902 cumulative IPC: 0.4055 (Simulation time: 02 hr 34 min 52 sec)
Heartbeat CPU 0 instructions: 640000090 cycles: 1578235172 heartbeat IPC: 0.408 cumulative IPC: 0.4055 (Simulation time: 02 hr 37 min 22 sec)
[ERROR_CYCLE] Error added at CPU cycle 1580461474, interval 34, pending count: 1
[DRAM_CYCLE_ERROR] Cycle-based error applied! address=0x537c64d80 additional_latency=2459910500 cycles
Simulation CPU 0 panic: IPC 0 < 0.01
Heartbeat CPU 0 instructions: 650000090 cycles: 1603277446 heartbeat IPC: 0.3993 cumulative IPC: 0.4054 (Simulation time: 02 hr 40 min 21 sec)
Heartbeat CPU 0 instructions: 660000091 cycles: 1607945994 heartbeat IPC: 2.142 cumulative IPC: 0.4105 (Simulation time: 02 hr 41 min 01 sec)
Heartbeat CPU 0 instructions: 670000091 cycles: 1612437142 heartbeat IPC: 2.227 cumulative IPC: 0.4155 (Simulation time: 02 hr 41 min 50 sec)
Heartbeat CPU 0 instructions: 680000091 cycles: 1617042145 heartbeat IPC: 2.172 cumulative IPC: 0.4205 (Simulation time: 02 hr 42 min 40 sec)
Heartbeat CPU 0 instructions: 690000094 cycles: 1621725352 heartbeat IPC: 2.135 cumulative IPC: 0.4255 (Simulation time: 02 hr 43 min 31 sec)
Heartbeat CPU 0 instructions: 700000094 cycles: 1626523675 heartbeat IPC: 2.084 cumulative IPC: 0.4304 (Simulation time: 02 hr 44 min 23 sec)
[ERROR_CYCLE] Error added at CPU cycle 1626945635, interval 35, pending count: 1
[DRAM_CYCLE_ERROR] Cycle-based error applied! address=0x521c59800 additional_latency=2459910500 cycles
Heartbeat CPU 0 instructions: 710000097 cycles: 1641221002 heartbeat IPC: 0.6804 cumulative IPC: 0.4326 (Simulation time: 02 hr 46 min 12 sec)
Heartbeat CPU 0 instructions: 720000097 cycles: 1646127430 heartbeat IPC: 2.038 cumulative IPC: 0.4374 (Simulation time: 02 hr 47 min 04 sec)
Heartbeat CPU 0 instructions: 730000097 cycles: 1651162634 heartbeat IPC: 1.986 cumulative IPC: 0.4421 (Simulation time: 02 hr 47 min 57 sec)
Heartbeat CPU 0 instructions: 740000100 cycles: 1656256309 heartbeat IPC: 1.963 cumulative IPC: 0.4468 (Simulation time: 02 hr 48 min 43 sec)
Heartbeat CPU 0 instructions: 750000102 cycles: 1661511394 heartbeat IPC: 1.903 cumulative IPC: 0.4514 (Simulation time: 02 hr 49 min 25 sec)
Heartbeat CPU 0 instructions: 760000105 cycles: 1666804671 heartbeat IPC: 1.889 cumulative IPC: 0.456 (Simulation time: 02 hr 50 min 11 sec)
Heartbeat CPU 0 instructions: 770000106 cycles: 1672347953 heartbeat IPC: 1.804 cumulative IPC: 0.4604 (Simulation time: 02 hr 50 min 54 sec)
[ERROR_CYCLE] Error added at CPU cycle 1673429796, interval 36, pending count: 1
[DRAM_CYCLE_ERROR] Cycle-based error applied! address=0x76b2793f8 additional_latency=2459910500 cycles
Heartbeat CPU 0 instructions: 780000108 cycles: 1687756197 heartbeat IPC: 0.649 cumulative IPC: 0.4622 (Simulation time: 02 hr 52 min 32 sec)
Heartbeat CPU 0 instructions: 790000108 cycles: 1693464423 heartbeat IPC: 1.752 cumulative IPC: 0.4665 (Simulation time: 02 hr 53 min 21 sec)
Heartbeat CPU 0 instructions: 800000109 cycles: 1699323908 heartbeat IPC: 1.707 cumulative IPC: 0.4708 (Simulation time: 02 hr 54 min 05 sec)
Heartbeat CPU 0 instructions: 810000111 cycles: 1705337090 heartbeat IPC: 1.663 cumulative IPC: 0.475 (Simulation time: 02 hr 54 min 54 sec)
Heartbeat CPU 0 instructions: 820000112 cycles: 1711768438 heartbeat IPC: 1.555 cumulative IPC: 0.479 (Simulation time: 02 hr 55 min 55 sec)
Heartbeat CPU 0 instructions: 830000112 cycles: 1718189746 heartbeat IPC: 1.557 cumulative IPC: 0.4831 (Simulation time: 02 hr 56 min 53 sec)
[ERROR_CYCLE] Error added at CPU cycle 1719913957, interval 37, pending count: 1
[DRAM_CYCLE_ERROR] Cycle-based error applied! address=0xc64556fb8 additional_latency=2459910500 cycles
Simulation CPU 0 warning: IPC 0.036616 < 0.05
Heartbeat CPU 0 instructions: 840000113 cycles: 1734743733 heartbeat IPC: 0.6041 cumulative IPC: 0.4842 (Simulation time: 02 hr 58 min 19 sec)
Heartbeat CPU 0 instructions: 850000116 cycles: 1741788870 heartbeat IPC: 1.419 cumulative IPC: 0.488 (Simulation time: 02 hr 59 min 10 sec)
Heartbeat CPU 0 instructions: 860000117 cycles: 1749334725 heartbeat IPC: 1.325 cumulative IPC: 0.4916 (Simulation time: 02 hr 59 min 59 sec)
Heartbeat CPU 0 instructions: 870000117 cycles: 1757254997 heartbeat IPC: 1.263 cumulative IPC: 0.4951 (Simulation time: 03 hr 00 min 51 sec)
Heartbeat CPU 0 instructions: 880000118 cycles: 1766018200 heartbeat IPC: 1.141 cumulative IPC: 0.4983 (Simulation time: 03 hr 01 min 43 sec)
[ERROR_CYCLE] Error added at CPU cycle 1766398118, interval 38, pending count: 1
[DRAM_CYCLE_ERROR] Cycle-based error applied! address=0xc32038e0 additional_latency=2459910500 cycles
Heartbeat CPU 0 instructions: 890000118 cycles: 1786105656 heartbeat IPC: 0.4978 cumulative IPC: 0.4983 (Simulation time: 03 hr 03 min 36 sec)
Heartbeat CPU 0 instructions: 900000121 cycles: 1795742187 heartbeat IPC: 1.038 cumulative IPC: 0.5012 (Simulation time: 03 hr 04 min 57 sec)
Heartbeat CPU 0 instructions: 910000121 cycles: 1803608048 heartbeat IPC: 1.271 cumulative IPC: 0.5045 (Simulation time: 03 hr 06 min 07 sec)
Heartbeat CPU 0 instructions: 920000121 cycles: 1812300979 heartbeat IPC: 1.15 cumulative IPC: 0.5076 (Simulation time: 03 hr 07 min 16 sec)
[ERROR_CYCLE] Error added at CPU cycle 1812882279, interval 39, pending count: 1
[DRAM_CYCLE_ERROR] Cycle-based error applied! address=0x8962a6640 additional_latency=2459910500 cycles
Heartbeat CPU 0 instructions: 930000123 cycles: 1830642791 heartbeat IPC: 0.5452 cumulative IPC: 0.508 (Simulation time: 03 hr 09 min 04 sec)
Heartbeat CPU 0 instructions: 940000123 cycles: 1838593603 heartbeat IPC: 1.258 cumulative IPC: 0.5113 (Simulation time: 03 hr 10 min 12 sec)
Heartbeat CPU 0 instructions: 950000125 cycles: 1846156716 heartbeat IPC: 1.322 cumulative IPC: 0.5146 (Simulation time: 03 hr 11 min 13 sec)
Heartbeat CPU 0 instructions: 960000125 cycles: 1853548002 heartbeat IPC: 1.353 cumulative IPC: 0.5179 (Simulation time: 03 hr 12 min 01 sec)
[ERROR_CYCLE] Error added at CPU cycle 1859366441, interval 40, pending count: 1
[DRAM_CYCLE_ERROR] Cycle-based error applied! address=0x787c7cdc8 additional_latency=2459910500 cycles
Heartbeat CPU 0 instructions: 970000126 cycles: 1869601148 heartbeat IPC: 0.6229 cumulative IPC: 0.5188 (Simulation time: 03 hr 13 min 49 sec)
Heartbeat CPU 0 instructions: 980000130 cycles: 1875252724 heartbeat IPC: 1.769 cumulative IPC: 0.5226 (Simulation time: 03 hr 14 min 27 sec)
Heartbeat CPU 0 instructions: 990000130 cycles: 1881646445 heartbeat IPC: 1.564 cumulative IPC: 0.5261 (Simulation time: 03 hr 15 min 15 sec)
Heartbeat CPU 0 instructions: 1000000131 cycles: 1889410325 heartbeat IPC: 1.288 cumulative IPC: 0.5293 (Simulation time: 03 hr 16 min 03 sec)
Heartbeat CPU 0 instructions: 1010000132 cycles: 1898720092 heartbeat IPC: 1.074 cumulative IPC: 0.5319 (Simulation time: 03 hr 17 min 07 sec)
[ERROR_CYCLE] Error added at CPU cycle 1905850602, interval 41, pending count: 1
[DRAM_CYCLE_ERROR] Cycle-based error applied! address=0xf7d6ba1c0 additional_latency=2459910500 cycles
Heartbeat CPU 0 instructions: 1020000134 cycles: 1916962173 heartbeat IPC: 0.5482 cumulative IPC: 0.5321 (Simulation time: 03 hr 18 min 40 sec)
Heartbeat CPU 0 instructions: 1030000134 cycles: 1925185057 heartbeat IPC: 1.216 cumulative IPC: 0.535 (Simulation time: 03 hr 19 min 43 sec)
Heartbeat CPU 0 instructions: 1040000134 cycles: 1933510178 heartbeat IPC: 1.201 cumulative IPC: 0.5379 (Simulation time: 03 hr 20 min 39 sec)
Heartbeat CPU 0 instructions: 1050000134 cycles: 1941941188 heartbeat IPC: 1.186 cumulative IPC: 0.5407 (Simulation time: 03 hr 21 min 35 sec)
Heartbeat CPU 0 instructions: 1060000135 cycles: 1950513286 heartbeat IPC: 1.167 cumulative IPC: 0.5434 (Simulation time: 03 hr 22 min 35 sec)
[ERROR_CYCLE] Error added at CPU cycle 1952334763, interval 42, pending count: 1
[DRAM_CYCLE_ERROR] Cycle-based error applied! address=0x5a0f24298 additional_latency=2459910500 cycles
Heartbeat CPU 0 instructions: 1070000135 cycles: 1968505809 heartbeat IPC: 0.5558 cumulative IPC: 0.5436 (Simulation time: 03 hr 24 min 09 sec)
Heartbeat CPU 0 instructions: 1080000139 cycles: 1975628867 heartbeat IPC: 1.404 cumulative IPC: 0.5467 (Simulation time: 03 hr 25 min 04 sec)
Heartbeat CPU 0 instructions: 1090000139 cycles: 1983533390 heartbeat IPC: 1.265 cumulative IPC: 0.5495 (Simulation time: 03 hr 25 min 56 sec)
Heartbeat CPU 0 instructions: 1100000141 cycles: 1992271410 heartbeat IPC: 1.144 cumulative IPC: 0.5521 (Simulation time: 03 hr 27 min 06 sec)
[ERROR_CYCLE] Error added at CPU cycle 1998818924, interval 43, pending count: 1
[DRAM_CYCLE_ERROR] Cycle-based error applied! address=0x2d4cda318 additional_latency=2459910500 cycles
Heartbeat CPU 0 instructions: 1110000145 cycles: 2010501217 heartbeat IPC: 0.5486 cumulative IPC: 0.5521 (Simulation time: 03 hr 29 min 11 sec)
Heartbeat CPU 0 instructions: 1120000147 cycles: 2018775342 heartbeat IPC: 1.209 cumulative IPC: 0.5548 (Simulation time: 03 hr 30 min 20 sec)
Heartbeat CPU 0 instructions: 1130000147 cycles: 2026603587 heartbeat IPC: 1.277 cumulative IPC: 0.5576 (Simulation time: 03 hr 31 min 21 sec)
Heartbeat CPU 0 instructions: 1140000151 cycles: 2033364759 heartbeat IPC: 1.479 cumulative IPC: 0.5606 (Simulation time: 03 hr 32 min 11 sec)
Heartbeat CPU 0 instructions: 1150000151 cycles: 2039834953 heartbeat IPC: 1.546 cumulative IPC: 0.5638 (Simulation time: 03 hr 32 min 54 sec)
[ERROR_CYCLE] Error added at CPU cycle 2045303084, interval 44, pending count: 1
[DRAM_CYCLE_ERROR] Cycle-based error applied! address=0x521c8c640 additional_latency=2459910500 cycles
Heartbeat CPU 0 instructions: 1160000151 cycles: 2058478194 heartbeat IPC: 0.5364 cumulative IPC: 0.5635 (Simulation time: 03 hr 34 min 59 sec)
Heartbeat CPU 0 instructions: 1170000151 cycles: 2066750854 heartbeat IPC: 1.209 cumulative IPC: 0.5661 (Simulation time: 03 hr 35 min 59 sec)
Heartbeat CPU 0 instructions: 1180000152 cycles: 2074593362 heartbeat IPC: 1.275 cumulative IPC: 0.5688 (Simulation time: 03 hr 36 min 58 sec)
Heartbeat CPU 0 instructions: 1190000156 cycles: 2080961992 heartbeat IPC: 1.57 cumulative IPC: 0.5719 (Simulation time: 03 hr 37 min 51 sec)
Heartbeat CPU 0 instructions: 1200000158 cycles: 2089583278 heartbeat IPC: 1.16 cumulative IPC: 0.5743 (Simulation time: 03 hr 39 min 04 sec)
[ERROR_CYCLE] Error added at CPU cycle 2091787245, interval 45, pending count: 1
[DRAM_CYCLE_ERROR] Cycle-based error applied! address=0x5a0f7a6c0 additional_latency=2459910500 cycles
Heartbeat CPU 0 instructions: 1210000160 cycles: 2108117695 heartbeat IPC: 0.5395 cumulative IPC: 0.574 (Simulation time: 03 hr 40 min 53 sec)
Heartbeat CPU 0 instructions: 1220000162 cycles: 2116749927 heartbeat IPC: 1.158 cumulative IPC: 0.5764 (Simulation time: 03 hr 41 min 52 sec)
Heartbeat CPU 0 instructions: 1230000166 cycles: 2124590051 heartbeat IPC: 1.275 cumulative IPC: 0.5789 (Simulation time: 03 hr 42 min 38 sec)
Heartbeat CPU 0 instructions: 1240000166 cycles: 2133026888 heartbeat IPC: 1.185 cumulative IPC: 0.5813 (Simulation time: 03 hr 43 min 40 sec)
[ERROR_CYCLE] Error added at CPU cycle 2138271406, interval 46, pending count: 1
[DRAM_CYCLE_ERROR] Cycle-based error applied! address=0xf00208820 additional_latency=2459910500 cycles
Heartbeat CPU 0 instructions: 1250000166 cycles: 2151447265 heartbeat IPC: 0.5429 cumulative IPC: 0.581 (Simulation time: 03 hr 45 min 24 sec)
Heartbeat CPU 0 instructions: 1260000170 cycles: 2160068240 heartbeat IPC: 1.16 cumulative IPC: 0.5833 (Simulation time: 03 hr 46 min 41 sec)
Heartbeat CPU 0 instructions: 1270000173 cycles: 2168180775 heartbeat IPC: 1.233 cumulative IPC: 0.5857 (Simulation time: 03 hr 47 min 30 sec)
Heartbeat CPU 0 instructions: 1280000173 cycles: 2175864084 heartbeat IPC: 1.302 cumulative IPC: 0.5883 (Simulation time: 03 hr 48 min 33 sec)
Heartbeat CPU 0 instructions: 1290000176 cycles: 2183323368 heartbeat IPC: 1.341 cumulative IPC: 0.5908 (Simulation time: 03 hr 49 min 36 sec)
[ERROR_CYCLE] Error added at CPU cycle 2184755567, interval 47, pending count: 1
[DRAM_CYCLE_ERROR] Cycle-based error applied! address=0xf7d6d2ec0 additional_latency=2459910500 cycles
Heartbeat CPU 0 instructions: 1300000178 cycles: 2189080908 heartbeat IPC: 1.737 cumulative IPC: 0.5939 (Simulation time: 03 hr 50 min 28 sec)
Heartbeat CPU 0 instructions: 1310000181 cycles: 2195250836 heartbeat IPC: 1.621 cumulative IPC: 0.5967 (Simulation time: 03 hr 51 min 20 sec)
Heartbeat CPU 0 instructions: 1320000181 cycles: 2203035307 heartbeat IPC: 1.285 cumulative IPC: 0.5992 (Simulation time: 03 hr 52 min 14 sec)
Heartbeat CPU 0 instructions: 1330000183 cycles: 2211923264 heartbeat IPC: 1.125 cumulative IPC: 0.6013 (Simulation time: 03 hr 53 min 21 sec)
Heartbeat CPU 0 instructions: 1340000184 cycles: 2219980307 heartbeat IPC: 1.241 cumulative IPC: 0.6036 (Simulation time: 03 hr 54 min 18 sec)
Heartbeat CPU 0 instructions: 1350000188 cycles: 2227627500 heartbeat IPC: 1.308 cumulative IPC: 0.606 (Simulation time: 03 hr 55 min 10 sec)
[ERROR_CYCLE] Error added at CPU cycle 2231239728, interval 48, pending count: 1
[DRAM_CYCLE_ERROR] Cycle-based error applied! address=0xf7d6de640 additional_latency=2459910500 cycles
Heartbeat CPU 0 instructions: 1360000189 cycles: 2244888355 heartbeat IPC: 0.5793 cumulative IPC: 0.6058 (Simulation time: 03 hr 56 min 49 sec)
Heartbeat CPU 0 instructions: 1370000189 cycles: 2251126368 heartbeat IPC: 1.603 cumulative IPC: 0.6086 (Simulation time: 03 hr 57 min 47 sec)
Heartbeat CPU 0 instructions: 1380000191 cycles: 2256843410 heartbeat IPC: 1.749 cumulative IPC: 0.6115 (Simulation time: 03 hr 58 min 31 sec)
Heartbeat CPU 0 instructions: 1390000192 cycles: 2263416074 heartbeat IPC: 1.521 cumulative IPC: 0.6141 (Simulation time: 03 hr 59 min 31 sec)
Heartbeat CPU 0 instructions: 1400000194 cycles: 2271880402 heartbeat IPC: 1.181 cumulative IPC: 0.6162 (Simulation time: 04 hr 00 min 30 sec)
[ERROR_CYCLE] Error added at CPU cycle 2277723889, interval 49, pending count: 1
[DRAM_CYCLE_ERROR] Cycle-based error applied! address=0x521cb78b8 additional_latency=2459910500 cycles
Heartbeat CPU 0 instructions: 1410000194 cycles: 2290247776 heartbeat IPC: 0.5444 cumulative IPC: 0.6157 (Simulation time: 04 hr 02 min 27 sec)
Heartbeat CPU 0 instructions: 1420000195 cycles: 2298204272 heartbeat IPC: 1.257 cumulative IPC: 0.6179 (Simulation time: 04 hr 03 min 36 sec)
Heartbeat CPU 0 instructions: 1430000199 cycles: 2305786957 heartbeat IPC: 1.319 cumulative IPC: 0.6202 (Simulation time: 04 hr 04 min 36 sec)
Heartbeat CPU 0 instructions: 1440000203 cycles: 2313173435 heartbeat IPC: 1.354 cumulative IPC: 0.6225 (Simulation time: 04 hr 05 min 29 sec)
Heartbeat CPU 0 instructions: 1450000204 cycles: 2319698215 heartbeat IPC: 1.533 cumulative IPC: 0.6251 (Simulation time: 04 hr 06 min 26 sec)
[ERROR_CYCLE] Error added at CPU cycle 2324208050, interval 50, pending count: 1
[DRAM_CYCLE_ERROR] Cycle-based error applied! address=0x309fb8bc8 additional_latency=2459910500 cycles
Heartbeat CPU 0 instructions: 1460000204 cycles: 2335029721 heartbeat IPC: 0.6523 cumulative IPC: 0.6253 (Simulation time: 04 hr 08 min 06 sec)
Heartbeat CPU 0 instructions: 1470000205 cycles: 2341147358 heartbeat IPC: 1.635 cumulative IPC: 0.6279 (Simulation time: 04 hr 08 min 46 sec)
Heartbeat CPU 0 instructions: 1480000207 cycles: 2348180732 heartbeat IPC: 1.422 cumulative IPC: 0.6303 (Simulation time: 04 hr 09 min 32 sec)
Heartbeat CPU 0 instructions: 1490000207 cycles: 2357070479 heartbeat IPC: 1.125 cumulative IPC: 0.6321 (Simulation time: 04 hr 10 min 29 sec)
Heartbeat CPU 0 instructions: 1500000209 cycles: 2365764955 heartbeat IPC: 1.15 cumulative IPC: 0.634 (Simulation time: 04 hr 11 min 35 sec)
[ERROR_CYCLE] Error added at CPU cycle 2370692212, interval 51, pending count: 1
[DRAM_CYCLE_ERROR] Cycle-based error applied! address=0x862dddf42 additional_latency=2459910500 cycles
Heartbeat CPU 0 instructions: 1510000211 cycles: 2374383146 heartbeat IPC: 1.16 cumulative IPC: 0.636 (Simulation time: 04 hr 12 min 28 sec)
Heartbeat CPU 0 instructions: 1520000213 cycles: 2392318999 heartbeat IPC: 0.5575 cumulative IPC: 0.6354 (Simulation time: 04 hr 14 min 25 sec)
Heartbeat CPU 0 instructions: 1530000213 cycles: 2400847041 heartbeat IPC: 1.173 cumulative IPC: 0.6373 (Simulation time: 04 hr 15 min 40 sec)
Heartbeat CPU 0 instructions: 1540000217 cycles: 2409168478 heartbeat IPC: 1.202 cumulative IPC: 0.6392 (Simulation time: 04 hr 16 min 48 sec)
[ERROR_CYCLE] Error added at CPU cycle 2417176373, interval 52, pending count: 1
[DRAM_CYCLE_ERROR] Cycle-based error applied! address=0x521c3c508 additional_latency=2459910500 cycles
Heartbeat CPU 0 instructions: 1550000219 cycles: 2427706139 heartbeat IPC: 0.5394 cumulative IPC: 0.6385 (Simulation time: 04 hr 18 min 56 sec)
Heartbeat CPU 0 instructions: 1560000220 cycles: 2435833880 heartbeat IPC: 1.23 cumulative IPC: 0.6404 (Simulation time: 04 hr 20 min 00 sec)
Heartbeat CPU 0 instructions: 1570000220 cycles: 2443520350 heartbeat IPC: 1.301 cumulative IPC: 0.6425 (Simulation time: 04 hr 21 min 03 sec)
Heartbeat CPU 0 instructions: 1580000221 cycles: 2450949366 heartbeat IPC: 1.346 cumulative IPC: 0.6446 (Simulation time: 04 hr 22 min 11 sec)
Heartbeat CPU 0 instructions: 1590000225 cycles: 2458199043 heartbeat IPC: 1.379 cumulative IPC: 0.6468 (Simulation time: 04 hr 23 min 07 sec)
[ERROR_CYCLE] Error added at CPU cycle 2463660534, interval 53, pending count: 1
[DRAM_CYCLE_ERROR] Cycle-based error applied! address=0xf7d6fae00 additional_latency=2459910500 cycles
Heartbeat CPU 0 instructions: 1600000228 cycles: 2474985476 heartbeat IPC: 0.5957 cumulative IPC: 0.6465 (Simulation time: 04 hr 24 min 55 sec)
Heartbeat CPU 0 instructions: 1610000229 cycles: 2480215799 heartbeat IPC: 1.912 cumulative IPC: 0.6491 (Simulation time: 04 hr 25 min 49 sec)
Heartbeat CPU 0 instructions: 1620000229 cycles: 2485762655 heartbeat IPC: 1.803 cumulative IPC: 0.6517 (Simulation time: 04 hr 26 min 45 sec)
Heartbeat CPU 0 instructions: 1630000229 cycles: 2491777700 heartbeat IPC: 1.662 cumulative IPC: 0.6542 (Simulation time: 04 hr 27 min 44 sec)
Heartbeat CPU 0 instructions: 1640000233 cycles: 2498505140 heartbeat IPC: 1.486 cumulative IPC: 0.6564 (Simulation time: 04 hr 28 min 41 sec)
Heartbeat CPU 0 instructions: 1650000233 cycles: 2506770438 heartbeat IPC: 1.21 cumulative IPC: 0.6582 (Simulation time: 04 hr 29 min 51 sec)
[ERROR_CYCLE] Error added at CPU cycle 2510144695, interval 54, pending count: 1
[DRAM_CYCLE_ERROR] Cycle-based error applied! address=0x787c8bbc0 additional_latency=2459910500 cycles
Simulation CPU 0 warning: IPC 0.020293 < 0.05
Heartbeat CPU 0 instructions: 1660000233 cycles: 2525546257 heartbeat IPC: 0.5326 cumulative IPC: 0.6573 (Simulation time: 04 hr 32 min 03 sec)
Heartbeat CPU 0 instructions: 1670000233 cycles: 2534190408 heartbeat IPC: 1.157 cumulative IPC: 0.659 (Simulation time: 04 hr 33 min 16 sec)
Heartbeat CPU 0 instructions: 1680000234 cycles: 2542455845 heartbeat IPC: 1.21 cumulative IPC: 0.6608 (Simulation time: 04 hr 34 min 28 sec)
Heartbeat CPU 0 instructions: 1690000235 cycles: 2550228037 heartbeat IPC: 1.287 cumulative IPC: 0.6627 (Simulation time: 04 hr 35 min 38 sec)
[ERROR_CYCLE] Error added at CPU cycle 2556628855, interval 55, pending count: 1
[DRAM_CYCLE_ERROR] Cycle-based error applied! address=0xf7d6de840 additional_latency=2459910500 cycles
Heartbeat CPU 0 instructions: 1700000235 cycles: 2567573454 heartbeat IPC: 0.5765 cumulative IPC: 0.6621 (Simulation time: 04 hr 37 min 32 sec)
Heartbeat CPU 0 instructions: 1710000235 cycles: 2573919883 heartbeat IPC: 1.576 cumulative IPC: 0.6644 (Simulation time: 04 hr 38 min 22 sec)
Heartbeat CPU 0 instructions: 1720000236 cycles: 2579792838 heartbeat IPC: 1.703 cumulative IPC: 0.6667 (Simulation time: 04 hr 39 min 17 sec)
Heartbeat CPU 0 instructions: 1730000238 cycles: 2586711505 heartbeat IPC: 1.445 cumulative IPC: 0.6688 (Simulation time: 04 hr 40 min 13 sec)
Heartbeat CPU 0 instructions: 1740000238 cycles: 2595809255 heartbeat IPC: 1.099 cumulative IPC: 0.6703 (Simulation time: 04 hr 41 min 21 sec)
[ERROR_CYCLE] Error added at CPU cycle 2603113016, interval 56, pending count: 1
[DRAM_CYCLE_ERROR] Cycle-based error applied! address=0x737fedc82 additional_latency=2459910500 cycles
Heartbeat CPU 0 instructions: 1750000241 cycles: 2604178246 heartbeat IPC: 1.195 cumulative IPC: 0.672 (Simulation time: 04 hr 42 min 17 sec)
Heartbeat CPU 0 instructions: 1760000242 cycles: 2611759283 heartbeat IPC: 1.319 cumulative IPC: 0.6739 (Simulation time: 04 hr 43 min 17 sec)
Heartbeat CPU 0 instructions: 1770000243 cycles: 2620474618 heartbeat IPC: 1.147 cumulative IPC: 0.6755 (Simulation time: 04 hr 44 min 34 sec)
Heartbeat CPU 0 instructions: 1780000247 cycles: 2628671281 heartbeat IPC: 1.22 cumulative IPC: 0.6771 (Simulation time: 04 hr 45 min 48 sec)
Heartbeat CPU 0 instructions: 1790000249 cycles: 2636452700 heartbeat IPC: 1.285 cumulative IPC: 0.6789 (Simulation time: 04 hr 46 min 49 sec)
Heartbeat CPU 0 instructions: 1800000249 cycles: 2643978932 heartbeat IPC: 1.329 cumulative IPC: 0.6808 (Simulation time: 04 hr 47 min 38 sec)
[ERROR_CYCLE] Error added at CPU cycle 2649597177, interval 57, pending count: 1
[DRAM_CYCLE_ERROR] Cycle-based error applied! address=0xf612eec30 additional_latency=2459910500 cycles
Heartbeat CPU 0 instructions: 1810000251 cycles: 2661114421 heartbeat IPC: 0.5836 cumulative IPC: 0.6802 (Simulation time: 04 hr 49 min 21 sec)
Heartbeat CPU 0 instructions: 1820000252 cycles: 2668258394 heartbeat IPC: 1.4 cumulative IPC: 0.6821 (Simulation time: 04 hr 50 min 13 sec)
Heartbeat CPU 0 instructions: 1830000252 cycles: 2675268849 heartbeat IPC: 1.426 cumulative IPC: 0.684 (Simulation time: 04 hr 51 min 09 sec)
Heartbeat CPU 0 instructions: 1840000254 cycles: 2682157721 heartbeat IPC: 1.452 cumulative IPC: 0.686 (Simulation time: 04 hr 52 min 09 sec)
Heartbeat CPU 0 instructions: 1850000256 cycles: 2688932648 heartbeat IPC: 1.476 cumulative IPC: 0.688 (Simulation time: 04 hr 53 min 04 sec)
Heartbeat CPU 0 instructions: 1860000256 cycles: 2695546639 heartbeat IPC: 1.512 cumulative IPC: 0.69 (Simulation time: 04 hr 53 min 49 sec)
[ERROR_CYCLE] Error added at CPU cycle 2696081338, interval 58, pending count: 1
[DRAM_CYCLE_ERROR] Cycle-based error applied! address=0x41d728080 additional_latency=2459910500 cycles
Heartbeat CPU 0 instructions: 1870000257 cycles: 2711905193 heartbeat IPC: 0.6113 cumulative IPC: 0.6896 (Simulation time: 04 hr 55 min 42 sec)
Heartbeat CPU 0 instructions: 1880000259 cycles: 2718367226 heartbeat IPC: 1.548 cumulative IPC: 0.6916 (Simulation time: 04 hr 56 min 45 sec)
Heartbeat CPU 0 instructions: 1890000259 cycles: 2723330478 heartbeat IPC: 2.015 cumulative IPC: 0.694 (Simulation time: 04 hr 57 min 37 sec)
Heartbeat CPU 0 instructions: 1900000259 cycles: 2728284482 heartbeat IPC: 2.019 cumulative IPC: 0.6964 (Simulation time: 04 hr 58 min 30 sec)
Heartbeat CPU 0 instructions: 1910000259 cycles: 2733382183 heartbeat IPC: 1.962 cumulative IPC: 0.6988 (Simulation time: 04 hr 59 min 23 sec)
Heartbeat CPU 0 instructions: 1920000262 cycles: 2738630160 heartbeat IPC: 1.905 cumulative IPC: 0.7011 (Simulation time: 05 hr 00 min 16 sec)
[ERROR_CYCLE] Error added at CPU cycle 2742565499, interval 59, pending count: 1
[DRAM_CYCLE_ERROR] Cycle-based error applied! address=0xf002fea68 additional_latency=2459910500 cycles
Heartbeat CPU 0 instructions: 1930000262 cycles: 2753839297 heartbeat IPC: 0.6575 cumulative IPC: 0.7008 (Simulation time: 05 hr 02 min 19 sec)
Heartbeat CPU 0 instructions: 1940000263 cycles: 2759391015 heartbeat IPC: 1.801 cumulative IPC: 0.7031 (Simulation time: 05 hr 03 min 14 sec)
Heartbeat CPU 0 instructions: 1950000264 cycles: 2765109915 heartbeat IPC: 1.749 cumulative IPC: 0.7052 (Simulation time: 05 hr 04 min 11 sec)
Heartbeat CPU 0 instructions: 1960000264 cycles: 2771038296 heartbeat IPC: 1.687 cumulative IPC: 0.7073 (Simulation time: 05 hr 05 min 09 sec)
Heartbeat CPU 0 instructions: 1970000264 cycles: 2777268823 heartbeat IPC: 1.605 cumulative IPC: 0.7093 (Simulation time: 05 hr 06 min 08 sec)
Heartbeat CPU 0 instructions: 1980000266 cycles: 2783642664 heartbeat IPC: 1.569 cumulative IPC: 0.7113 (Simulation time: 05 hr 07 min 08 sec)
[ERROR_CYCLE] Error added at CPU cycle 2789049660, interval 60, pending count: 1
[DRAM_CYCLE_ERROR] Cycle-based error applied! address=0x4d73dfc68 additional_latency=2459910500 cycles
Heartbeat CPU 0 instructions: 1990000270 cycles: 2800238847 heartbeat IPC: 0.6025 cumulative IPC: 0.7107 (Simulation time: 05 hr 09 min 14 sec)

=== ERROR PAGE STATISTICS ===
Mode: CYCLE
Error Cycle Interval: 46484161 CPU cycles
Total Error Accesses: 60
==============================
Simulation finished CPU 0 instructions: 1999999979 cycles: 2807688235 cumulative IPC: 0.7123 (Simulation time: 05 hr 10 min 20 sec)
Simulation complete CPU 0 instructions: 1999999979 cycles: 2807688235 cumulative IPC: 0.7123 (Simulation time: 05 hr 10 min 20 sec)

ChampSim completed all CPUs

=== Simulation ===
CPU 0 runs test_traces/623.xalancbmk_s-592B.champsimtrace.xz

Region of Interest Statistics

CPU 0 cumulative IPC: 0.7123 instructions: 1999999979 cycles: 2807688235
CPU 0 Branch Prediction Accuracy: 97.16% MPKI: 8.552 Average ROB Occupancy at Mispredict: 24.38
Branch type MPKI
BRANCH_DIRECT_JUMP: 0.08608
BRANCH_INDIRECT: 0.2696
BRANCH_CONDITIONAL: 6.772
BRANCH_DIRECT_CALL: 0.0003155
BRANCH_INDIRECT_CALL: 0.2909
BRANCH_RETURN: 1.133

cpu0->cpu0_STLB TOTAL        ACCESS:     148269 HIT:     148174 MISS:         95 MSHR_MERGE:          0
cpu0->cpu0_STLB LOAD         ACCESS:     148269 HIT:     148174 MISS:         95 MSHR_MERGE:          0
cpu0->cpu0_STLB RFO          ACCESS:          0 HIT:          0 MISS:          0 MSHR_MERGE:          0
cpu0->cpu0_STLB PREFETCH     ACCESS:          0 HIT:          0 MISS:          0 MSHR_MERGE:          0
cpu0->cpu0_STLB WRITE        ACCESS:          0 HIT:          0 MISS:          0 MSHR_MERGE:          0
cpu0->cpu0_STLB TRANSLATION  ACCESS:          0 HIT:          0 MISS:          0 MSHR_MERGE:          0
cpu0->cpu0_STLB PREFETCH REQUESTED:          0 ISSUED:          0 USEFUL:          0 USELESS:          0
cpu0->cpu0_STLB AVERAGE MISS LATENCY: 1.067e+07 cycles
cpu0->cpu0_L2C TOTAL        ACCESS:  105790356 HIT:   99088771 MISS:    6701585 MSHR_MERGE:          0
cpu0->cpu0_L2C LOAD         ACCESS:   96650578 HIT:   93020982 MISS:    3629596 MSHR_MERGE:          0
cpu0->cpu0_L2C RFO          ACCESS:    3686330 HIT:     614342 MISS:    3071988 MSHR_MERGE:          0
cpu0->cpu0_L2C PREFETCH     ACCESS:          0 HIT:          0 MISS:          0 MSHR_MERGE:          0
cpu0->cpu0_L2C WRITE        ACCESS:    5453448 HIT:    5453447 MISS:          1 MSHR_MERGE:          0
cpu0->cpu0_L2C TRANSLATION  ACCESS:          0 HIT:          0 MISS:          0 MSHR_MERGE:          0
cpu0->cpu0_L2C PREFETCH REQUESTED:          0 ISSUED:          0 USEFUL:          0 USELESS:          0
cpu0->cpu0_L2C AVERAGE MISS LATENCY: 133 cycles
cpu0->cpu0_L1I TOTAL        ACCESS:  360951488 HIT:  355551440 MISS:    5400048 MSHR_MERGE:    1495453
cpu0->cpu0_L1I LOAD         ACCESS:  360951488 HIT:  355551440 MISS:    5400048 MSHR_MERGE:    1495453
cpu0->cpu0_L1I RFO          ACCESS:          0 HIT:          0 MISS:          0 MSHR_MERGE:          0
cpu0->cpu0_L1I PREFETCH     ACCESS:          0 HIT:          0 MISS:          0 MSHR_MERGE:          0
cpu0->cpu0_L1I WRITE        ACCESS:          0 HIT:          0 MISS:          0 MSHR_MERGE:          0
cpu0->cpu0_L1I TRANSLATION  ACCESS:          0 HIT:          0 MISS:          0 MSHR_MERGE:          0
cpu0->cpu0_L1I PREFETCH REQUESTED:          0 ISSUED:          0 USEFUL:          0 USELESS:          0
cpu0->cpu0_L1I AVERAGE MISS LATENCY: 10.41 cycles
cpu0->cpu0_L1D TOTAL        ACCESS:  536496450 HIT:  360077761 MISS:  176418689 MSHR_MERGE:   79986276
cpu0->cpu0_L1D LOAD         ACCESS:  419474458 HIT:  256661595 MISS:  162812863 MSHR_MERGE:   70066808
cpu0->cpu0_L1D RFO          ACCESS:          0 HIT:          0 MISS:          0 MSHR_MERGE:          0
cpu0->cpu0_L1D PREFETCH     ACCESS:          0 HIT:          0 MISS:          0 MSHR_MERGE:          0
cpu0->cpu0_L1D WRITE        ACCESS:  117021992 HIT:  103416166 MISS:   13605826 MSHR_MERGE:    9919468
cpu0->cpu0_L1D TRANSLATION  ACCESS:          0 HIT:          0 MISS:          0 MSHR_MERGE:          0
cpu0->cpu0_L1D PREFETCH REQUESTED:          0 ISSUED:          0 USEFUL:          0 USELESS:          0
cpu0->cpu0_L1D AVERAGE MISS LATENCY: 17.32 cycles
cpu0->cpu0_ITLB TOTAL        ACCESS:  341721076 HIT:  341721071 MISS:          5 MSHR_MERGE:          1
cpu0->cpu0_ITLB LOAD         ACCESS:  341721076 HIT:  341721071 MISS:          5 MSHR_MERGE:          1
cpu0->cpu0_ITLB RFO          ACCESS:          0 HIT:          0 MISS:          0 MSHR_MERGE:          0
cpu0->cpu0_ITLB PREFETCH     ACCESS:          0 HIT:          0 MISS:          0 MSHR_MERGE:          0
cpu0->cpu0_ITLB WRITE        ACCESS:          0 HIT:          0 MISS:          0 MSHR_MERGE:          0
cpu0->cpu0_ITLB TRANSLATION  ACCESS:          0 HIT:          0 MISS:          0 MSHR_MERGE:          0
cpu0->cpu0_ITLB PREFETCH REQUESTED:          0 ISSUED:          0 USEFUL:          0 USELESS:          0
cpu0->cpu0_ITLB AVERAGE MISS LATENCY: 1.155e+07 cycles
cpu0->cpu0_DTLB TOTAL        ACCESS:  460619412 HIT:  460430255 MISS:     189157 MSHR_MERGE:      40892
cpu0->cpu0_DTLB LOAD         ACCESS:  460619412 HIT:  460430255 MISS:     189157 MSHR_MERGE:      40892
cpu0->cpu0_DTLB RFO          ACCESS:          0 HIT:          0 MISS:          0 MSHR_MERGE:          0
cpu0->cpu0_DTLB PREFETCH     ACCESS:          0 HIT:          0 MISS:          0 MSHR_MERGE:          0
cpu0->cpu0_DTLB WRITE        ACCESS:          0 HIT:          0 MISS:          0 MSHR_MERGE:          0
cpu0->cpu0_DTLB TRANSLATION  ACCESS:          0 HIT:          0 MISS:          0 MSHR_MERGE:          0
cpu0->cpu0_DTLB PREFETCH REQUESTED:          0 ISSUED:          0 USEFUL:          0 USELESS:          0
cpu0->cpu0_DTLB AVERAGE MISS LATENCY: 6531 cycles
cpu0->LLC TOTAL        ACCESS:   10182994 HIT:    6920643 MISS:    3262351 MSHR_MERGE:          0
cpu0->LLC LOAD         ACCESS:    3629596 HIT:    3226506 MISS:     403090 MSHR_MERGE:          0
cpu0->LLC RFO          ACCESS:    3071988 HIT:     227048 MISS:    2844940 MSHR_MERGE:          0
cpu0->LLC PREFETCH     ACCESS:          0 HIT:          0 MISS:          0 MSHR_MERGE:          0
cpu0->LLC WRITE        ACCESS:    3481410 HIT:    3467089 MISS:      14321 MSHR_MERGE:          0
cpu0->LLC TRANSLATION  ACCESS:          0 HIT:          0 MISS:          0 MSHR_MERGE:          0
cpu0->LLC PREFETCH REQUESTED:          0 ISSUED:          0 USEFUL:          0 USELESS:          0
cpu0->LLC AVERAGE MISS LATENCY: 241.3 cycles

DRAM Statistics

Channel 0 RQ ROW_BUFFER_HIT:     210431
  ROW_BUFFER_MISS:    1413288
  AVG DBUS CONGESTED CYCLE: 8.129
Channel 0 WQ ROW_BUFFER_HIT:     135115
  ROW_BUFFER_MISS:    1407018
  FULL:          2
Channel 0 REFRESHES ISSUED:     233959

Channel 1 RQ ROW_BUFFER_HIT:     210024
  ROW_BUFFER_MISS:    1414477
  AVG DBUS CONGESTED CYCLE: 8.131
Channel 1 WQ ROW_BUFFER_HIT:     135424
  ROW_BUFFER_MISS:    1407284
  FULL:          0
Channel 1 REFRESHES ISSUED:     233959
