
*** ChampSim Multicore Out-of-Order Simulator ***
Warmup Instructions: 0
Simulation Instructions: 9223372036854775807
Number of CPUs: 1
Page size: 1048576

Off-chip DRAM Size: 32 GiB Channels: 2 Width: 32-bit Data Rate: 4807 MT/s
[ERROR_PAGE_MANAGER] Error latency: 2459910500 
[ERROR_PAGE_MANAGER] Random seed: 54321 (fixed for preload reproducibility)
[ERROR_PAGE_MANAGER] Cycle-based error modeling enabled
[ERROR_PAGE_MANAGER] Errors per interval: 1
[ERROR_PAGE_MANAGER] Error cycle interval: 705324015 cycles

=== ERROR PAGE STATISTICS ===
Mode: CYCLE
Error Cycle Interval: 705324015 CPU cycles
Total Error Accesses: 0
==============================
Warmup finished CPU 0 instructions: 0 cycles: 1 cumulative IPC: 0 (Simulation time: 00 hr 00 min 00 sec)
Warmup complete CPU 0 instructions: 0 cycles: 1 cumulative IPC: 0 (Simulation time: 00 hr 00 min 00 sec)
Simulation CPU 0 panic: IPC 0 < 0.01
Simulation CPU 0 panic: IPC 9e-07 < 0.01
Simulation CPU 0 panic: IPC 3e-07 < 0.01
Simulation CPU 0 panic: IPC 1e-07 < 0.01
Simulation CPU 0 panic: IPC 1.8e-06 < 0.01
Simulation CPU 0 panic: IPC 0 < 0.01
Simulation CPU 0 panic: IPC 2.29e-05 < 0.01
Simulation CPU 0 panic: IPC 1.7e-06 < 0.01
Simulation CPU 0 panic: IPC 1.81e-05 < 0.01
Simulation CPU 0 panic: IPC 4.33e-05 < 0.01
Simulation CPU 0 panic: IPC 1.23e-05 < 0.01
Simulation CPU 0 panic: IPC 1e-07 < 0.01
Simulation CPU 0 panic: IPC 1.66e-05 < 0.01
Simulation CPU 0 panic: IPC 8.1e-06 < 0.01
Simulation CPU 0 panic: IPC 1e-07 < 0.01
Simulation CPU 0 panic: IPC 2.9e-06 < 0.01
Simulation CPU 0 panic: IPC 3.8e-06 < 0.01
Simulation CPU 0 panic: IPC 1e-07 < 0.01
Simulation CPU 0 panic: IPC 2.9e-06 < 0.01
Simulation CPU 0 panic: IPC 1e-07 < 0.01
Simulation CPU 0 panic: IPC 2.9e-06 < 0.01
Simulation CPU 0 panic: IPC 3e-06 < 0.01
Simulation CPU 0 panic: IPC 1e-07 < 0.01
Simulation CPU 0 panic: IPC 9.7e-06 < 0.01
Simulation CPU 0 panic: IPC 3e-06 < 0.01
Simulation CPU 0 panic: IPC 3e-06 < 0.01
Simulation CPU 0 panic: IPC 2.34e-05 < 0.01
Simulation CPU 0 panic: IPC 1.52e-05 < 0.01
Simulation CPU 0 panic: IPC 2.35e-05 < 0.01
Simulation CPU 0 panic: IPC 8.2e-06 < 0.01
Simulation CPU 0 panic: IPC 1.95e-05 < 0.01
Simulation CPU 0 panic: IPC 0.0001239 < 0.01
Simulation CPU 0 panic: IPC 0.0001436 < 0.01
Simulation CPU 0 panic: IPC 0.0001423 < 0.01
Simulation CPU 0 panic: IPC 7.53e-05 < 0.01
Simulation CPU 0 panic: IPC 6.57e-05 < 0.01
Simulation CPU 0 panic: IPC 0.000357 < 0.01
Simulation CPU 0 panic: IPC 0.0012567 < 0.01
Simulation CPU 0 panic: IPC 0.0001685 < 0.01
Simulation CPU 0 panic: IPC 3.27e-05 < 0.01
Simulation CPU 0 panic: IPC 6.7e-06 < 0.01
Simulation CPU 0 panic: IPC 3.1e-06 < 0.01
Simulation CPU 0 panic: IPC 2.41e-05 < 0.01
Simulation CPU 0 panic: IPC 1.04e-05 < 0.01
Simulation CPU 0 panic: IPC 7.01e-05 < 0.01
Simulation CPU 0 panic: IPC 1.64e-05 < 0.01
Simulation CPU 0 panic: IPC 2.7e-06 < 0.01
Simulation CPU 0 panic: IPC 0.0001107 < 0.01
Simulation CPU 0 panic: IPC 0.0001304 < 0.01
Simulation CPU 0 panic: IPC 3e-06 < 0.01
Simulation CPU 0 panic: IPC 3e-06 < 0.01
Simulation CPU 0 panic: IPC 1e-07 < 0.01
Simulation CPU 0 panic: IPC 3e-06 < 0.01
Simulation CPU 0 panic: IPC 3e-06 < 0.01
Simulation CPU 0 panic: IPC 3e-06 < 0.01
Simulation CPU 0 panic: IPC 2.9e-06 < 0.01
Simulation CPU 0 panic: IPC 1e-07 < 0.01
Simulation CPU 0 panic: IPC 2.9e-06 < 0.01
Simulation CPU 0 panic: IPC 1e-07 < 0.01
Simulation CPU 0 panic: IPC 2.02e-05 < 0.01
Simulation CPU 0 panic: IPC 0.0001422 < 0.01
Simulation CPU 0 panic: IPC 2.14e-05 < 0.01
Simulation CPU 0 panic: IPC 1e-07 < 0.01
Simulation CPU 0 panic: IPC 5.9e-06 < 0.01
Simulation CPU 0 panic: IPC 6e-06 < 0.01
Simulation CPU 0 panic: IPC 9.1e-06 < 0.01
Simulation CPU 0 panic: IPC 2.12e-05 < 0.01
Simulation CPU 0 panic: IPC 0.0001447 < 0.01
Simulation CPU 0 panic: IPC 7.09e-05 < 0.01
Simulation CPU 0 panic: IPC 7e-06 < 0.01
[ERROR_CYCLE] Error added at CPU cycle 705324016, interval 1, pending count: 1
[DRAM_CYCLE_ERROR] Cycle-based error applied! address=0x537c5f470 additional_latency=2459910500 cycles
Simulation CPU 0 panic: IPC 2.22e-05 < 0.01
Simulation CPU 0 panic: IPC 0 < 0.01
Simulation CPU 0 panic: IPC 5e-07 < 0.01
Simulation CPU 0 panic: IPC 1.88e-05 < 0.01
Simulation CPU 0 panic: IPC 4e-07 < 0.01
Simulation CPU 0 panic: IPC 1.09e-05 < 0.01
Simulation CPU 0 panic: IPC 5.8e-06 < 0.01
Simulation CPU 0 panic: IPC 4e-07 < 0.01
Simulation CPU 0 panic: IPC 8e-07 < 0.01
Simulation CPU 0 panic: IPC 5.1e-06 < 0.01
Simulation CPU 0 panic: IPC 2.8e-05 < 0.01
Simulation CPU 0 panic: IPC 2.47e-05 < 0.01
Simulation CPU 0 panic: IPC 5.4e-06 < 0.01
Simulation CPU 0 panic: IPC 1.71e-05 < 0.01
Simulation CPU 0 panic: IPC 5.1e-06 < 0.01
Simulation CPU 0 panic: IPC 1.52e-05 < 0.01
Simulation CPU 0 panic: IPC 8.6e-06 < 0.01
Simulation CPU 0 panic: IPC 5.5e-06 < 0.01
Simulation CPU 0 panic: IPC 8.5e-06 < 0.01
Simulation CPU 0 panic: IPC 1.48e-05 < 0.01
Simulation CPU 0 panic: IPC 1.25e-05 < 0.01
Simulation CPU 0 panic: IPC 2.58e-05 < 0.01
Simulation CPU 0 panic: IPC 2e-05 < 0.01
Simulation CPU 0 panic: IPC 1.17e-05 < 0.01
Simulation CPU 0 panic: IPC 3.16e-05 < 0.01
Simulation CPU 0 panic: IPC 5.5e-06 < 0.01
Simulation CPU 0 panic: IPC 0.0006164 < 0.01
Simulation CPU 0 panic: IPC 0.0001388 < 0.01
Simulation CPU 0 panic: IPC 0.0004124 < 0.01
Simulation CPU 0 panic: IPC 0.0001653 < 0.01
Simulation CPU 0 panic: IPC 0.0002633 < 0.01
Simulation CPU 0 panic: IPC 0.0011627 < 0.01
Simulation CPU 0 panic: IPC 5.4e-06 < 0.01
Simulation CPU 0 panic: IPC 0.0001581 < 0.01
Simulation CPU 0 panic: IPC 5.4e-06 < 0.01
Simulation CPU 0 panic: IPC 0.0001589 < 0.01
Simulation CPU 0 panic: IPC 5.4e-06 < 0.01
Simulation CPU 0 panic: IPC 0.0003267 < 0.01
Simulation CPU 0 panic: IPC 0.0001719 < 0.01
Simulation CPU 0 panic: IPC 0.0001609 < 0.01
Simulation CPU 0 panic: IPC 0.0003321 < 0.01
Simulation CPU 0 panic: IPC 5.4e-06 < 0.01
Simulation CPU 0 panic: IPC 0.0003799 < 0.01
Simulation CPU 0 panic: IPC 9e-06 < 0.01
Simulation CPU 0 panic: IPC 1e-07 < 0.01
Simulation CPU 0 panic: IPC 0.0001136 < 0.01
Simulation CPU 0 panic: IPC 1.6e-05 < 0.01
Simulation CPU 0 panic: IPC 2.22e-05 < 0.01
Simulation CPU 0 panic: IPC 1.21e-05 < 0.01
Simulation CPU 0 panic: IPC 8.9e-06 < 0.01
Simulation CPU 0 panic: IPC 1e-07 < 0.01
Simulation CPU 0 panic: IPC 0.0001016 < 0.01
Simulation CPU 0 panic: IPC 0.0002726 < 0.01
Simulation CPU 0 panic: IPC 3.75e-05 < 0.01
Simulation CPU 0 panic: IPC 0.0003367 < 0.01
Simulation CPU 0 panic: IPC 6.43e-05 < 0.01
Simulation CPU 0 panic: IPC 0.0002663 < 0.01
Simulation CPU 0 panic: IPC 3.92e-05 < 0.01
Simulation CPU 0 panic: IPC 4.55e-05 < 0.01
Simulation CPU 0 panic: IPC 2.08e-05 < 0.01
Simulation CPU 0 panic: IPC 5.2e-06 < 0.01
Simulation CPU 0 panic: IPC 6.65e-05 < 0.01
Simulation CPU 0 panic: IPC 0.0001063 < 0.01
Simulation CPU 0 panic: IPC 0.0002394 < 0.01
Simulation CPU 0 panic: IPC 0.0007973 < 0.01
Simulation CPU 0 panic: IPC 0.0001879 < 0.01
Simulation CPU 0 panic: IPC 0.0001448 < 0.01
Simulation CPU 0 panic: IPC 9.46e-05 < 0.01
Simulation CPU 0 panic: IPC 0.0004602 < 0.01
Simulation CPU 0 panic: IPC 3.92e-05 < 0.01
Simulation CPU 0 panic: IPC 3.95e-05 < 0.01
[ERROR_CYCLE] Error added at CPU cycle 1410648031, interval 2, pending count: 1
[DRAM_CYCLE_ERROR] Cycle-based error applied! address=0x34170dd8 additional_latency=2459910500 cycles
Simulation CPU 0 panic: IPC 0 < 0.01
Simulation CPU 0 panic: IPC 3.73e-05 < 0.01
Simulation CPU 0 panic: IPC 0.0001282 < 0.01
Simulation CPU 0 panic: IPC 5.09e-05 < 0.01
Simulation CPU 0 panic: IPC 0.0002329 < 0.01
Simulation CPU 0 panic: IPC 9.46e-05 < 0.01
Simulation CPU 0 panic: IPC 0.0025007 < 0.01
Simulation CPU 0 panic: IPC 0.000105 < 0.01
Simulation CPU 0 panic: IPC 0.0003876 < 0.01
Simulation CPU 0 panic: IPC 0.0009874 < 0.01
Simulation CPU 0 panic: IPC 0.0012842 < 0.01
Simulation CPU 0 panic: IPC 0.0015389 < 0.01
Simulation CPU 0 panic: IPC 0.0003849 < 0.01
Simulation CPU 0 panic: IPC 0.0003655 < 0.01
Simulation CPU 0 panic: IPC 0.000366 < 0.01
Simulation CPU 0 panic: IPC 7.62e-05 < 0.01
Simulation CPU 0 panic: IPC 0.0003003 < 0.01
Simulation CPU 0 panic: IPC 0.0003039 < 0.01
Simulation CPU 0 panic: IPC 0.0002456 < 0.01
Simulation CPU 0 panic: IPC 0.0051855 < 0.01
Simulation CPU 0 panic: IPC 0.0010858 < 0.01
Simulation CPU 0 panic: IPC 0.0002078 < 0.01
Simulation CPU 0 panic: IPC 0.0002537 < 0.01
Simulation CPU 0 panic: IPC 0.0008968 < 0.01
Simulation CPU 0 panic: IPC 0.002866 < 0.01
Simulation CPU 0 panic: IPC 0.0011515 < 0.01
Simulation CPU 0 panic: IPC 0.0008584 < 0.01
Simulation CPU 0 panic: IPC 0.0006085 < 0.01
Simulation CPU 0 panic: IPC 0.0003011 < 0.01
Simulation CPU 0 panic: IPC 0.0021249 < 0.01
Simulation CPU 0 panic: IPC 0.0029258 < 0.01
Simulation CPU 0 panic: IPC 0.0023755 < 0.01
Simulation CPU 0 panic: IPC 0.0030551 < 0.01
Simulation CPU 0 panic: IPC 0.0017629 < 0.01
Simulation CPU 0 panic: IPC 0.0003205 < 0.01
Simulation CPU 0 panic: IPC 0.0003317 < 0.01
Simulation CPU 0 panic: IPC 0.0007435 < 0.01
Simulation CPU 0 panic: IPC 0.0019878 < 0.01
Simulation CPU 0 panic: IPC 0.0003699 < 0.01
Simulation CPU 0 panic: IPC 0.0024232 < 0.01
Simulation CPU 0 panic: IPC 0.0003722 < 0.01
Simulation CPU 0 panic: IPC 0.0009868 < 0.01
Simulation CPU 0 panic: IPC 0.002298 < 0.01
Simulation CPU 0 panic: IPC 0.0021605 < 0.01
Simulation CPU 0 warning: IPC 0.024162 < 0.05
Simulation CPU 0 critical: IPC 0.018314 < 0.02
Simulation CPU 0 warning: IPC 0.04965 < 0.05
Heartbeat CPU 0 instructions: 10000003 cycles: 1918412496 heartbeat IPC: 0.005213 cumulative IPC: 0.005213 (Simulation time: 02 hr 37 min 39 sec)
Heartbeat CPU 0 instructions: 20000007 cycles: 1933303421 heartbeat IPC: 0.6716 cumulative IPC: 0.01034 (Simulation time: 02 hr 39 min 24 sec)
Heartbeat CPU 0 instructions: 30000008 cycles: 1948156108 heartbeat IPC: 0.6733 cumulative IPC: 0.0154 (Simulation time: 02 hr 41 min 09 sec)
Heartbeat CPU 0 instructions: 40000008 cycles: 1963100559 heartbeat IPC: 0.6691 cumulative IPC: 0.02038 (Simulation time: 02 hr 42 min 55 sec)
Heartbeat CPU 0 instructions: 50000008 cycles: 1978221134 heartbeat IPC: 0.6614 cumulative IPC: 0.02528 (Simulation time: 02 hr 44 min 41 sec)
Heartbeat CPU 0 instructions: 60000011 cycles: 1992778865 heartbeat IPC: 0.6869 cumulative IPC: 0.03011 (Simulation time: 02 hr 46 min 28 sec)
Heartbeat CPU 0 instructions: 70000011 cycles: 2007663473 heartbeat IPC: 0.6718 cumulative IPC: 0.03487 (Simulation time: 02 hr 48 min 15 sec)
Heartbeat CPU 0 instructions: 80000012 cycles: 2022580227 heartbeat IPC: 0.6704 cumulative IPC: 0.03955 (Simulation time: 02 hr 49 min 54 sec)
Heartbeat CPU 0 instructions: 90000013 cycles: 2037357615 heartbeat IPC: 0.6767 cumulative IPC: 0.04417 (Simulation time: 02 hr 51 min 34 sec)
Heartbeat CPU 0 instructions: 100000016 cycles: 2052154504 heartbeat IPC: 0.6758 cumulative IPC: 0.04873 (Simulation time: 02 hr 52 min 44 sec)
Heartbeat CPU 0 instructions: 110000018 cycles: 2066864384 heartbeat IPC: 0.6798 cumulative IPC: 0.05322 (Simulation time: 02 hr 54 min 05 sec)
Heartbeat CPU 0 instructions: 120000018 cycles: 2081519590 heartbeat IPC: 0.6824 cumulative IPC: 0.05765 (Simulation time: 02 hr 55 min 35 sec)
Heartbeat CPU 0 instructions: 130000018 cycles: 2096285401 heartbeat IPC: 0.6772 cumulative IPC: 0.06201 (Simulation time: 02 hr 57 min 09 sec)
Heartbeat CPU 0 instructions: 140000020 cycles: 2110954901 heartbeat IPC: 0.6817 cumulative IPC: 0.06632 (Simulation time: 02 hr 58 min 54 sec)
[ERROR_CYCLE] Error added at CPU cycle 2115972045, interval 3, pending count: 1
[DRAM_CYCLE_ERROR] Cycle-based error applied! address=0xc328e3d6 additional_latency=2459910500 cycles
Heartbeat CPU 0 instructions: 150000021 cycles: 2135618473 heartbeat IPC: 0.4055 cumulative IPC: 0.07024 (Simulation time: 03 hr 01 min 30 sec)
Heartbeat CPU 0 instructions: 160000021 cycles: 2150419740 heartbeat IPC: 0.6756 cumulative IPC: 0.0744 (Simulation time: 03 hr 03 min 09 sec)
Heartbeat CPU 0 instructions: 170000021 cycles: 2165067745 heartbeat IPC: 0.6827 cumulative IPC: 0.07852 (Simulation time: 03 hr 04 min 47 sec)
Heartbeat CPU 0 instructions: 180000024 cycles: 2179559059 heartbeat IPC: 0.6901 cumulative IPC: 0.08259 (Simulation time: 03 hr 06 min 17 sec)
Heartbeat CPU 0 instructions: 190000028 cycles: 2194157173 heartbeat IPC: 0.685 cumulative IPC: 0.08659 (Simulation time: 03 hr 07 min 29 sec)
Heartbeat CPU 0 instructions: 200000029 cycles: 2208936556 heartbeat IPC: 0.6766 cumulative IPC: 0.09054 (Simulation time: 03 hr 08 min 53 sec)
Heartbeat CPU 0 instructions: 210000033 cycles: 2223674806 heartbeat IPC: 0.6785 cumulative IPC: 0.09444 (Simulation time: 03 hr 10 min 04 sec)
Heartbeat CPU 0 instructions: 220000035 cycles: 2238364007 heartbeat IPC: 0.6808 cumulative IPC: 0.09829 (Simulation time: 03 hr 11 min 30 sec)
Heartbeat CPU 0 instructions: 230000036 cycles: 2253234074 heartbeat IPC: 0.6725 cumulative IPC: 0.1021 (Simulation time: 03 hr 12 min 42 sec)
Heartbeat CPU 0 instructions: 240000036 cycles: 2267979752 heartbeat IPC: 0.6782 cumulative IPC: 0.1058 (Simulation time: 03 hr 14 min 03 sec)
Heartbeat CPU 0 instructions: 250000038 cycles: 2282274409 heartbeat IPC: 0.6996 cumulative IPC: 0.1095 (Simulation time: 03 hr 15 min 18 sec)
Heartbeat CPU 0 instructions: 260000038 cycles: 2296620093 heartbeat IPC: 0.6971 cumulative IPC: 0.1132 (Simulation time: 03 hr 16 min 48 sec)
Heartbeat CPU 0 instructions: 270000038 cycles: 2311431689 heartbeat IPC: 0.6751 cumulative IPC: 0.1168 (Simulation time: 03 hr 18 min 34 sec)
Heartbeat CPU 0 instructions: 280000041 cycles: 2326501351 heartbeat IPC: 0.6636 cumulative IPC: 0.1204 (Simulation time: 03 hr 20 min 23 sec)
Heartbeat CPU 0 instructions: 290000043 cycles: 2341435941 heartbeat IPC: 0.6696 cumulative IPC: 0.1239 (Simulation time: 03 hr 22 min 11 sec)
Heartbeat CPU 0 instructions: 300000044 cycles: 2355836222 heartbeat IPC: 0.6944 cumulative IPC: 0.1273 (Simulation time: 03 hr 23 min 56 sec)
Heartbeat CPU 0 instructions: 310000047 cycles: 2370798845 heartbeat IPC: 0.6683 cumulative IPC: 0.1308 (Simulation time: 03 hr 25 min 45 sec)
Heartbeat CPU 0 instructions: 320000051 cycles: 2385549726 heartbeat IPC: 0.6779 cumulative IPC: 0.1341 (Simulation time: 03 hr 27 min 32 sec)
Heartbeat CPU 0 instructions: 330000051 cycles: 2400250579 heartbeat IPC: 0.6802 cumulative IPC: 0.1375 (Simulation time: 03 hr 29 min 19 sec)
Heartbeat CPU 0 instructions: 340000055 cycles: 2414090766 heartbeat IPC: 0.7225 cumulative IPC: 0.1408 (Simulation time: 03 hr 31 min 01 sec)
Heartbeat CPU 0 instructions: 350000055 cycles: 2428674570 heartbeat IPC: 0.6857 cumulative IPC: 0.1441 (Simulation time: 03 hr 32 min 45 sec)
Heartbeat CPU 0 instructions: 360000056 cycles: 2442992036 heartbeat IPC: 0.6984 cumulative IPC: 0.1474 (Simulation time: 03 hr 34 min 10 sec)
Heartbeat CPU 0 instructions: 370000056 cycles: 2457397241 heartbeat IPC: 0.6942 cumulative IPC: 0.1506 (Simulation time: 03 hr 35 min 24 sec)
Heartbeat CPU 0 instructions: 380000056 cycles: 2471718308 heartbeat IPC: 0.6983 cumulative IPC: 0.1537 (Simulation time: 03 hr 36 min 45 sec)
Heartbeat CPU 0 instructions: 390000058 cycles: 2486064650 heartbeat IPC: 0.697 cumulative IPC: 0.1569 (Simulation time: 03 hr 37 min 58 sec)
Heartbeat CPU 0 instructions: 400000059 cycles: 2500525241 heartbeat IPC: 0.6915 cumulative IPC: 0.16 (Simulation time: 03 hr 39 min 32 sec)
Heartbeat CPU 0 instructions: 410000059 cycles: 2514882797 heartbeat IPC: 0.6965 cumulative IPC: 0.163 (Simulation time: 03 hr 40 min 42 sec)
Heartbeat CPU 0 instructions: 420000062 cycles: 2529407872 heartbeat IPC: 0.6885 cumulative IPC: 0.166 (Simulation time: 03 hr 42 min 02 sec)
Heartbeat CPU 0 instructions: 430000065 cycles: 2544015144 heartbeat IPC: 0.6846 cumulative IPC: 0.169 (Simulation time: 03 hr 43 min 47 sec)
Heartbeat CPU 0 instructions: 440000068 cycles: 2558754389 heartbeat IPC: 0.6785 cumulative IPC: 0.172 (Simulation time: 03 hr 45 min 33 sec)
Heartbeat CPU 0 instructions: 450000068 cycles: 2573395819 heartbeat IPC: 0.683 cumulative IPC: 0.1749 (Simulation time: 03 hr 47 min 11 sec)
Heartbeat CPU 0 instructions: 460000068 cycles: 2587977344 heartbeat IPC: 0.6858 cumulative IPC: 0.1777 (Simulation time: 03 hr 48 min 29 sec)
Heartbeat CPU 0 instructions: 470000068 cycles: 2602669349 heartbeat IPC: 0.6806 cumulative IPC: 0.1806 (Simulation time: 03 hr 50 min 13 sec)
Heartbeat CPU 0 instructions: 480000068 cycles: 2617292807 heartbeat IPC: 0.6838 cumulative IPC: 0.1834 (Simulation time: 03 hr 51 min 42 sec)
Heartbeat CPU 0 instructions: 490000071 cycles: 2632437212 heartbeat IPC: 0.6603 cumulative IPC: 0.1861 (Simulation time: 03 hr 53 min 29 sec)
Heartbeat CPU 0 instructions: 500000072 cycles: 2646964499 heartbeat IPC: 0.6884 cumulative IPC: 0.1889 (Simulation time: 03 hr 54 min 52 sec)
Heartbeat CPU 0 instructions: 510000075 cycles: 2661651725 heartbeat IPC: 0.6809 cumulative IPC: 0.1916 (Simulation time: 03 hr 56 min 26 sec)
Heartbeat CPU 0 instructions: 520000079 cycles: 2676371273 heartbeat IPC: 0.6794 cumulative IPC: 0.1943 (Simulation time: 03 hr 57 min 41 sec)
Heartbeat CPU 0 instructions: 530000080 cycles: 2690945178 heartbeat IPC: 0.6862 cumulative IPC: 0.197 (Simulation time: 03 hr 59 min 11 sec)
Heartbeat CPU 0 instructions: 540000080 cycles: 2705858174 heartbeat IPC: 0.6706 cumulative IPC: 0.1996 (Simulation time: 04 hr 00 min 55 sec)
Heartbeat CPU 0 instructions: 550000081 cycles: 2720690737 heartbeat IPC: 0.6742 cumulative IPC: 0.2022 (Simulation time: 04 hr 02 min 41 sec)
Heartbeat CPU 0 instructions: 560000082 cycles: 2735391382 heartbeat IPC: 0.6802 cumulative IPC: 0.2047 (Simulation time: 04 hr 04 min 16 sec)
Heartbeat CPU 0 instructions: 570000082 cycles: 2750297111 heartbeat IPC: 0.6709 cumulative IPC: 0.2073 (Simulation time: 04 hr 05 min 47 sec)
Heartbeat CPU 0 instructions: 580000083 cycles: 2764970841 heartbeat IPC: 0.6815 cumulative IPC: 0.2098 (Simulation time: 04 hr 07 min 28 sec)
Heartbeat CPU 0 instructions: 590000085 cycles: 2779839440 heartbeat IPC: 0.6726 cumulative IPC: 0.2122 (Simulation time: 04 hr 09 min 14 sec)
Heartbeat CPU 0 instructions: 600000086 cycles: 2794504619 heartbeat IPC: 0.6819 cumulative IPC: 0.2147 (Simulation time: 04 hr 10 min 31 sec)
Heartbeat CPU 0 instructions: 610000086 cycles: 2809106099 heartbeat IPC: 0.6849 cumulative IPC: 0.2172 (Simulation time: 04 hr 11 min 45 sec)
[ERROR_CYCLE] Error added at CPU cycle 2821296060, interval 4, pending count: 1
[DRAM_CYCLE_ERROR] Cycle-based error applied! address=0x5ce05f9c8 additional_latency=2459910500 cycles
Heartbeat CPU 0 instructions: 620000090 cycles: 2833890089 heartbeat IPC: 0.4035 cumulative IPC: 0.2188 (Simulation time: 04 hr 14 min 13 sec)
Heartbeat CPU 0 instructions: 630000094 cycles: 2848645189 heartbeat IPC: 0.6777 cumulative IPC: 0.2212 (Simulation time: 04 hr 16 min 01 sec)
Heartbeat CPU 0 instructions: 640000095 cycles: 2863579438 heartbeat IPC: 0.6696 cumulative IPC: 0.2235 (Simulation time: 04 hr 17 min 38 sec)
Heartbeat CPU 0 instructions: 650000098 cycles: 2878369899 heartbeat IPC: 0.6761 cumulative IPC: 0.2258 (Simulation time: 04 hr 19 min 04 sec)
Heartbeat CPU 0 instructions: 660000100 cycles: 2893212561 heartbeat IPC: 0.6737 cumulative IPC: 0.2281 (Simulation time: 04 hr 20 min 19 sec)
Heartbeat CPU 0 instructions: 670000101 cycles: 2907974940 heartbeat IPC: 0.6774 cumulative IPC: 0.2304 (Simulation time: 04 hr 21 min 51 sec)
Heartbeat CPU 0 instructions: 680000104 cycles: 2922718062 heartbeat IPC: 0.6783 cumulative IPC: 0.2327 (Simulation time: 04 hr 23 min 03 sec)
Heartbeat CPU 0 instructions: 690000108 cycles: 2937371610 heartbeat IPC: 0.6824 cumulative IPC: 0.2349 (Simulation time: 04 hr 24 min 41 sec)
Heartbeat CPU 0 instructions: 700000111 cycles: 2952004740 heartbeat IPC: 0.6834 cumulative IPC: 0.2371 (Simulation time: 04 hr 26 min 29 sec)
Heartbeat CPU 0 instructions: 710000111 cycles: 2966815104 heartbeat IPC: 0.6752 cumulative IPC: 0.2393 (Simulation time: 04 hr 28 min 18 sec)
Heartbeat CPU 0 instructions: 720000111 cycles: 2981646090 heartbeat IPC: 0.6743 cumulative IPC: 0.2415 (Simulation time: 04 hr 30 min 07 sec)
Heartbeat CPU 0 instructions: 730000112 cycles: 2996247992 heartbeat IPC: 0.6848 cumulative IPC: 0.2436 (Simulation time: 04 hr 31 min 55 sec)
Heartbeat CPU 0 instructions: 740000114 cycles: 3011052962 heartbeat IPC: 0.6754 cumulative IPC: 0.2458 (Simulation time: 04 hr 33 min 43 sec)
Heartbeat CPU 0 instructions: 750000115 cycles: 3025694257 heartbeat IPC: 0.683 cumulative IPC: 0.2479 (Simulation time: 04 hr 35 min 32 sec)
Heartbeat CPU 0 instructions: 760000117 cycles: 3040488096 heartbeat IPC: 0.676 cumulative IPC: 0.25 (Simulation time: 04 hr 37 min 21 sec)
Heartbeat CPU 0 instructions: 770000119 cycles: 3054919313 heartbeat IPC: 0.6929 cumulative IPC: 0.2521 (Simulation time: 04 hr 39 min 08 sec)
Heartbeat CPU 0 instructions: 780000119 cycles: 3069681202 heartbeat IPC: 0.6774 cumulative IPC: 0.2541 (Simulation time: 04 hr 40 min 57 sec)
Heartbeat CPU 0 instructions: 790000119 cycles: 3084400093 heartbeat IPC: 0.6794 cumulative IPC: 0.2561 (Simulation time: 04 hr 42 min 46 sec)
Heartbeat CPU 0 instructions: 800000119 cycles: 3098945756 heartbeat IPC: 0.6875 cumulative IPC: 0.2582 (Simulation time: 04 hr 44 min 33 sec)
Heartbeat CPU 0 instructions: 810000119 cycles: 3113545261 heartbeat IPC: 0.685 cumulative IPC: 0.2602 (Simulation time: 04 hr 46 min 21 sec)
Heartbeat CPU 0 instructions: 820000120 cycles: 3128257438 heartbeat IPC: 0.6797 cumulative IPC: 0.2621 (Simulation time: 04 hr 48 min 09 sec)
Heartbeat CPU 0 instructions: 830000122 cycles: 3142866058 heartbeat IPC: 0.6845 cumulative IPC: 0.2641 (Simulation time: 04 hr 49 min 57 sec)
Heartbeat CPU 0 instructions: 840000126 cycles: 3157276390 heartbeat IPC: 0.6939 cumulative IPC: 0.2661 (Simulation time: 04 hr 51 min 45 sec)
Heartbeat CPU 0 instructions: 850000129 cycles: 3171988472 heartbeat IPC: 0.6797 cumulative IPC: 0.268 (Simulation time: 04 hr 53 min 34 sec)
Heartbeat CPU 0 instructions: 860000133 cycles: 3186617174 heartbeat IPC: 0.6836 cumulative IPC: 0.2699 (Simulation time: 04 hr 55 min 22 sec)
Heartbeat CPU 0 instructions: 870000136 cycles: 3201188500 heartbeat IPC: 0.6863 cumulative IPC: 0.2718 (Simulation time: 04 hr 57 min 10 sec)
Heartbeat CPU 0 instructions: 880000138 cycles: 3215759644 heartbeat IPC: 0.6863 cumulative IPC: 0.2737 (Simulation time: 04 hr 58 min 58 sec)
Heartbeat CPU 0 instructions: 890000138 cycles: 3230301938 heartbeat IPC: 0.6876 cumulative IPC: 0.2755 (Simulation time: 05 hr 00 min 44 sec)
Heartbeat CPU 0 instructions: 900000142 cycles: 3244570947 heartbeat IPC: 0.7008 cumulative IPC: 0.2774 (Simulation time: 05 hr 02 min 30 sec)
Heartbeat CPU 0 instructions: 910000142 cycles: 3259085263 heartbeat IPC: 0.689 cumulative IPC: 0.2792 (Simulation time: 05 hr 04 min 17 sec)
Heartbeat CPU 0 instructions: 920000143 cycles: 3273707804 heartbeat IPC: 0.6839 cumulative IPC: 0.281 (Simulation time: 05 hr 06 min 04 sec)
Heartbeat CPU 0 instructions: 930000144 cycles: 3287948327 heartbeat IPC: 0.7022 cumulative IPC: 0.2829 (Simulation time: 05 hr 07 min 50 sec)
Heartbeat CPU 0 instructions: 940000145 cycles: 3302212536 heartbeat IPC: 0.7011 cumulative IPC: 0.2847 (Simulation time: 05 hr 09 min 36 sec)
Heartbeat CPU 0 instructions: 950000146 cycles: 3316809322 heartbeat IPC: 0.6851 cumulative IPC: 0.2864 (Simulation time: 05 hr 11 min 05 sec)
Heartbeat CPU 0 instructions: 960000149 cycles: 3331335627 heartbeat IPC: 0.6884 cumulative IPC: 0.2882 (Simulation time: 05 hr 12 min 51 sec)
Heartbeat CPU 0 instructions: 970000151 cycles: 3345947783 heartbeat IPC: 0.6844 cumulative IPC: 0.2899 (Simulation time: 05 hr 14 min 38 sec)
Heartbeat CPU 0 instructions: 980000151 cycles: 3360326273 heartbeat IPC: 0.6955 cumulative IPC: 0.2916 (Simulation time: 05 hr 16 min 23 sec)
Heartbeat CPU 0 instructions: 990000152 cycles: 3374930248 heartbeat IPC: 0.6847 cumulative IPC: 0.2933 (Simulation time: 05 hr 18 min 03 sec)
Heartbeat CPU 0 instructions: 1000000155 cycles: 3389548815 heartbeat IPC: 0.6841 cumulative IPC: 0.295 (Simulation time: 05 hr 19 min 49 sec)
Heartbeat CPU 0 instructions: 1010000157 cycles: 3404016443 heartbeat IPC: 0.6912 cumulative IPC: 0.2967 (Simulation time: 05 hr 21 min 31 sec)
Heartbeat CPU 0 instructions: 1020000158 cycles: 3418653739 heartbeat IPC: 0.6832 cumulative IPC: 0.2984 (Simulation time: 05 hr 23 min 10 sec)
Heartbeat CPU 0 instructions: 1030000159 cycles: 3433205478 heartbeat IPC: 0.6872 cumulative IPC: 0.3 (Simulation time: 05 hr 24 min 45 sec)
Heartbeat CPU 0 instructions: 1040000159 cycles: 3447743785 heartbeat IPC: 0.6878 cumulative IPC: 0.3016 (Simulation time: 05 hr 26 min 00 sec)
Heartbeat CPU 0 instructions: 1050000161 cycles: 3462121655 heartbeat IPC: 0.6955 cumulative IPC: 0.3033 (Simulation time: 05 hr 27 min 29 sec)
Heartbeat CPU 0 instructions: 1060000161 cycles: 3476445407 heartbeat IPC: 0.6981 cumulative IPC: 0.3049 (Simulation time: 05 hr 29 min 04 sec)
Heartbeat CPU 0 instructions: 1070000165 cycles: 3490802381 heartbeat IPC: 0.6965 cumulative IPC: 0.3065 (Simulation time: 05 hr 30 min 26 sec)
Heartbeat CPU 0 instructions: 1080000166 cycles: 3505463158 heartbeat IPC: 0.6821 cumulative IPC: 0.3081 (Simulation time: 05 hr 31 min 50 sec)
Heartbeat CPU 0 instructions: 1090000166 cycles: 3519970127 heartbeat IPC: 0.6893 cumulative IPC: 0.3097 (Simulation time: 05 hr 33 min 07 sec)
[ERROR_CYCLE] Error added at CPU cycle 3526620075, interval 5, pending count: 1
[DRAM_CYCLE_ERROR] Cycle-based error applied! address=0x4871b4a58 additional_latency=2459910500 cycles
Heartbeat CPU 0 instructions: 1100000166 cycles: 3544005386 heartbeat IPC: 0.4161 cumulative IPC: 0.3104 (Simulation time: 05 hr 35 min 22 sec)
Heartbeat CPU 0 instructions: 1110000166 cycles: 3558572019 heartbeat IPC: 0.6865 cumulative IPC: 0.3119 (Simulation time: 05 hr 36 min 56 sec)
Heartbeat CPU 0 instructions: 1120000168 cycles: 3572901392 heartbeat IPC: 0.6979 cumulative IPC: 0.3135 (Simulation time: 05 hr 38 min 12 sec)
Heartbeat CPU 0 instructions: 1130000172 cycles: 3587505573 heartbeat IPC: 0.6847 cumulative IPC: 0.315 (Simulation time: 05 hr 39 min 30 sec)
Heartbeat CPU 0 instructions: 1140000176 cycles: 3601833276 heartbeat IPC: 0.6979 cumulative IPC: 0.3165 (Simulation time: 05 hr 40 min 52 sec)
Heartbeat CPU 0 instructions: 1150000177 cycles: 3616135266 heartbeat IPC: 0.6992 cumulative IPC: 0.318 (Simulation time: 05 hr 42 min 16 sec)
Heartbeat CPU 0 instructions: 1160000181 cycles: 3630498638 heartbeat IPC: 0.6962 cumulative IPC: 0.3195 (Simulation time: 05 hr 43 min 53 sec)
Heartbeat CPU 0 instructions: 1170000181 cycles: 3645000432 heartbeat IPC: 0.6896 cumulative IPC: 0.321 (Simulation time: 05 hr 45 min 39 sec)
Heartbeat CPU 0 instructions: 1180000184 cycles: 3659333186 heartbeat IPC: 0.6977 cumulative IPC: 0.3225 (Simulation time: 05 hr 47 min 24 sec)
Heartbeat CPU 0 instructions: 1190000185 cycles: 3673958856 heartbeat IPC: 0.6837 cumulative IPC: 0.3239 (Simulation time: 05 hr 49 min 12 sec)
Heartbeat CPU 0 instructions: 1200000186 cycles: 3688427476 heartbeat IPC: 0.6912 cumulative IPC: 0.3253 (Simulation time: 05 hr 50 min 58 sec)
Heartbeat CPU 0 instructions: 1210000189 cycles: 3702829450 heartbeat IPC: 0.6943 cumulative IPC: 0.3268 (Simulation time: 05 hr 52 min 33 sec)
Heartbeat CPU 0 instructions: 1220000191 cycles: 3717272803 heartbeat IPC: 0.6924 cumulative IPC: 0.3282 (Simulation time: 05 hr 54 min 19 sec)
Heartbeat CPU 0 instructions: 1230000191 cycles: 3731723373 heartbeat IPC: 0.692 cumulative IPC: 0.3296 (Simulation time: 05 hr 56 min 02 sec)
Heartbeat CPU 0 instructions: 1240000192 cycles: 3746105241 heartbeat IPC: 0.6953 cumulative IPC: 0.331 (Simulation time: 05 hr 57 min 42 sec)
Heartbeat CPU 0 instructions: 1250000193 cycles: 3760572702 heartbeat IPC: 0.6912 cumulative IPC: 0.3324 (Simulation time: 05 hr 59 min 28 sec)
Heartbeat CPU 0 instructions: 1260000195 cycles: 3774988214 heartbeat IPC: 0.6937 cumulative IPC: 0.3338 (Simulation time: 06 hr 01 min 03 sec)
Heartbeat CPU 0 instructions: 1270000195 cycles: 3789333396 heartbeat IPC: 0.6971 cumulative IPC: 0.3352 (Simulation time: 06 hr 02 min 40 sec)
Heartbeat CPU 0 instructions: 1280000195 cycles: 3803812240 heartbeat IPC: 0.6907 cumulative IPC: 0.3365 (Simulation time: 06 hr 04 min 05 sec)
Heartbeat CPU 0 instructions: 1290000195 cycles: 3818419134 heartbeat IPC: 0.6846 cumulative IPC: 0.3378 (Simulation time: 06 hr 05 min 36 sec)
Heartbeat CPU 0 instructions: 1300000195 cycles: 3832761844 heartbeat IPC: 0.6972 cumulative IPC: 0.3392 (Simulation time: 06 hr 06 min 53 sec)
Heartbeat CPU 0 instructions: 1310000199 cycles: 3847021940 heartbeat IPC: 0.7013 cumulative IPC: 0.3405 (Simulation time: 06 hr 08 min 14 sec)
Heartbeat CPU 0 instructions: 1320000200 cycles: 3861576286 heartbeat IPC: 0.6871 cumulative IPC: 0.3418 (Simulation time: 06 hr 09 min 37 sec)
Heartbeat CPU 0 instructions: 1330000200 cycles: 3875931691 heartbeat IPC: 0.6966 cumulative IPC: 0.3431 (Simulation time: 06 hr 10 min 52 sec)
Heartbeat CPU 0 instructions: 1340000202 cycles: 3890331718 heartbeat IPC: 0.6944 cumulative IPC: 0.3444 (Simulation time: 06 hr 12 min 04 sec)
Heartbeat CPU 0 instructions: 1350000205 cycles: 3904856991 heartbeat IPC: 0.6885 cumulative IPC: 0.3457 (Simulation time: 06 hr 13 min 24 sec)
Heartbeat CPU 0 instructions: 1360000205 cycles: 3919068619 heartbeat IPC: 0.7036 cumulative IPC: 0.347 (Simulation time: 06 hr 15 min 05 sec)
Heartbeat CPU 0 instructions: 1370000207 cycles: 3933559252 heartbeat IPC: 0.6901 cumulative IPC: 0.3483 (Simulation time: 06 hr 16 min 51 sec)
Heartbeat CPU 0 instructions: 1380000207 cycles: 3948062157 heartbeat IPC: 0.6895 cumulative IPC: 0.3495 (Simulation time: 06 hr 18 min 37 sec)
Heartbeat CPU 0 instructions: 1390000207 cycles: 3962579517 heartbeat IPC: 0.6888 cumulative IPC: 0.3508 (Simulation time: 06 hr 20 min 24 sec)
Heartbeat CPU 0 instructions: 1400000207 cycles: 3976967891 heartbeat IPC: 0.695 cumulative IPC: 0.352 (Simulation time: 06 hr 21 min 45 sec)
Heartbeat CPU 0 instructions: 1410000207 cycles: 3991479305 heartbeat IPC: 0.6891 cumulative IPC: 0.3533 (Simulation time: 06 hr 23 min 22 sec)
Heartbeat CPU 0 instructions: 1420000207 cycles: 4006113565 heartbeat IPC: 0.6833 cumulative IPC: 0.3545 (Simulation time: 06 hr 25 min 09 sec)
Heartbeat CPU 0 instructions: 1430000211 cycles: 4020653723 heartbeat IPC: 0.6878 cumulative IPC: 0.3557 (Simulation time: 06 hr 26 min 56 sec)
Heartbeat CPU 0 instructions: 1440000213 cycles: 4035309824 heartbeat IPC: 0.6823 cumulative IPC: 0.3568 (Simulation time: 06 hr 28 min 43 sec)
Heartbeat CPU 0 instructions: 1450000215 cycles: 4049465011 heartbeat IPC: 0.7065 cumulative IPC: 0.3581 (Simulation time: 06 hr 30 min 12 sec)
Heartbeat CPU 0 instructions: 1460000218 cycles: 4063958872 heartbeat IPC: 0.6899 cumulative IPC: 0.3593 (Simulation time: 06 hr 31 min 45 sec)
Heartbeat CPU 0 instructions: 1470000218 cycles: 4078317413 heartbeat IPC: 0.6964 cumulative IPC: 0.3604 (Simulation time: 06 hr 33 min 21 sec)
Heartbeat CPU 0 instructions: 1480000218 cycles: 4092755225 heartbeat IPC: 0.6926 cumulative IPC: 0.3616 (Simulation time: 06 hr 34 min 45 sec)
Heartbeat CPU 0 instructions: 1490000222 cycles: 4107149878 heartbeat IPC: 0.6947 cumulative IPC: 0.3628 (Simulation time: 06 hr 36 min 20 sec)
Heartbeat CPU 0 instructions: 1500000226 cycles: 4121627118 heartbeat IPC: 0.6907 cumulative IPC: 0.3639 (Simulation time: 06 hr 38 min 06 sec)
Heartbeat CPU 0 instructions: 1510000228 cycles: 4136115547 heartbeat IPC: 0.6902 cumulative IPC: 0.3651 (Simulation time: 06 hr 39 min 46 sec)
Heartbeat CPU 0 instructions: 1520000228 cycles: 4150586944 heartbeat IPC: 0.691 cumulative IPC: 0.3662 (Simulation time: 06 hr 41 min 32 sec)
Heartbeat CPU 0 instructions: 1530000229 cycles: 4165197759 heartbeat IPC: 0.6844 cumulative IPC: 0.3673 (Simulation time: 06 hr 43 min 19 sec)
Heartbeat CPU 0 instructions: 1540000230 cycles: 4179758740 heartbeat IPC: 0.6868 cumulative IPC: 0.3684 (Simulation time: 06 hr 45 min 05 sec)
Heartbeat CPU 0 instructions: 1550000233 cycles: 4194552306 heartbeat IPC: 0.676 cumulative IPC: 0.3695 (Simulation time: 06 hr 46 min 54 sec)
Heartbeat CPU 0 instructions: 1560000236 cycles: 4209184506 heartbeat IPC: 0.6834 cumulative IPC: 0.3706 (Simulation time: 06 hr 48 min 41 sec)
Heartbeat CPU 0 instructions: 1570000239 cycles: 4223866345 heartbeat IPC: 0.6811 cumulative IPC: 0.3717 (Simulation time: 06 hr 50 min 30 sec)
[ERROR_CYCLE] Error added at CPU cycle 4231944091, interval 6, pending count: 1
[DRAM_CYCLE_ERROR] Cycle-based error applied! address=0x61cc67b28 additional_latency=2459910500 cycles
Heartbeat CPU 0 instructions: 1580000242 cycles: 4248538864 heartbeat IPC: 0.4053 cumulative IPC: 0.3719 (Simulation time: 06 hr 53 min 09 sec)
Heartbeat CPU 0 instructions: 1590000245 cycles: 4263338012 heartbeat IPC: 0.6757 cumulative IPC: 0.3729 (Simulation time: 06 hr 54 min 56 sec)
Heartbeat CPU 0 instructions: 1600000249 cycles: 4278007110 heartbeat IPC: 0.6817 cumulative IPC: 0.374 (Simulation time: 06 hr 56 min 38 sec)
Heartbeat CPU 0 instructions: 1610000250 cycles: 4292666707 heartbeat IPC: 0.6821 cumulative IPC: 0.3751 (Simulation time: 06 hr 58 min 22 sec)
Heartbeat CPU 0 instructions: 1620000253 cycles: 4307330731 heartbeat IPC: 0.6819 cumulative IPC: 0.3761 (Simulation time: 07 hr 00 min 06 sec)
Heartbeat CPU 0 instructions: 1630000253 cycles: 4322097385 heartbeat IPC: 0.6772 cumulative IPC: 0.3771 (Simulation time: 07 hr 01 min 49 sec)
Heartbeat CPU 0 instructions: 1640000255 cycles: 4336710423 heartbeat IPC: 0.6843 cumulative IPC: 0.3782 (Simulation time: 07 hr 03 min 36 sec)
Heartbeat CPU 0 instructions: 1650000258 cycles: 4351351322 heartbeat IPC: 0.683 cumulative IPC: 0.3792 (Simulation time: 07 hr 05 min 24 sec)
Heartbeat CPU 0 instructions: 1660000261 cycles: 4366075619 heartbeat IPC: 0.6791 cumulative IPC: 0.3802 (Simulation time: 07 hr 07 min 11 sec)
Heartbeat CPU 0 instructions: 1670000263 cycles: 4380762083 heartbeat IPC: 0.6809 cumulative IPC: 0.3812 (Simulation time: 07 hr 08 min 59 sec)
Heartbeat CPU 0 instructions: 1680000266 cycles: 4395594167 heartbeat IPC: 0.6742 cumulative IPC: 0.3822 (Simulation time: 07 hr 10 min 48 sec)
Heartbeat CPU 0 instructions: 1690000270 cycles: 4410322884 heartbeat IPC: 0.6789 cumulative IPC: 0.3832 (Simulation time: 07 hr 12 min 26 sec)
Heartbeat CPU 0 instructions: 1700000271 cycles: 4425049686 heartbeat IPC: 0.679 cumulative IPC: 0.3842 (Simulation time: 07 hr 13 min 49 sec)
Heartbeat CPU 0 instructions: 1710000271 cycles: 4439694922 heartbeat IPC: 0.6828 cumulative IPC: 0.3852 (Simulation time: 07 hr 15 min 13 sec)
Heartbeat CPU 0 instructions: 1720000274 cycles: 4454479697 heartbeat IPC: 0.6764 cumulative IPC: 0.3861 (Simulation time: 07 hr 16 min 43 sec)
Heartbeat CPU 0 instructions: 1730000275 cycles: 4469398538 heartbeat IPC: 0.6703 cumulative IPC: 0.3871 (Simulation time: 07 hr 18 min 14 sec)
Heartbeat CPU 0 instructions: 1740000278 cycles: 4483931709 heartbeat IPC: 0.6881 cumulative IPC: 0.3881 (Simulation time: 07 hr 19 min 39 sec)
Heartbeat CPU 0 instructions: 1750000280 cycles: 4498540112 heartbeat IPC: 0.6845 cumulative IPC: 0.389 (Simulation time: 07 hr 21 min 17 sec)
Heartbeat CPU 0 instructions: 1760000284 cycles: 4513406403 heartbeat IPC: 0.6727 cumulative IPC: 0.3899 (Simulation time: 07 hr 22 min 46 sec)
Heartbeat CPU 0 instructions: 1770000287 cycles: 4528269180 heartbeat IPC: 0.6728 cumulative IPC: 0.3909 (Simulation time: 07 hr 24 min 16 sec)
Heartbeat CPU 0 instructions: 1780000287 cycles: 4542934664 heartbeat IPC: 0.6819 cumulative IPC: 0.3918 (Simulation time: 07 hr 25 min 56 sec)
Heartbeat CPU 0 instructions: 1790000288 cycles: 4557571054 heartbeat IPC: 0.6832 cumulative IPC: 0.3928 (Simulation time: 07 hr 27 min 44 sec)
Heartbeat CPU 0 instructions: 1800000289 cycles: 4572266145 heartbeat IPC: 0.6805 cumulative IPC: 0.3937 (Simulation time: 07 hr 29 min 32 sec)
Heartbeat CPU 0 instructions: 1810000291 cycles: 4586845701 heartbeat IPC: 0.6859 cumulative IPC: 0.3946 (Simulation time: 07 hr 30 min 49 sec)
Heartbeat CPU 0 instructions: 1820000291 cycles: 4601701857 heartbeat IPC: 0.6731 cumulative IPC: 0.3955 (Simulation time: 07 hr 32 min 21 sec)
Heartbeat CPU 0 instructions: 1830000294 cycles: 4616272884 heartbeat IPC: 0.6863 cumulative IPC: 0.3964 (Simulation time: 07 hr 33 min 46 sec)
Heartbeat CPU 0 instructions: 1840000297 cycles: 4630904036 heartbeat IPC: 0.6835 cumulative IPC: 0.3973 (Simulation time: 07 hr 35 min 08 sec)
Heartbeat CPU 0 instructions: 1850000297 cycles: 4645617185 heartbeat IPC: 0.6797 cumulative IPC: 0.3982 (Simulation time: 07 hr 36 min 26 sec)
Heartbeat CPU 0 instructions: 1860000301 cycles: 4660344992 heartbeat IPC: 0.679 cumulative IPC: 0.3991 (Simulation time: 07 hr 37 min 54 sec)
Heartbeat CPU 0 instructions: 1870000301 cycles: 4675114072 heartbeat IPC: 0.6771 cumulative IPC: 0.4 (Simulation time: 07 hr 39 min 22 sec)
Heartbeat CPU 0 instructions: 1880000303 cycles: 4689761300 heartbeat IPC: 0.6827 cumulative IPC: 0.4009 (Simulation time: 07 hr 41 min 08 sec)
Heartbeat CPU 0 instructions: 1890000306 cycles: 4704313635 heartbeat IPC: 0.6872 cumulative IPC: 0.4018 (Simulation time: 07 hr 42 min 53 sec)
Heartbeat CPU 0 instructions: 1900000308 cycles: 4718916704 heartbeat IPC: 0.6848 cumulative IPC: 0.4026 (Simulation time: 07 hr 44 min 15 sec)
Heartbeat CPU 0 instructions: 1910000309 cycles: 4733423692 heartbeat IPC: 0.6893 cumulative IPC: 0.4035 (Simulation time: 07 hr 45 min 24 sec)
Heartbeat CPU 0 instructions: 1920000312 cycles: 4748262512 heartbeat IPC: 0.6739 cumulative IPC: 0.4044 (Simulation time: 07 hr 46 min 41 sec)
Heartbeat CPU 0 instructions: 1930000314 cycles: 4763067937 heartbeat IPC: 0.6754 cumulative IPC: 0.4052 (Simulation time: 07 hr 48 min 30 sec)
Heartbeat CPU 0 instructions: 1940000318 cycles: 4777700016 heartbeat IPC: 0.6834 cumulative IPC: 0.4061 (Simulation time: 07 hr 50 min 16 sec)
Heartbeat CPU 0 instructions: 1950000321 cycles: 4792362222 heartbeat IPC: 0.682 cumulative IPC: 0.4069 (Simulation time: 07 hr 52 min 04 sec)
Heartbeat CPU 0 instructions: 1960000321 cycles: 4806864105 heartbeat IPC: 0.6896 cumulative IPC: 0.4078 (Simulation time: 07 hr 53 min 37 sec)
Heartbeat CPU 0 instructions: 1970000322 cycles: 4821402271 heartbeat IPC: 0.6878 cumulative IPC: 0.4086 (Simulation time: 07 hr 55 min 11 sec)
Heartbeat CPU 0 instructions: 1980000324 cycles: 4835951953 heartbeat IPC: 0.6873 cumulative IPC: 0.4094 (Simulation time: 07 hr 56 min 29 sec)
Heartbeat CPU 0 instructions: 1990000324 cycles: 4850409156 heartbeat IPC: 0.6917 cumulative IPC: 0.4103 (Simulation time: 07 hr 57 min 56 sec)

=== ERROR PAGE STATISTICS ===
Mode: CYCLE
Error Cycle Interval: 705324015 CPU cycles
Total Error Accesses: 6
==============================
Simulation finished CPU 0 instructions: 1999999986 cycles: 4864851277 cumulative IPC: 0.4111 (Simulation time: 07 hr 59 min 20 sec)
Simulation complete CPU 0 instructions: 1999999986 cycles: 4864851277 cumulative IPC: 0.4111 (Simulation time: 07 hr 59 min 20 sec)

ChampSim completed all CPUs

=== Simulation ===
CPU 0 runs test_traces/620.omnetpp_s-141B.champsimtrace.xz

Region of Interest Statistics

CPU 0 cumulative IPC: 0.4111 instructions: 1999999986 cycles: 4864851277
CPU 0 Branch Prediction Accuracy: 92.96% MPKI: 14.8 Average ROB Occupancy at Mispredict: 42.45
Branch type MPKI
BRANCH_DIRECT_JUMP: 0.8484
BRANCH_INDIRECT: 0.3555
BRANCH_CONDITIONAL: 12.32
BRANCH_DIRECT_CALL: 0.0001295
BRANCH_INDIRECT_CALL: 0.8457
BRANCH_RETURN: 0.4309

cpu0->cpu0_STLB TOTAL        ACCESS:    7943725 HIT:    7943498 MISS:        227 MSHR_MERGE:          0
cpu0->cpu0_STLB LOAD         ACCESS:    7943725 HIT:    7943498 MISS:        227 MSHR_MERGE:          0
cpu0->cpu0_STLB RFO          ACCESS:          0 HIT:          0 MISS:          0 MSHR_MERGE:          0
cpu0->cpu0_STLB PREFETCH     ACCESS:          0 HIT:          0 MISS:          0 MSHR_MERGE:          0
cpu0->cpu0_STLB WRITE        ACCESS:          0 HIT:          0 MISS:          0 MSHR_MERGE:          0
cpu0->cpu0_STLB TRANSLATION  ACCESS:          0 HIT:          0 MISS:          0 MSHR_MERGE:          0
cpu0->cpu0_STLB PREFETCH REQUESTED:          0 ISSUED:          0 USEFUL:          0 USELESS:          0
cpu0->cpu0_STLB AVERAGE MISS LATENCY: 9.364e+06 cycles
cpu0->cpu0_L2C TOTAL        ACCESS:   56648406 HIT:   29476169 MISS:   27172237 MSHR_MERGE:          0
cpu0->cpu0_L2C LOAD         ACCESS:   33707155 HIT:   10164094 MISS:   23543061 MSHR_MERGE:          0
cpu0->cpu0_L2C RFO          ACCESS:    4839158 HIT:    1233026 MISS:    3606132 MSHR_MERGE:          0
cpu0->cpu0_L2C PREFETCH     ACCESS:          0 HIT:          0 MISS:          0 MSHR_MERGE:          0
cpu0->cpu0_L2C WRITE        ACCESS:   18102093 HIT:   18079049 MISS:      23044 MSHR_MERGE:          0
cpu0->cpu0_L2C TRANSLATION  ACCESS:          0 HIT:          0 MISS:          0 MSHR_MERGE:          0
cpu0->cpu0_L2C PREFETCH REQUESTED:          0 ISSUED:          0 USEFUL:          0 USELESS:          0
cpu0->cpu0_L2C AVERAGE MISS LATENCY: 88.87 cycles
cpu0->cpu0_L1I TOTAL        ACCESS:  267256143 HIT:  265533331 MISS:    1722812 MSHR_MERGE:     435725
cpu0->cpu0_L1I LOAD         ACCESS:  267256143 HIT:  265533331 MISS:    1722812 MSHR_MERGE:     435725
cpu0->cpu0_L1I RFO          ACCESS:          0 HIT:          0 MISS:          0 MSHR_MERGE:          0
cpu0->cpu0_L1I PREFETCH     ACCESS:          0 HIT:          0 MISS:          0 MSHR_MERGE:          0
cpu0->cpu0_L1I WRITE        ACCESS:          0 HIT:          0 MISS:          0 MSHR_MERGE:          0
cpu0->cpu0_L1I TRANSLATION  ACCESS:          0 HIT:          0 MISS:          0 MSHR_MERGE:          0
cpu0->cpu0_L1I PREFETCH REQUESTED:          0 ISSUED:          0 USEFUL:          0 USELESS:          0
cpu0->cpu0_L1I AVERAGE MISS LATENCY: 11.85 cycles
cpu0->cpu0_L1D TOTAL        ACCESS:  808786432 HIT:  751462777 MISS:   57323655 MSHR_MERGE:   20064290
cpu0->cpu0_L1D LOAD         ACCESS:  441103232 HIT:  397763360 MISS:   43339872 MSHR_MERGE:   10919714
cpu0->cpu0_L1D RFO          ACCESS:          0 HIT:          0 MISS:          0 MSHR_MERGE:          0
cpu0->cpu0_L1D PREFETCH     ACCESS:          0 HIT:          0 MISS:          0 MSHR_MERGE:          0
cpu0->cpu0_L1D WRITE        ACCESS:  367683200 HIT:  353699417 MISS:   13983783 MSHR_MERGE:    9144576
cpu0->cpu0_L1D TRANSLATION  ACCESS:          0 HIT:          0 MISS:          0 MSHR_MERGE:          0
cpu0->cpu0_L1D PREFETCH REQUESTED:          0 ISSUED:          0 USEFUL:          0 USELESS:          0
cpu0->cpu0_L1D AVERAGE MISS LATENCY: 73.46 cycles
cpu0->cpu0_ITLB TOTAL        ACCESS:  234322812 HIT:  234322808 MISS:          4 MSHR_MERGE:          1
cpu0->cpu0_ITLB LOAD         ACCESS:  234322812 HIT:  234322808 MISS:          4 MSHR_MERGE:          1
cpu0->cpu0_ITLB RFO          ACCESS:          0 HIT:          0 MISS:          0 MSHR_MERGE:          0
cpu0->cpu0_ITLB PREFETCH     ACCESS:          0 HIT:          0 MISS:          0 MSHR_MERGE:          0
cpu0->cpu0_ITLB WRITE        ACCESS:          0 HIT:          0 MISS:          0 MSHR_MERGE:          0
cpu0->cpu0_ITLB TRANSLATION  ACCESS:          0 HIT:          0 MISS:          0 MSHR_MERGE:          0
cpu0->cpu0_ITLB PREFETCH REQUESTED:          0 ISSUED:          0 USEFUL:          0 USELESS:          0
cpu0->cpu0_ITLB AVERAGE MISS LATENCY: 1.232e+07 cycles
cpu0->cpu0_DTLB TOTAL        ACCESS:  689735663 HIT:  680452799 MISS:    9282864 MSHR_MERGE:    1339142
cpu0->cpu0_DTLB LOAD         ACCESS:  689735663 HIT:  680452799 MISS:    9282864 MSHR_MERGE:    1339142
cpu0->cpu0_DTLB RFO          ACCESS:          0 HIT:          0 MISS:          0 MSHR_MERGE:          0
cpu0->cpu0_DTLB PREFETCH     ACCESS:          0 HIT:          0 MISS:          0 MSHR_MERGE:          0
cpu0->cpu0_DTLB WRITE        ACCESS:          0 HIT:          0 MISS:          0 MSHR_MERGE:          0
cpu0->cpu0_DTLB TRANSLATION  ACCESS:          0 HIT:          0 MISS:          0 MSHR_MERGE:          0
cpu0->cpu0_DTLB PREFETCH REQUESTED:          0 ISSUED:          0 USEFUL:          0 USELESS:          0
cpu0->cpu0_DTLB AVERAGE MISS LATENCY: 267.9 cycles
cpu0->LLC TOTAL        ACCESS:   40303094 HIT:   19732405 MISS:   20570689 MSHR_MERGE:          0
cpu0->LLC LOAD         ACCESS:   23543059 HIT:    5179973 MISS:   18363086 MSHR_MERGE:          0
cpu0->LLC RFO          ACCESS:    3606132 HIT:    1446346 MISS:    2159786 MSHR_MERGE:          0
cpu0->LLC PREFETCH     ACCESS:          0 HIT:          0 MISS:          0 MSHR_MERGE:          0
cpu0->LLC WRITE        ACCESS:   13153903 HIT:   13106086 MISS:      47817 MSHR_MERGE:          0
cpu0->LLC TRANSLATION  ACCESS:          0 HIT:          0 MISS:          0 MSHR_MERGE:          0
cpu0->LLC PREFETCH REQUESTED:          0 ISSUED:          0 USEFUL:          0 USELESS:          0
cpu0->LLC AVERAGE MISS LATENCY: 96.61 cycles

DRAM Statistics

Channel 0 RQ ROW_BUFFER_HIT:     357445
  ROW_BUFFER_MISS:    9895422
  AVG DBUS CONGESTED CYCLE: 13.54
Channel 0 WQ ROW_BUFFER_HIT:     752533
  ROW_BUFFER_MISS:    3990299
  FULL:          0
Channel 0 REFRESHES ISSUED:     405378

Channel 1 RQ ROW_BUFFER_HIT:     366025
  ROW_BUFFER_MISS:    9904409
  AVG DBUS CONGESTED CYCLE: 13.58
Channel 1 WQ ROW_BUFFER_HIT:     756109
  ROW_BUFFER_MISS:    4002906
  FULL:          0
Channel 1 REFRESHES ISSUED:     405378
