
*** ChampSim Multicore Out-of-Order Simulator ***
Warmup Instructions: 0
Simulation Instructions: 9223372036854775807
Number of CPUs: 1
Page size: 1048576

Off-chip DRAM Size: 64 GiB Channels: 2 Width: 32-bit Data Rate: 4807 MT/s
[ERROR_PAGE_MANAGER] Error latency: 2459910500 
[ERROR_PAGE_MANAGER] Random seed: 54321 (fixed for preload reproducibility)
[ERROR_PAGE_MANAGER] Cycle-based error modeling enabled
[ERROR_PAGE_MANAGER] Errors per interval: 1
[ERROR_PAGE_MANAGER] Error cycle interval: 4648416149 cycles

=== ERROR PAGE STATISTICS ===
Mode: CYCLE
Error Cycle Interval: 4648416149 CPU cycles
Total Error Accesses: 0
==============================
Warmup finished CPU 0 instructions: 0 cycles: 1 cumulative IPC: 0 (Simulation time: 00 hr 00 min 00 sec)
Warmup complete CPU 0 instructions: 0 cycles: 1 cumulative IPC: 0 (Simulation time: 00 hr 00 min 00 sec)
Simulation CPU 0 panic: IPC 0 < 0.01
Simulation CPU 0 panic: IPC 0 < 0.01
Simulation CPU 0 panic: IPC 0.0002609 < 0.01
Simulation CPU 0 panic: IPC 1.8e-06 < 0.01
Simulation CPU 0 panic: IPC 9e-07 < 0.01
Simulation CPU 0 panic: IPC 1e-07 < 0.01
Simulation CPU 0 panic: IPC 3.7e-06 < 0.01
Simulation CPU 0 panic: IPC 1e-07 < 0.01
Simulation CPU 0 panic: IPC 1.1e-06 < 0.01
Simulation CPU 0 panic: IPC 2.8e-06 < 0.01
Simulation CPU 0 panic: IPC 2.9e-06 < 0.01
Simulation CPU 0 panic: IPC 1.5e-06 < 0.01
Simulation CPU 0 panic: IPC 1.3e-06 < 0.01
Simulation CPU 0 panic: IPC 3.5e-06 < 0.01
Simulation CPU 0 panic: IPC 1.2e-06 < 0.01
Simulation CPU 0 panic: IPC 1e-07 < 0.01
Simulation CPU 0 panic: IPC 2.7e-06 < 0.01
Simulation CPU 0 panic: IPC 2.9e-06 < 0.01
Simulation CPU 0 panic: IPC 2.8e-06 < 0.01
Simulation CPU 0 panic: IPC 3.9e-06 < 0.01
Simulation CPU 0 panic: IPC 1.3e-06 < 0.01
Simulation CPU 0 panic: IPC 4.3e-06 < 0.01
Simulation CPU 0 panic: IPC 1e-07 < 0.01
Simulation CPU 0 panic: IPC 1.1e-06 < 0.01
Simulation CPU 0 panic: IPC 2.44e-05 < 0.01
Simulation CPU 0 panic: IPC 1e-07 < 0.01
Simulation CPU 0 panic: IPC 2.3e-06 < 0.01
Simulation CPU 0 panic: IPC 4e-06 < 0.01
Simulation CPU 0 panic: IPC 6e-06 < 0.01
Simulation CPU 0 panic: IPC 1e-07 < 0.01
Simulation CPU 0 panic: IPC 5e-07 < 0.01
Simulation CPU 0 panic: IPC 0 < 0.01
Simulation CPU 0 panic: IPC 5.9e-06 < 0.01
Simulation CPU 0 panic: IPC 1.48e-05 < 0.01
Simulation CPU 0 panic: IPC 7.6e-06 < 0.01
Simulation CPU 0 panic: IPC 0 < 0.01
Simulation CPU 0 panic: IPC 0.0024636 < 0.01
Simulation CPU 0 panic: IPC 0.0001267 < 0.01
Simulation CPU 0 panic: IPC 0.0001632 < 0.01
Simulation CPU 0 panic: IPC 0.000147 < 0.01
Simulation CPU 0 panic: IPC 0.0001535 < 0.01
Simulation CPU 0 panic: IPC 0.0001866 < 0.01
Simulation CPU 0 panic: IPC 1.93e-05 < 0.01
Simulation CPU 0 panic: IPC 0.0001391 < 0.01
Simulation CPU 0 critical: IPC 0.015869 < 0.02
Simulation CPU 0 warning: IPC 0.049357 < 0.05
Simulation CPU 0 warning: IPC 0.032397 < 0.05
Simulation CPU 0 warning: IPC 0.043719 < 0.05
Simulation CPU 0 warning: IPC 0.0219 < 0.05
Heartbeat CPU 0 instructions: 10000003 cycles: 551772000 heartbeat IPC: 0.01812 cumulative IPC: 0.01812 (Simulation time: 00 hr 50 min 35 sec)
Heartbeat CPU 0 instructions: 20000005 cycles: 568781422 heartbeat IPC: 0.5879 cumulative IPC: 0.03516 (Simulation time: 00 hr 52 min 04 sec)
Simulation CPU 0 panic: IPC 0.004601 < 0.01
Simulation CPU 0 panic: IPC 9.1e-06 < 0.01
Simulation CPU 0 panic: IPC 0.008418 < 0.01
Simulation CPU 0 panic: IPC 2.36e-05 < 0.01
Heartbeat CPU 0 instructions: 30000009 cycles: 633452889 heartbeat IPC: 0.1546 cumulative IPC: 0.04736 (Simulation time: 00 hr 57 min 08 sec)
Heartbeat CPU 0 instructions: 40000010 cycles: 642020991 heartbeat IPC: 1.167 cumulative IPC: 0.0623 (Simulation time: 00 hr 58 min 08 sec)
Heartbeat CPU 0 instructions: 50000010 cycles: 649986257 heartbeat IPC: 1.255 cumulative IPC: 0.07692 (Simulation time: 00 hr 58 min 56 sec)
Heartbeat CPU 0 instructions: 60000013 cycles: 657573237 heartbeat IPC: 1.318 cumulative IPC: 0.09124 (Simulation time: 00 hr 59 min 47 sec)
Heartbeat CPU 0 instructions: 70000014 cycles: 664969693 heartbeat IPC: 1.352 cumulative IPC: 0.1053 (Simulation time: 01 hr 00 min 53 sec)
Heartbeat CPU 0 instructions: 80000014 cycles: 670973806 heartbeat IPC: 1.666 cumulative IPC: 0.1192 (Simulation time: 01 hr 01 min 44 sec)
Heartbeat CPU 0 instructions: 90000015 cycles: 676751304 heartbeat IPC: 1.731 cumulative IPC: 0.133 (Simulation time: 01 hr 02 min 28 sec)
Heartbeat CPU 0 instructions: 100000015 cycles: 683437093 heartbeat IPC: 1.496 cumulative IPC: 0.1463 (Simulation time: 01 hr 03 min 11 sec)
Heartbeat CPU 0 instructions: 110000018 cycles: 701426476 heartbeat IPC: 0.5559 cumulative IPC: 0.1568 (Simulation time: 01 hr 04 min 53 sec)
Heartbeat CPU 0 instructions: 120000020 cycles: 709907706 heartbeat IPC: 1.179 cumulative IPC: 0.169 (Simulation time: 01 hr 05 min 43 sec)
Heartbeat CPU 0 instructions: 130000020 cycles: 717814806 heartbeat IPC: 1.265 cumulative IPC: 0.1811 (Simulation time: 01 hr 06 min 41 sec)
Heartbeat CPU 0 instructions: 140000021 cycles: 725403585 heartbeat IPC: 1.318 cumulative IPC: 0.193 (Simulation time: 01 hr 07 min 48 sec)
Heartbeat CPU 0 instructions: 150000022 cycles: 732108816 heartbeat IPC: 1.491 cumulative IPC: 0.2049 (Simulation time: 01 hr 08 min 50 sec)
Heartbeat CPU 0 instructions: 160000024 cycles: 737927646 heartbeat IPC: 1.719 cumulative IPC: 0.2168 (Simulation time: 01 hr 09 min 47 sec)
Heartbeat CPU 0 instructions: 170000027 cycles: 744919827 heartbeat IPC: 1.43 cumulative IPC: 0.2282 (Simulation time: 01 hr 10 min 51 sec)
Heartbeat CPU 0 instructions: 180000031 cycles: 753879396 heartbeat IPC: 1.116 cumulative IPC: 0.2388 (Simulation time: 01 hr 12 min 08 sec)
Heartbeat CPU 0 instructions: 190000035 cycles: 762098048 heartbeat IPC: 1.217 cumulative IPC: 0.2493 (Simulation time: 01 hr 13 min 20 sec)
Heartbeat CPU 0 instructions: 200000037 cycles: 769145311 heartbeat IPC: 1.419 cumulative IPC: 0.26 (Simulation time: 01 hr 14 min 25 sec)
Heartbeat CPU 0 instructions: 210000041 cycles: 777913414 heartbeat IPC: 1.14 cumulative IPC: 0.27 (Simulation time: 01 hr 15 min 37 sec)
Heartbeat CPU 0 instructions: 220000041 cycles: 786357916 heartbeat IPC: 1.184 cumulative IPC: 0.2798 (Simulation time: 01 hr 16 min 40 sec)
Heartbeat CPU 0 instructions: 230000042 cycles: 794287179 heartbeat IPC: 1.261 cumulative IPC: 0.2896 (Simulation time: 01 hr 17 min 51 sec)
Heartbeat CPU 0 instructions: 240000046 cycles: 801872066 heartbeat IPC: 1.318 cumulative IPC: 0.2993 (Simulation time: 01 hr 18 min 59 sec)
Heartbeat CPU 0 instructions: 250000047 cycles: 809241046 heartbeat IPC: 1.357 cumulative IPC: 0.3089 (Simulation time: 01 hr 20 min 06 sec)
Heartbeat CPU 0 instructions: 260000047 cycles: 816427144 heartbeat IPC: 1.392 cumulative IPC: 0.3185 (Simulation time: 01 hr 21 min 05 sec)
Heartbeat CPU 0 instructions: 270000047 cycles: 832712438 heartbeat IPC: 0.6141 cumulative IPC: 0.3242 (Simulation time: 01 hr 22 min 57 sec)
Heartbeat CPU 0 instructions: 280000048 cycles: 839675301 heartbeat IPC: 1.436 cumulative IPC: 0.3335 (Simulation time: 01 hr 24 min 01 sec)
Heartbeat CPU 0 instructions: 290000050 cycles: 845359195 heartbeat IPC: 1.759 cumulative IPC: 0.343 (Simulation time: 01 hr 24 min 56 sec)
Heartbeat CPU 0 instructions: 300000051 cycles: 850555073 heartbeat IPC: 1.925 cumulative IPC: 0.3527 (Simulation time: 01 hr 25 min 36 sec)
Heartbeat CPU 0 instructions: 310000051 cycles: 855981138 heartbeat IPC: 1.843 cumulative IPC: 0.3622 (Simulation time: 01 hr 26 min 11 sec)
Heartbeat CPU 0 instructions: 320000051 cycles: 861648116 heartbeat IPC: 1.765 cumulative IPC: 0.3714 (Simulation time: 01 hr 26 min 58 sec)
Heartbeat CPU 0 instructions: 330000051 cycles: 867586962 heartbeat IPC: 1.684 cumulative IPC: 0.3804 (Simulation time: 01 hr 27 min 41 sec)
Heartbeat CPU 0 instructions: 340000051 cycles: 873986429 heartbeat IPC: 1.563 cumulative IPC: 0.389 (Simulation time: 01 hr 28 min 33 sec)
Heartbeat CPU 0 instructions: 350000053 cycles: 881168556 heartbeat IPC: 1.392 cumulative IPC: 0.3972 (Simulation time: 01 hr 29 min 20 sec)
Heartbeat CPU 0 instructions: 360000054 cycles: 890081122 heartbeat IPC: 1.122 cumulative IPC: 0.4045 (Simulation time: 01 hr 30 min 34 sec)
Heartbeat CPU 0 instructions: 370000054 cycles: 898210128 heartbeat IPC: 1.23 cumulative IPC: 0.4119 (Simulation time: 01 hr 31 min 38 sec)
Heartbeat CPU 0 instructions: 380000056 cycles: 906783437 heartbeat IPC: 1.166 cumulative IPC: 0.4191 (Simulation time: 01 hr 32 min 32 sec)
Heartbeat CPU 0 instructions: 390000059 cycles: 914945461 heartbeat IPC: 1.225 cumulative IPC: 0.4263 (Simulation time: 01 hr 33 min 31 sec)
Heartbeat CPU 0 instructions: 400000059 cycles: 922639153 heartbeat IPC: 1.3 cumulative IPC: 0.4335 (Simulation time: 01 hr 34 min 16 sec)
Heartbeat CPU 0 instructions: 410000063 cycles: 930091686 heartbeat IPC: 1.342 cumulative IPC: 0.4408 (Simulation time: 01 hr 35 min 00 sec)
Heartbeat CPU 0 instructions: 420000063 cycles: 937115820 heartbeat IPC: 1.424 cumulative IPC: 0.4482 (Simulation time: 01 hr 35 min 42 sec)
Heartbeat CPU 0 instructions: 430000064 cycles: 942565309 heartbeat IPC: 1.835 cumulative IPC: 0.4562 (Simulation time: 01 hr 36 min 16 sec)
Heartbeat CPU 0 instructions: 440000064 cycles: 948552225 heartbeat IPC: 1.67 cumulative IPC: 0.4639 (Simulation time: 01 hr 36 min 53 sec)
Heartbeat CPU 0 instructions: 450000064 cycles: 955566966 heartbeat IPC: 1.426 cumulative IPC: 0.4709 (Simulation time: 01 hr 37 min 42 sec)
Heartbeat CPU 0 instructions: 460000065 cycles: 964372939 heartbeat IPC: 1.136 cumulative IPC: 0.477 (Simulation time: 01 hr 38 min 39 sec)
Heartbeat CPU 0 instructions: 470000065 cycles: 973155744 heartbeat IPC: 1.139 cumulative IPC: 0.483 (Simulation time: 01 hr 39 min 30 sec)
Heartbeat CPU 0 instructions: 480000066 cycles: 981392571 heartbeat IPC: 1.214 cumulative IPC: 0.4891 (Simulation time: 01 hr 40 min 23 sec)
Heartbeat CPU 0 instructions: 490000067 cycles: 989144255 heartbeat IPC: 1.29 cumulative IPC: 0.4954 (Simulation time: 01 hr 41 min 10 sec)
Heartbeat CPU 0 instructions: 500000069 cycles: 996649717 heartbeat IPC: 1.332 cumulative IPC: 0.5017 (Simulation time: 01 hr 41 min 55 sec)
Heartbeat CPU 0 instructions: 510000070 cycles: 1003926390 heartbeat IPC: 1.374 cumulative IPC: 0.508 (Simulation time: 01 hr 42 min 42 sec)
Heartbeat CPU 0 instructions: 520000073 cycles: 1011035809 heartbeat IPC: 1.407 cumulative IPC: 0.5143 (Simulation time: 01 hr 43 min 28 sec)
Heartbeat CPU 0 instructions: 530000073 cycles: 1027258123 heartbeat IPC: 0.6164 cumulative IPC: 0.5159 (Simulation time: 01 hr 45 min 00 sec)
Heartbeat CPU 0 instructions: 540000075 cycles: 1043355866 heartbeat IPC: 0.6212 cumulative IPC: 0.5176 (Simulation time: 01 hr 46 min 37 sec)
Heartbeat CPU 0 instructions: 550000077 cycles: 1059331279 heartbeat IPC: 0.626 cumulative IPC: 0.5192 (Simulation time: 01 hr 48 min 43 sec)
Heartbeat CPU 0 instructions: 560000080 cycles: 1093669839 heartbeat IPC: 0.2912 cumulative IPC: 0.512 (Simulation time: 01 hr 52 min 44 sec)
Heartbeat CPU 0 instructions: 570000082 cycles: 1118697474 heartbeat IPC: 0.3996 cumulative IPC: 0.5095 (Simulation time: 01 hr 55 min 48 sec)
Heartbeat CPU 0 instructions: 580000083 cycles: 1134377309 heartbeat IPC: 0.6378 cumulative IPC: 0.5113 (Simulation time: 01 hr 57 min 22 sec)
Heartbeat CPU 0 instructions: 590000083 cycles: 1159207506 heartbeat IPC: 0.4027 cumulative IPC: 0.509 (Simulation time: 01 hr 59 min 26 sec)
Heartbeat CPU 0 instructions: 600000083 cycles: 1183981973 heartbeat IPC: 0.4036 cumulative IPC: 0.5068 (Simulation time: 02 hr 01 min 58 sec)
Heartbeat CPU 0 instructions: 610000084 cycles: 1199447476 heartbeat IPC: 0.6466 cumulative IPC: 0.5086 (Simulation time: 02 hr 03 min 55 sec)
Heartbeat CPU 0 instructions: 620000088 cycles: 1224114911 heartbeat IPC: 0.4054 cumulative IPC: 0.5065 (Simulation time: 02 hr 06 min 13 sec)
Heartbeat CPU 0 instructions: 630000090 cycles: 1248732476 heartbeat IPC: 0.4062 cumulative IPC: 0.5045 (Simulation time: 02 hr 08 min 19 sec)
Heartbeat CPU 0 instructions: 640000090 cycles: 1273243358 heartbeat IPC: 0.408 cumulative IPC: 0.5027 (Simulation time: 02 hr 10 min 36 sec)
Heartbeat CPU 0 instructions: 650000090 cycles: 1288441824 heartbeat IPC: 0.658 cumulative IPC: 0.5045 (Simulation time: 02 hr 12 min 17 sec)
Heartbeat CPU 0 instructions: 660000091 cycles: 1293110841 heartbeat IPC: 2.142 cumulative IPC: 0.5104 (Simulation time: 02 hr 12 min 51 sec)
Heartbeat CPU 0 instructions: 670000091 cycles: 1297603027 heartbeat IPC: 2.226 cumulative IPC: 0.5163 (Simulation time: 02 hr 13 min 33 sec)
Heartbeat CPU 0 instructions: 680000091 cycles: 1302206284 heartbeat IPC: 2.172 cumulative IPC: 0.5222 (Simulation time: 02 hr 14 min 22 sec)
Heartbeat CPU 0 instructions: 690000094 cycles: 1306891931 heartbeat IPC: 2.134 cumulative IPC: 0.528 (Simulation time: 02 hr 15 min 12 sec)
Heartbeat CPU 0 instructions: 700000094 cycles: 1311689436 heartbeat IPC: 2.084 cumulative IPC: 0.5337 (Simulation time: 02 hr 16 min 02 sec)
Heartbeat CPU 0 instructions: 710000097 cycles: 1316548216 heartbeat IPC: 2.058 cumulative IPC: 0.5393 (Simulation time: 02 hr 16 min 54 sec)
Heartbeat CPU 0 instructions: 720000097 cycles: 1321454847 heartbeat IPC: 2.038 cumulative IPC: 0.5449 (Simulation time: 02 hr 17 min 44 sec)
Heartbeat CPU 0 instructions: 730000097 cycles: 1326489698 heartbeat IPC: 1.986 cumulative IPC: 0.5503 (Simulation time: 02 hr 18 min 36 sec)
Heartbeat CPU 0 instructions: 740000100 cycles: 1331580303 heartbeat IPC: 1.964 cumulative IPC: 0.5557 (Simulation time: 02 hr 19 min 27 sec)
Heartbeat CPU 0 instructions: 750000102 cycles: 1336833180 heartbeat IPC: 1.904 cumulative IPC: 0.561 (Simulation time: 02 hr 20 min 19 sec)
Heartbeat CPU 0 instructions: 760000105 cycles: 1342125833 heartbeat IPC: 1.889 cumulative IPC: 0.5663 (Simulation time: 02 hr 21 min 12 sec)
Heartbeat CPU 0 instructions: 770000106 cycles: 1347669782 heartbeat IPC: 1.804 cumulative IPC: 0.5714 (Simulation time: 02 hr 22 min 06 sec)
Heartbeat CPU 0 instructions: 780000108 cycles: 1353236631 heartbeat IPC: 1.796 cumulative IPC: 0.5764 (Simulation time: 02 hr 23 min 00 sec)
Heartbeat CPU 0 instructions: 790000108 cycles: 1358943015 heartbeat IPC: 1.752 cumulative IPC: 0.5813 (Simulation time: 02 hr 23 min 54 sec)
Heartbeat CPU 0 instructions: 800000109 cycles: 1364802500 heartbeat IPC: 1.707 cumulative IPC: 0.5862 (Simulation time: 02 hr 24 min 50 sec)
Heartbeat CPU 0 instructions: 810000111 cycles: 1370815682 heartbeat IPC: 1.663 cumulative IPC: 0.5909 (Simulation time: 02 hr 25 min 46 sec)
Heartbeat CPU 0 instructions: 820000112 cycles: 1377247030 heartbeat IPC: 1.555 cumulative IPC: 0.5954 (Simulation time: 02 hr 26 min 44 sec)
Heartbeat CPU 0 instructions: 830000112 cycles: 1383668338 heartbeat IPC: 1.557 cumulative IPC: 0.5999 (Simulation time: 02 hr 27 min 43 sec)
Heartbeat CPU 0 instructions: 840000113 cycles: 1390382444 heartbeat IPC: 1.489 cumulative IPC: 0.6042 (Simulation time: 02 hr 28 min 45 sec)
Heartbeat CPU 0 instructions: 850000116 cycles: 1397426835 heartbeat IPC: 1.42 cumulative IPC: 0.6083 (Simulation time: 02 hr 29 min 49 sec)
Heartbeat CPU 0 instructions: 860000117 cycles: 1404974416 heartbeat IPC: 1.325 cumulative IPC: 0.6121 (Simulation time: 02 hr 30 min 55 sec)
Heartbeat CPU 0 instructions: 870000117 cycles: 1412898215 heartbeat IPC: 1.262 cumulative IPC: 0.6158 (Simulation time: 02 hr 32 min 02 sec)
Heartbeat CPU 0 instructions: 880000118 cycles: 1421662349 heartbeat IPC: 1.141 cumulative IPC: 0.619 (Simulation time: 02 hr 33 min 14 sec)
Heartbeat CPU 0 instructions: 890000118 cycles: 1431900288 heartbeat IPC: 0.9768 cumulative IPC: 0.6216 (Simulation time: 02 hr 34 min 33 sec)
Heartbeat CPU 0 instructions: 900000121 cycles: 1441539525 heartbeat IPC: 1.037 cumulative IPC: 0.6243 (Simulation time: 02 hr 35 min 43 sec)
Heartbeat CPU 0 instructions: 910000121 cycles: 1449405359 heartbeat IPC: 1.271 cumulative IPC: 0.6278 (Simulation time: 02 hr 36 min 50 sec)
Heartbeat CPU 0 instructions: 920000121 cycles: 1458096175 heartbeat IPC: 1.151 cumulative IPC: 0.631 (Simulation time: 02 hr 38 min 04 sec)
Heartbeat CPU 0 instructions: 930000123 cycles: 1466609547 heartbeat IPC: 1.175 cumulative IPC: 0.6341 (Simulation time: 02 hr 39 min 15 sec)
Heartbeat CPU 0 instructions: 940000123 cycles: 1474562225 heartbeat IPC: 1.257 cumulative IPC: 0.6375 (Simulation time: 02 hr 40 min 22 sec)
Heartbeat CPU 0 instructions: 950000125 cycles: 1482125426 heartbeat IPC: 1.322 cumulative IPC: 0.641 (Simulation time: 02 hr 41 min 13 sec)
Heartbeat CPU 0 instructions: 960000125 cycles: 1489516684 heartbeat IPC: 1.353 cumulative IPC: 0.6445 (Simulation time: 02 hr 42 min 18 sec)
Heartbeat CPU 0 instructions: 970000126 cycles: 1495730704 heartbeat IPC: 1.609 cumulative IPC: 0.6485 (Simulation time: 02 hr 43 min 15 sec)
Heartbeat CPU 0 instructions: 980000130 cycles: 1501383560 heartbeat IPC: 1.769 cumulative IPC: 0.6527 (Simulation time: 02 hr 43 min 56 sec)
Heartbeat CPU 0 instructions: 990000130 cycles: 1507778786 heartbeat IPC: 1.564 cumulative IPC: 0.6566 (Simulation time: 02 hr 44 min 38 sec)
Heartbeat CPU 0 instructions: 1000000131 cycles: 1515541447 heartbeat IPC: 1.288 cumulative IPC: 0.6598 (Simulation time: 02 hr 45 min 37 sec)
Heartbeat CPU 0 instructions: 1010000132 cycles: 1524851969 heartbeat IPC: 1.074 cumulative IPC: 0.6624 (Simulation time: 02 hr 46 min 36 sec)
Heartbeat CPU 0 instructions: 1020000134 cycles: 1533254307 heartbeat IPC: 1.19 cumulative IPC: 0.6653 (Simulation time: 02 hr 47 min 35 sec)
Heartbeat CPU 0 instructions: 1030000134 cycles: 1541477888 heartbeat IPC: 1.216 cumulative IPC: 0.6682 (Simulation time: 02 hr 48 min 39 sec)
Heartbeat CPU 0 instructions: 1040000134 cycles: 1549802060 heartbeat IPC: 1.201 cumulative IPC: 0.6711 (Simulation time: 02 hr 49 min 25 sec)
Heartbeat CPU 0 instructions: 1050000134 cycles: 1558231952 heartbeat IPC: 1.186 cumulative IPC: 0.6738 (Simulation time: 02 hr 50 min 19 sec)
Heartbeat CPU 0 instructions: 1060000135 cycles: 1566804827 heartbeat IPC: 1.166 cumulative IPC: 0.6765 (Simulation time: 02 hr 51 min 11 sec)
Heartbeat CPU 0 instructions: 1070000135 cycles: 1574964204 heartbeat IPC: 1.226 cumulative IPC: 0.6794 (Simulation time: 02 hr 52 min 19 sec)
Heartbeat CPU 0 instructions: 1080000139 cycles: 1582087637 heartbeat IPC: 1.404 cumulative IPC: 0.6826 (Simulation time: 02 hr 53 min 06 sec)
Heartbeat CPU 0 instructions: 1090000139 cycles: 1589992181 heartbeat IPC: 1.265 cumulative IPC: 0.6855 (Simulation time: 02 hr 53 min 53 sec)
Heartbeat CPU 0 instructions: 1100000141 cycles: 1598732736 heartbeat IPC: 1.144 cumulative IPC: 0.688 (Simulation time: 02 hr 54 min 42 sec)
Heartbeat CPU 0 instructions: 1110000145 cycles: 1607122038 heartbeat IPC: 1.192 cumulative IPC: 0.6907 (Simulation time: 02 hr 55 min 56 sec)
Heartbeat CPU 0 instructions: 1120000147 cycles: 1615393956 heartbeat IPC: 1.209 cumulative IPC: 0.6933 (Simulation time: 02 hr 57 min 08 sec)
Heartbeat CPU 0 instructions: 1130000147 cycles: 1623227640 heartbeat IPC: 1.277 cumulative IPC: 0.6961 (Simulation time: 02 hr 58 min 10 sec)
Heartbeat CPU 0 instructions: 1140000151 cycles: 1629989880 heartbeat IPC: 1.479 cumulative IPC: 0.6994 (Simulation time: 02 hr 59 min 11 sec)
Heartbeat CPU 0 instructions: 1150000151 cycles: 1636462500 heartbeat IPC: 1.545 cumulative IPC: 0.7027 (Simulation time: 03 hr 00 min 11 sec)
Heartbeat CPU 0 instructions: 1160000151 cycles: 1645263161 heartbeat IPC: 1.136 cumulative IPC: 0.7051 (Simulation time: 03 hr 01 min 25 sec)
Heartbeat CPU 0 instructions: 1170000151 cycles: 1653535098 heartbeat IPC: 1.209 cumulative IPC: 0.7076 (Simulation time: 03 hr 02 min 36 sec)
Heartbeat CPU 0 instructions: 1180000152 cycles: 1661376741 heartbeat IPC: 1.275 cumulative IPC: 0.7103 (Simulation time: 03 hr 03 min 44 sec)
Heartbeat CPU 0 instructions: 1190000156 cycles: 1667744169 heartbeat IPC: 1.57 cumulative IPC: 0.7135 (Simulation time: 03 hr 04 min 44 sec)
Heartbeat CPU 0 instructions: 1200000158 cycles: 1676360836 heartbeat IPC: 1.161 cumulative IPC: 0.7158 (Simulation time: 03 hr 05 min 49 sec)
Heartbeat CPU 0 instructions: 1210000160 cycles: 1685055344 heartbeat IPC: 1.15 cumulative IPC: 0.7181 (Simulation time: 03 hr 07 min 03 sec)
Heartbeat CPU 0 instructions: 1220000162 cycles: 1693686628 heartbeat IPC: 1.159 cumulative IPC: 0.7203 (Simulation time: 03 hr 08 min 16 sec)
Heartbeat CPU 0 instructions: 1230000166 cycles: 1701524857 heartbeat IPC: 1.276 cumulative IPC: 0.7229 (Simulation time: 03 hr 09 min 24 sec)
Heartbeat CPU 0 instructions: 1240000166 cycles: 1709960548 heartbeat IPC: 1.185 cumulative IPC: 0.7252 (Simulation time: 03 hr 10 min 37 sec)
Heartbeat CPU 0 instructions: 1250000166 cycles: 1718539827 heartbeat IPC: 1.166 cumulative IPC: 0.7274 (Simulation time: 03 hr 11 min 47 sec)
Heartbeat CPU 0 instructions: 1260000170 cycles: 1727160772 heartbeat IPC: 1.16 cumulative IPC: 0.7295 (Simulation time: 03 hr 12 min 50 sec)
Heartbeat CPU 0 instructions: 1270000173 cycles: 1735275377 heartbeat IPC: 1.232 cumulative IPC: 0.7319 (Simulation time: 03 hr 14 min 02 sec)
Heartbeat CPU 0 instructions: 1280000173 cycles: 1742960380 heartbeat IPC: 1.301 cumulative IPC: 0.7344 (Simulation time: 03 hr 15 min 10 sec)
Heartbeat CPU 0 instructions: 1290000176 cycles: 1750419664 heartbeat IPC: 1.341 cumulative IPC: 0.737 (Simulation time: 03 hr 16 min 04 sec)
Heartbeat CPU 0 instructions: 1300000178 cycles: 1756177194 heartbeat IPC: 1.737 cumulative IPC: 0.7402 (Simulation time: 03 hr 16 min 42 sec)
Heartbeat CPU 0 instructions: 1310000181 cycles: 1762347287 heartbeat IPC: 1.621 cumulative IPC: 0.7433 (Simulation time: 03 hr 17 min 26 sec)
Heartbeat CPU 0 instructions: 1320000181 cycles: 1770131232 heartbeat IPC: 1.285 cumulative IPC: 0.7457 (Simulation time: 03 hr 18 min 20 sec)
Heartbeat CPU 0 instructions: 1330000183 cycles: 1779016312 heartbeat IPC: 1.125 cumulative IPC: 0.7476 (Simulation time: 03 hr 19 min 35 sec)
Heartbeat CPU 0 instructions: 1340000184 cycles: 1787072385 heartbeat IPC: 1.241 cumulative IPC: 0.7498 (Simulation time: 03 hr 20 min 46 sec)
Heartbeat CPU 0 instructions: 1350000188 cycles: 1794719635 heartbeat IPC: 1.308 cumulative IPC: 0.7522 (Simulation time: 03 hr 21 min 52 sec)
Heartbeat CPU 0 instructions: 1360000189 cycles: 1802144687 heartbeat IPC: 1.347 cumulative IPC: 0.7547 (Simulation time: 03 hr 22 min 45 sec)
Heartbeat CPU 0 instructions: 1370000189 cycles: 1808383472 heartbeat IPC: 1.603 cumulative IPC: 0.7576 (Simulation time: 03 hr 23 min 26 sec)
Heartbeat CPU 0 instructions: 1380000191 cycles: 1814099186 heartbeat IPC: 1.75 cumulative IPC: 0.7607 (Simulation time: 03 hr 24 min 07 sec)
Heartbeat CPU 0 instructions: 1390000192 cycles: 1820671745 heartbeat IPC: 1.521 cumulative IPC: 0.7635 (Simulation time: 03 hr 25 min 03 sec)
Heartbeat CPU 0 instructions: 1400000194 cycles: 1829136045 heartbeat IPC: 1.181 cumulative IPC: 0.7654 (Simulation time: 03 hr 26 min 16 sec)
Heartbeat CPU 0 instructions: 1410000194 cycles: 1837673276 heartbeat IPC: 1.171 cumulative IPC: 0.7673 (Simulation time: 03 hr 27 min 20 sec)
Heartbeat CPU 0 instructions: 1420000195 cycles: 1845631364 heartbeat IPC: 1.257 cumulative IPC: 0.7694 (Simulation time: 03 hr 28 min 28 sec)
Heartbeat CPU 0 instructions: 1430000199 cycles: 1853213895 heartbeat IPC: 1.319 cumulative IPC: 0.7716 (Simulation time: 03 hr 29 min 13 sec)
Heartbeat CPU 0 instructions: 1440000203 cycles: 1860600484 heartbeat IPC: 1.354 cumulative IPC: 0.7739 (Simulation time: 03 hr 30 min 02 sec)
Heartbeat CPU 0 instructions: 1450000204 cycles: 1867122595 heartbeat IPC: 1.533 cumulative IPC: 0.7766 (Simulation time: 03 hr 30 min 59 sec)
Heartbeat CPU 0 instructions: 1460000204 cycles: 1872615615 heartbeat IPC: 1.82 cumulative IPC: 0.7797 (Simulation time: 03 hr 31 min 36 sec)
Heartbeat CPU 0 instructions: 1470000205 cycles: 1878737476 heartbeat IPC: 1.633 cumulative IPC: 0.7824 (Simulation time: 03 hr 32 min 20 sec)
Heartbeat CPU 0 instructions: 1480000207 cycles: 1885773493 heartbeat IPC: 1.421 cumulative IPC: 0.7848 (Simulation time: 03 hr 33 min 13 sec)
Heartbeat CPU 0 instructions: 1490000207 cycles: 1894665436 heartbeat IPC: 1.125 cumulative IPC: 0.7864 (Simulation time: 03 hr 34 min 06 sec)
Heartbeat CPU 0 instructions: 1500000209 cycles: 1903361565 heartbeat IPC: 1.15 cumulative IPC: 0.7881 (Simulation time: 03 hr 34 min 59 sec)
Heartbeat CPU 0 instructions: 1510000211 cycles: 1911980046 heartbeat IPC: 1.16 cumulative IPC: 0.7898 (Simulation time: 03 hr 35 min 54 sec)
Heartbeat CPU 0 instructions: 1520000213 cycles: 1929916259 heartbeat IPC: 0.5575 cumulative IPC: 0.7876 (Simulation time: 03 hr 37 min 51 sec)
Heartbeat CPU 0 instructions: 1530000213 cycles: 1938443806 heartbeat IPC: 1.173 cumulative IPC: 0.7893 (Simulation time: 03 hr 39 min 03 sec)
Heartbeat CPU 0 instructions: 1540000217 cycles: 1946764732 heartbeat IPC: 1.202 cumulative IPC: 0.7911 (Simulation time: 03 hr 40 min 16 sec)
Heartbeat CPU 0 instructions: 1550000219 cycles: 1955469727 heartbeat IPC: 1.149 cumulative IPC: 0.7926 (Simulation time: 03 hr 41 min 22 sec)
Heartbeat CPU 0 instructions: 1560000220 cycles: 1963594479 heartbeat IPC: 1.231 cumulative IPC: 0.7945 (Simulation time: 03 hr 42 min 24 sec)
Heartbeat CPU 0 instructions: 1570000220 cycles: 1971280401 heartbeat IPC: 1.301 cumulative IPC: 0.7964 (Simulation time: 03 hr 43 min 22 sec)
Heartbeat CPU 0 instructions: 1580000221 cycles: 1978707780 heartbeat IPC: 1.346 cumulative IPC: 0.7985 (Simulation time: 03 hr 44 min 28 sec)
Heartbeat CPU 0 instructions: 1590000225 cycles: 1985958523 heartbeat IPC: 1.379 cumulative IPC: 0.8006 (Simulation time: 03 hr 45 min 31 sec)
Heartbeat CPU 0 instructions: 1600000228 cycles: 1992902749 heartbeat IPC: 1.44 cumulative IPC: 0.8028 (Simulation time: 03 hr 46 min 35 sec)
Heartbeat CPU 0 instructions: 1610000229 cycles: 1998132923 heartbeat IPC: 1.912 cumulative IPC: 0.8058 (Simulation time: 03 hr 47 min 29 sec)
Heartbeat CPU 0 instructions: 1620000229 cycles: 2003679802 heartbeat IPC: 1.803 cumulative IPC: 0.8085 (Simulation time: 03 hr 48 min 25 sec)
Heartbeat CPU 0 instructions: 1630000229 cycles: 2009694817 heartbeat IPC: 1.663 cumulative IPC: 0.8111 (Simulation time: 03 hr 49 min 15 sec)
Heartbeat CPU 0 instructions: 1640000233 cycles: 2016422274 heartbeat IPC: 1.486 cumulative IPC: 0.8133 (Simulation time: 03 hr 50 min 04 sec)
Heartbeat CPU 0 instructions: 1650000233 cycles: 2024687534 heartbeat IPC: 1.21 cumulative IPC: 0.8149 (Simulation time: 03 hr 51 min 09 sec)
Heartbeat CPU 0 instructions: 1660000233 cycles: 2033636264 heartbeat IPC: 1.117 cumulative IPC: 0.8163 (Simulation time: 03 hr 52 min 26 sec)
Heartbeat CPU 0 instructions: 1670000233 cycles: 2042279986 heartbeat IPC: 1.157 cumulative IPC: 0.8177 (Simulation time: 03 hr 53 min 35 sec)
Heartbeat CPU 0 instructions: 1680000234 cycles: 2050545937 heartbeat IPC: 1.21 cumulative IPC: 0.8193 (Simulation time: 03 hr 54 min 43 sec)
Heartbeat CPU 0 instructions: 1690000235 cycles: 2058318827 heartbeat IPC: 1.287 cumulative IPC: 0.8211 (Simulation time: 03 hr 55 min 42 sec)
Heartbeat CPU 0 instructions: 1700000235 cycles: 2065825470 heartbeat IPC: 1.332 cumulative IPC: 0.8229 (Simulation time: 03 hr 56 min 37 sec)
Heartbeat CPU 0 instructions: 1710000235 cycles: 2072174587 heartbeat IPC: 1.575 cumulative IPC: 0.8252 (Simulation time: 03 hr 57 min 24 sec)
Heartbeat CPU 0 instructions: 1720000236 cycles: 2078049166 heartbeat IPC: 1.702 cumulative IPC: 0.8277 (Simulation time: 03 hr 58 min 13 sec)
Heartbeat CPU 0 instructions: 1730000238 cycles: 2084967570 heartbeat IPC: 1.445 cumulative IPC: 0.8297 (Simulation time: 03 hr 59 min 05 sec)
Heartbeat CPU 0 instructions: 1740000238 cycles: 2094067104 heartbeat IPC: 1.099 cumulative IPC: 0.8309 (Simulation time: 03 hr 59 min 59 sec)
Heartbeat CPU 0 instructions: 1750000241 cycles: 2102438134 heartbeat IPC: 1.195 cumulative IPC: 0.8324 (Simulation time: 04 hr 01 min 11 sec)
Heartbeat CPU 0 instructions: 1760000242 cycles: 2110019174 heartbeat IPC: 1.319 cumulative IPC: 0.8341 (Simulation time: 04 hr 02 min 21 sec)
Heartbeat CPU 0 instructions: 1770000243 cycles: 2118737714 heartbeat IPC: 1.147 cumulative IPC: 0.8354 (Simulation time: 04 hr 03 min 38 sec)
Heartbeat CPU 0 instructions: 1780000247 cycles: 2126937708 heartbeat IPC: 1.22 cumulative IPC: 0.8369 (Simulation time: 04 hr 04 min 51 sec)
Heartbeat CPU 0 instructions: 1790000249 cycles: 2134715250 heartbeat IPC: 1.286 cumulative IPC: 0.8385 (Simulation time: 04 hr 06 min 02 sec)
Heartbeat CPU 0 instructions: 1800000249 cycles: 2142241779 heartbeat IPC: 1.329 cumulative IPC: 0.8402 (Simulation time: 04 hr 07 min 11 sec)
Heartbeat CPU 0 instructions: 1810000251 cycles: 2149533705 heartbeat IPC: 1.371 cumulative IPC: 0.842 (Simulation time: 04 hr 08 min 19 sec)
Heartbeat CPU 0 instructions: 1820000252 cycles: 2156676402 heartbeat IPC: 1.4 cumulative IPC: 0.8439 (Simulation time: 04 hr 09 min 25 sec)
Heartbeat CPU 0 instructions: 1830000252 cycles: 2163695310 heartbeat IPC: 1.425 cumulative IPC: 0.8458 (Simulation time: 04 hr 10 min 19 sec)
Heartbeat CPU 0 instructions: 1840000254 cycles: 2170582371 heartbeat IPC: 1.452 cumulative IPC: 0.8477 (Simulation time: 04 hr 11 min 06 sec)
Heartbeat CPU 0 instructions: 1850000256 cycles: 2177359763 heartbeat IPC: 1.475 cumulative IPC: 0.8497 (Simulation time: 04 hr 12 min 07 sec)
Heartbeat CPU 0 instructions: 1860000256 cycles: 2183977852 heartbeat IPC: 1.511 cumulative IPC: 0.8517 (Simulation time: 04 hr 13 min 10 sec)
Heartbeat CPU 0 instructions: 1870000257 cycles: 2190498598 heartbeat IPC: 1.534 cumulative IPC: 0.8537 (Simulation time: 04 hr 14 min 14 sec)
Heartbeat CPU 0 instructions: 1880000259 cycles: 2196957851 heartbeat IPC: 1.548 cumulative IPC: 0.8557 (Simulation time: 04 hr 15 min 03 sec)
Heartbeat CPU 0 instructions: 1890000259 cycles: 2201921661 heartbeat IPC: 2.015 cumulative IPC: 0.8583 (Simulation time: 04 hr 15 min 44 sec)
Heartbeat CPU 0 instructions: 1900000259 cycles: 2206875140 heartbeat IPC: 2.019 cumulative IPC: 0.8609 (Simulation time: 04 hr 16 min 26 sec)
Heartbeat CPU 0 instructions: 1910000259 cycles: 2211972820 heartbeat IPC: 1.962 cumulative IPC: 0.8635 (Simulation time: 04 hr 17 min 05 sec)
Heartbeat CPU 0 instructions: 1920000262 cycles: 2217220792 heartbeat IPC: 1.905 cumulative IPC: 0.8659 (Simulation time: 04 hr 17 min 51 sec)
Heartbeat CPU 0 instructions: 1930000262 cycles: 2222591166 heartbeat IPC: 1.862 cumulative IPC: 0.8684 (Simulation time: 04 hr 18 min 39 sec)
Heartbeat CPU 0 instructions: 1940000263 cycles: 2228143525 heartbeat IPC: 1.801 cumulative IPC: 0.8707 (Simulation time: 04 hr 19 min 17 sec)
Heartbeat CPU 0 instructions: 1950000264 cycles: 2233859917 heartbeat IPC: 1.749 cumulative IPC: 0.8729 (Simulation time: 04 hr 19 min 57 sec)
Heartbeat CPU 0 instructions: 1960000264 cycles: 2239788295 heartbeat IPC: 1.687 cumulative IPC: 0.8751 (Simulation time: 04 hr 20 min 44 sec)
Heartbeat CPU 0 instructions: 1970000264 cycles: 2246018832 heartbeat IPC: 1.605 cumulative IPC: 0.8771 (Simulation time: 04 hr 21 min 28 sec)
Heartbeat CPU 0 instructions: 1980000266 cycles: 2252392961 heartbeat IPC: 1.569 cumulative IPC: 0.8791 (Simulation time: 04 hr 22 min 10 sec)
Heartbeat CPU 0 instructions: 1990000270 cycles: 2259152064 heartbeat IPC: 1.479 cumulative IPC: 0.8809 (Simulation time: 04 hr 23 min 12 sec)

=== ERROR PAGE STATISTICS ===
Mode: CYCLE
Error Cycle Interval: 4648416149 CPU cycles
Total Error Accesses: 0
==============================
Simulation finished CPU 0 instructions: 1999999979 cycles: 2266602574 cumulative IPC: 0.8824 (Simulation time: 04 hr 24 min 18 sec)
Simulation complete CPU 0 instructions: 1999999979 cycles: 2266602574 cumulative IPC: 0.8824 (Simulation time: 04 hr 24 min 18 sec)

ChampSim completed all CPUs

=== Simulation ===
CPU 0 runs test_traces/623.xalancbmk_s-592B.champsimtrace.xz

Region of Interest Statistics

CPU 0 cumulative IPC: 0.8824 instructions: 1999999979 cycles: 2266602574
CPU 0 Branch Prediction Accuracy: 97.16% MPKI: 8.552 Average ROB Occupancy at Mispredict: 24.38
Branch type MPKI
BRANCH_DIRECT_JUMP: 0.08608
BRANCH_INDIRECT: 0.2696
BRANCH_CONDITIONAL: 6.772
BRANCH_DIRECT_CALL: 0.0003155
BRANCH_INDIRECT_CALL: 0.2909
BRANCH_RETURN: 1.133

cpu0->cpu0_STLB TOTAL        ACCESS:     148269 HIT:     148174 MISS:         95 MSHR_MERGE:          0
cpu0->cpu0_STLB LOAD         ACCESS:     148269 HIT:     148174 MISS:         95 MSHR_MERGE:          0
cpu0->cpu0_STLB RFO          ACCESS:          0 HIT:          0 MISS:          0 MSHR_MERGE:          0
cpu0->cpu0_STLB PREFETCH     ACCESS:          0 HIT:          0 MISS:          0 MSHR_MERGE:          0
cpu0->cpu0_STLB WRITE        ACCESS:          0 HIT:          0 MISS:          0 MSHR_MERGE:          0
cpu0->cpu0_STLB TRANSLATION  ACCESS:          0 HIT:          0 MISS:          0 MSHR_MERGE:          0
cpu0->cpu0_STLB PREFETCH REQUESTED:          0 ISSUED:          0 USEFUL:          0 USELESS:          0
cpu0->cpu0_STLB AVERAGE MISS LATENCY: 9.531e+06 cycles
cpu0->cpu0_L2C TOTAL        ACCESS:  105790205 HIT:   99088627 MISS:    6701578 MSHR_MERGE:          0
cpu0->cpu0_L2C LOAD         ACCESS:   96650448 HIT:   93020860 MISS:    3629588 MSHR_MERGE:          0
cpu0->cpu0_L2C RFO          ACCESS:    3686325 HIT:     614336 MISS:    3071989 MSHR_MERGE:          0
cpu0->cpu0_L2C PREFETCH     ACCESS:          0 HIT:          0 MISS:          0 MSHR_MERGE:          0
cpu0->cpu0_L2C WRITE        ACCESS:    5453432 HIT:    5453431 MISS:          1 MSHR_MERGE:          0
cpu0->cpu0_L2C TRANSLATION  ACCESS:          0 HIT:          0 MISS:          0 MSHR_MERGE:          0
cpu0->cpu0_L2C PREFETCH REQUESTED:          0 ISSUED:          0 USEFUL:          0 USELESS:          0
cpu0->cpu0_L2C AVERAGE MISS LATENCY: 64.02 cycles
cpu0->cpu0_L1I TOTAL        ACCESS:  360950411 HIT:  355550369 MISS:    5400042 MSHR_MERGE:    1495448
cpu0->cpu0_L1I LOAD         ACCESS:  360950411 HIT:  355550369 MISS:    5400042 MSHR_MERGE:    1495448
cpu0->cpu0_L1I RFO          ACCESS:          0 HIT:          0 MISS:          0 MSHR_MERGE:          0
cpu0->cpu0_L1I PREFETCH     ACCESS:          0 HIT:          0 MISS:          0 MSHR_MERGE:          0
cpu0->cpu0_L1I WRITE        ACCESS:          0 HIT:          0 MISS:          0 MSHR_MERGE:          0
cpu0->cpu0_L1I TRANSLATION  ACCESS:          0 HIT:          0 MISS:          0 MSHR_MERGE:          0
cpu0->cpu0_L1I PREFETCH REQUESTED:          0 ISSUED:          0 USEFUL:          0 USELESS:          0
cpu0->cpu0_L1I AVERAGE MISS LATENCY: 7.898 cycles
cpu0->cpu0_L1D TOTAL        ACCESS:  536497087 HIT:  360077833 MISS:  176419254 MSHR_MERGE:   79986990
cpu0->cpu0_L1D LOAD         ACCESS:  419475118 HIT:  256662231 MISS:  162812887 MSHR_MERGE:   70066977
cpu0->cpu0_L1D RFO          ACCESS:          0 HIT:          0 MISS:          0 MSHR_MERGE:          0
cpu0->cpu0_L1D PREFETCH     ACCESS:          0 HIT:          0 MISS:          0 MSHR_MERGE:          0
cpu0->cpu0_L1D WRITE        ACCESS:  117021969 HIT:  103415602 MISS:   13606367 MSHR_MERGE:    9920013
cpu0->cpu0_L1D TRANSLATION  ACCESS:          0 HIT:          0 MISS:          0 MSHR_MERGE:          0
cpu0->cpu0_L1D PREFETCH REQUESTED:          0 ISSUED:          0 USEFUL:          0 USELESS:          0
cpu0->cpu0_L1D AVERAGE MISS LATENCY: 12.63 cycles
cpu0->cpu0_ITLB TOTAL        ACCESS:  341720494 HIT:  341720489 MISS:          5 MSHR_MERGE:          1
cpu0->cpu0_ITLB LOAD         ACCESS:  341720494 HIT:  341720489 MISS:          5 MSHR_MERGE:          1
cpu0->cpu0_ITLB RFO          ACCESS:          0 HIT:          0 MISS:          0 MSHR_MERGE:          0
cpu0->cpu0_ITLB PREFETCH     ACCESS:          0 HIT:          0 MISS:          0 MSHR_MERGE:          0
cpu0->cpu0_ITLB WRITE        ACCESS:          0 HIT:          0 MISS:          0 MSHR_MERGE:          0
cpu0->cpu0_ITLB TRANSLATION  ACCESS:          0 HIT:          0 MISS:          0 MSHR_MERGE:          0
cpu0->cpu0_ITLB PREFETCH REQUESTED:          0 ISSUED:          0 USEFUL:          0 USELESS:          0
cpu0->cpu0_ITLB AVERAGE MISS LATENCY: 1.155e+07 cycles
cpu0->cpu0_DTLB TOTAL        ACCESS:  460618420 HIT:  460429226 MISS:     189194 MSHR_MERGE:      40929
cpu0->cpu0_DTLB LOAD         ACCESS:  460618420 HIT:  460429226 MISS:     189194 MSHR_MERGE:      40929
cpu0->cpu0_DTLB RFO          ACCESS:          0 HIT:          0 MISS:          0 MSHR_MERGE:          0
cpu0->cpu0_DTLB PREFETCH     ACCESS:          0 HIT:          0 MISS:          0 MSHR_MERGE:          0
cpu0->cpu0_DTLB WRITE        ACCESS:          0 HIT:          0 MISS:          0 MSHR_MERGE:          0
cpu0->cpu0_DTLB TRANSLATION  ACCESS:          0 HIT:          0 MISS:          0 MSHR_MERGE:          0
cpu0->cpu0_DTLB PREFETCH REQUESTED:          0 ISSUED:          0 USEFUL:          0 USELESS:          0
cpu0->cpu0_DTLB AVERAGE MISS LATENCY: 5801 cycles
cpu0->LLC TOTAL        ACCESS:   10182981 HIT:    6920628 MISS:    3262353 MSHR_MERGE:          0
cpu0->LLC LOAD         ACCESS:    3629588 HIT:    3226496 MISS:     403092 MSHR_MERGE:          0
cpu0->LLC RFO          ACCESS:    3071989 HIT:     227049 MISS:    2844940 MSHR_MERGE:          0
cpu0->LLC PREFETCH     ACCESS:          0 HIT:          0 MISS:          0 MSHR_MERGE:          0
cpu0->LLC WRITE        ACCESS:    3481404 HIT:    3467083 MISS:      14321 MSHR_MERGE:          0
cpu0->LLC TRANSLATION  ACCESS:          0 HIT:          0 MISS:          0 MSHR_MERGE:          0
cpu0->LLC PREFETCH REQUESTED:          0 ISSUED:          0 USEFUL:          0 USELESS:          0
cpu0->LLC AVERAGE MISS LATENCY: 99.69 cycles

DRAM Statistics

Channel 0 RQ ROW_BUFFER_HIT:     210836
  ROW_BUFFER_MISS:    1412913
  AVG DBUS CONGESTED CYCLE: 8.129
Channel 0 WQ ROW_BUFFER_HIT:     134659
  ROW_BUFFER_MISS:    1407526
  FULL:          2
Channel 0 REFRESHES ISSUED:     188871

Channel 1 RQ ROW_BUFFER_HIT:     210358
  ROW_BUFFER_MISS:    1414114
  AVG DBUS CONGESTED CYCLE: 8.13
Channel 1 WQ ROW_BUFFER_HIT:     135032
  ROW_BUFFER_MISS:    1407625
  FULL:          0
Channel 1 REFRESHES ISSUED:     188871
