
*** ChampSim Multicore Out-of-Order Simulator ***
Warmup Instructions: 0
Simulation Instructions: 9223372036854775807
Number of CPUs: 1
Page size: 1048576

Off-chip DRAM Size: 64 GiB Channels: 2 Width: 32-bit Data Rate: 4807 MT/s
[ERROR_PAGE_MANAGER] Error latency: 2459910500 
[ERROR_PAGE_MANAGER] Random seed: 54321 (fixed for preload reproducibility)
[ERROR_PAGE_MANAGER] Cycle-based error modeling enabled
[ERROR_PAGE_MANAGER] Errors per interval: 1
[ERROR_PAGE_MANAGER] Error cycle interval: 46484161 cycles

=== ERROR PAGE STATISTICS ===
Mode: CYCLE
Error Cycle Interval: 46484161 CPU cycles
Total Error Accesses: 0
==============================
Warmup finished CPU 0 instructions: 0 cycles: 1 cumulative IPC: 0 (Simulation time: 00 hr 00 min 00 sec)
Warmup complete CPU 0 instructions: 0 cycles: 1 cumulative IPC: 0 (Simulation time: 00 hr 00 min 00 sec)
Simulation CPU 0 panic: IPC 0 < 0.01
Simulation CPU 0 panic: IPC 1e-07 < 0.01
Simulation CPU 0 panic: IPC 0 < 0.01
Simulation CPU 0 panic: IPC 2e-07 < 0.01
[ERROR_CYCLE] Error added at CPU cycle 46484161, interval 1, pending count: 1
Simulation CPU 0 panic: IPC 6e-07 < 0.01
[DRAM_CYCLE_ERROR] Cycle-based error applied! address=0x537c0a040 additional_latency=2459910500 cycles
Simulation CPU 0 panic: IPC 0 < 0.01
Simulation CPU 0 panic: IPC 1.07e-05 < 0.01
Simulation CPU 0 panic: IPC 0.0061264 < 0.01
Simulation CPU 0 panic: IPC 1.4e-06 < 0.01
[ERROR_CYCLE] Error added at CPU cycle 92968322, interval 2, pending count: 1
[DRAM_CYCLE_ERROR] Cycle-based error applied! address=0x537c0f1b8 additional_latency=2459910500 cycles
Simulation CPU 0 panic: IPC 0 < 0.01
Simulation CPU 0 panic: IPC 0 < 0.01
[ERROR_CYCLE] Error added at CPU cycle 139452483, interval 3, pending count: 1
[DRAM_CYCLE_ERROR] Cycle-based error applied! address=0x61cf41680 additional_latency=2459910500 cycles
Heartbeat CPU 0 instructions: 10000000 cycles: 149434588 heartbeat IPC: 0.06692 cumulative IPC: 0.06692 (Simulation time: 00 hr 14 min 33 sec)
Heartbeat CPU 0 instructions: 20000000 cycles: 167698442 heartbeat IPC: 0.5475 cumulative IPC: 0.1193 (Simulation time: 00 hr 16 min 41 sec)
[ERROR_CYCLE] Error added at CPU cycle 185936644, interval 4, pending count: 1
[DRAM_CYCLE_ERROR] Cycle-based error applied! address=0x61cfe6fc0 additional_latency=2459910500 cycles
Heartbeat CPU 0 instructions: 30000000 cycles: 195812773 heartbeat IPC: 0.3557 cumulative IPC: 0.1532 (Simulation time: 00 hr 19 min 56 sec)
Heartbeat CPU 0 instructions: 40000001 cycles: 214094126 heartbeat IPC: 0.547 cumulative IPC: 0.1868 (Simulation time: 00 hr 21 min 56 sec)
Simulation CPU 0 panic: IPC 4.15e-05 < 0.01
[ERROR_CYCLE] Error added at CPU cycle 232420805, interval 5, pending count: 1
[DRAM_CYCLE_ERROR] Cycle-based error applied! address=0x537c1a6e8 additional_latency=2459910500 cycles
Simulation CPU 0 panic: IPC 2e-07 < 0.01
Simulation CPU 0 panic: IPC 8e-07 < 0.01
Simulation CPU 0 panic: IPC 5.83e-05 < 0.01
Simulation CPU 0 panic: IPC 0.0013368 < 0.01
[ERROR_CYCLE] Error added at CPU cycle 278904966, interval 6, pending count: 1
Simulation CPU 0 panic: IPC 0.0019924 < 0.01
[DRAM_CYCLE_ERROR] Cycle-based error applied! address=0x773e020b8 additional_latency=2459910500 cycles
Simulation CPU 0 panic: IPC 0 < 0.01
Simulation CPU 0 warning: IPC 0.045782 < 0.05
Simulation CPU 0 critical: IPC 0.011862 < 0.02
Simulation CPU 0 warning: IPC 0.021961 < 0.05
[ERROR_CYCLE] Error added at CPU cycle 325389128, interval 7, pending count: 1
[DRAM_CYCLE_ERROR] Cycle-based error applied! address=0x537c266f0 additional_latency=2459910500 cycles
Simulation CPU 0 panic: IPC 0.0084677 < 0.01
Simulation CPU 0 panic: IPC 0 < 0.01
Simulation CPU 0 warning: IPC 0.020324 < 0.05
Simulation CPU 0 warning: IPC 0.045785 < 0.05
Simulation CPU 0 warning: IPC 0.03382 < 0.05
[ERROR_CYCLE] Error added at CPU cycle 371873289, interval 8, pending count: 1
[DRAM_CYCLE_ERROR] Cycle-based error applied! address=0x537c2a738 additional_latency=2459910500 cycles
Simulation CPU 0 panic: IPC 0 < 0.01
Simulation CPU 0 panic: IPC 0.0078003 < 0.01
Simulation CPU 0 warning: IPC 0.020087 < 0.05
Simulation CPU 0 warning: IPC 0.046547 < 0.05
[ERROR_CYCLE] Error added at CPU cycle 418357450, interval 9, pending count: 1
Simulation CPU 0 critical: IPC 0.012002 < 0.02
[DRAM_CYCLE_ERROR] Cycle-based error applied! address=0x537c2ea78 additional_latency=2459910500 cycles
Simulation CPU 0 panic: IPC 0 < 0.01
Simulation CPU 0 critical: IPC 0.019373 < 0.02
Simulation CPU 0 panic: IPC 0.0025871 < 0.01
Simulation CPU 0 panic: IPC 0.006774 < 0.01
[ERROR_CYCLE] Error added at CPU cycle 464841611, interval 10, pending count: 1
[DRAM_CYCLE_ERROR] Cycle-based error applied! address=0x46b100248 additional_latency=2459910500 cycles
Simulation CPU 0 panic: IPC 0 < 0.01
Simulation CPU 0 warning: IPC 0.020324 < 0.05
Simulation CPU 0 warning: IPC 0.046069 < 0.05
Simulation CPU 0 critical: IPC 0.012664 < 0.02
Simulation CPU 0 warning: IPC 0.022565 < 0.05
[ERROR_CYCLE] Error added at CPU cycle 511325771, interval 11, pending count: 1
[DRAM_CYCLE_ERROR] Cycle-based error applied! address=0xc64502e18 additional_latency=2459910500 cycles
Simulation CPU 0 panic: IPC 0 < 0.01
Simulation CPU 0 panic: IPC 4.77e-05 < 0.01
Simulation CPU 0 panic: IPC 0.0067263 < 0.01
Simulation CPU 0 critical: IPC 0.015004 < 0.02
[ERROR_CYCLE] Error added at CPU cycle 557809932, interval 12, pending count: 1
Simulation CPU 0 panic: IPC 0.0053204 < 0.01
[DRAM_CYCLE_ERROR] Cycle-based error applied! address=0x9c7d01088 additional_latency=2459910500 cycles
Simulation CPU 0 panic: IPC 0 < 0.01
Simulation CPU 0 warning: IPC 0.045787 < 0.05
Simulation CPU 0 critical: IPC 0.01185 < 0.02
Simulation CPU 0 warning: IPC 0.02261 < 0.05
[ERROR_CYCLE] Error added at CPU cycle 604294093, interval 13, pending count: 1
[DRAM_CYCLE_ERROR] Cycle-based error applied! address=0x537c3d710 additional_latency=2459910500 cycles
Simulation CPU 0 panic: IPC 0.0078242 < 0.01
Simulation CPU 0 critical: IPC 0.017107 < 0.02
Simulation CPU 0 warning: IPC 0.042067 < 0.05
Simulation CPU 0 critical: IPC 0.018788 < 0.02
Simulation CPU 0 warning: IPC 0.021967 < 0.05
[ERROR_CYCLE] Error added at CPU cycle 650778254, interval 14, pending count: 1
[DRAM_CYCLE_ERROR] Cycle-based error applied! address=0x537c41758 additional_latency=2459910500 cycles
Simulation CPU 0 panic: IPC 0 < 0.01
Heartbeat CPU 0 instructions: 50000005 cycles: 668410483 heartbeat IPC: 0.02201 cumulative IPC: 0.0748 (Simulation time: 01 hr 13 min 52 sec)
Simulation CPU 0 panic: IPC 0.0084677 < 0.01
Simulation CPU 0 warning: IPC 0.020324 < 0.05
Simulation CPU 0 warning: IPC 0.045787 < 0.05
[ERROR_CYCLE] Error added at CPU cycle 697262415, interval 15, pending count: 1
[DRAM_CYCLE_ERROR] Cycle-based error applied! address=0xd40b02148 additional_latency=2459910500 cycles
Simulation CPU 0 panic: IPC 0.0005455 < 0.01
Simulation CPU 0 critical: IPC 0.011305 < 0.02
Simulation CPU 0 critical: IPC 0.016055 < 0.02
Simulation CPU 0 panic: IPC 0.005912 < 0.01
Simulation CPU 0 panic: IPC 0.0082425 < 0.01
[ERROR_CYCLE] Error added at CPU cycle 743746576, interval 16, pending count: 1
[DRAM_CYCLE_ERROR] Cycle-based error applied! address=0xd0d000000 additional_latency=2459910500 cycles
Simulation CPU 0 panic: IPC 0 < 0.01
Simulation CPU 0 warning: IPC 0.020087 < 0.05
Simulation CPU 0 warning: IPC 0.04625 < 0.05
Simulation CPU 0 critical: IPC 0.01185 < 0.02
Simulation CPU 0 critical: IPC 0.018687 < 0.02
[ERROR_CYCLE] Error added at CPU cycle 790230737, interval 17, pending count: 1
[DRAM_CYCLE_ERROR] Cycle-based error applied! address=0xba3500000 additional_latency=2459910500 cycles
Simulation CPU 0 panic: IPC 0 < 0.01
Simulation CPU 0 panic: IPC 0.0032803 < 0.01
Simulation CPU 0 warning: IPC 0.027099 < 0.05
Simulation CPU 0 panic: IPC 1e-07 < 0.01
[ERROR_CYCLE] Error added at CPU cycle 836714899, interval 18, pending count: 1
Simulation CPU 0 panic: IPC 0.0045275 < 0.01
[DRAM_CYCLE_ERROR] Cycle-based error applied! address=0x537c51160 additional_latency=2459910500 cycles
Simulation CPU 0 panic: IPC 0 < 0.01
Simulation CPU 0 panic: IPC 0.0074089 < 0.01
Simulation CPU 0 critical: IPC 0.018933 < 0.02
Simulation CPU 0 panic: IPC 0.0074089 < 0.01
[ERROR_CYCLE] Error added at CPU cycle 883199060, interval 19, pending count: 1
[DRAM_CYCLE_ERROR] Cycle-based error applied! address=0xc8f302610 additional_latency=2459910500 cycles
Simulation CPU 0 panic: IPC 0 < 0.01
Simulation CPU 0 critical: IPC 0.018913 < 0.02
Simulation CPU 0 panic: IPC 0.0073801 < 0.01
Simulation CPU 0 critical: IPC 0.018655 < 0.02
[ERROR_CYCLE] Error added at CPU cycle 929683221, interval 20, pending count: 1
Simulation CPU 0 panic: IPC 0.0073801 < 0.01
[DRAM_CYCLE_ERROR] Cycle-based error applied! address=0x76b200000 additional_latency=2459910500 cycles
Simulation CPU 0 panic: IPC 0 < 0.01
Simulation CPU 0 critical: IPC 0.018878 < 0.02
Simulation CPU 0 panic: IPC 0.0074089 < 0.01
Simulation CPU 0 critical: IPC 0.018933 < 0.02
[ERROR_CYCLE] Error added at CPU cycle 976167382, interval 21, pending count: 1
[DRAM_CYCLE_ERROR] Cycle-based error applied! address=0x537c5c088 additional_latency=2459910500 cycles
Simulation CPU 0 panic: IPC 0.0074089 < 0.01
Simulation CPU 0 panic: IPC 0 < 0.01
Simulation CPU 0 critical: IPC 0.018933 < 0.02
Simulation CPU 0 panic: IPC 0.0074089 < 0.01
Simulation CPU 0 critical: IPC 0.018933 < 0.02
[ERROR_CYCLE] Error added at CPU cycle 1022651542, interval 22, pending count: 1
[DRAM_CYCLE_ERROR] Cycle-based error applied! address=0x537c60098 additional_latency=2459910500 cycles
Simulation CPU 0 panic: IPC 0.0074089 < 0.01
Simulation CPU 0 panic: IPC 0 < 0.01
Simulation CPU 0 critical: IPC 0.014883 < 0.02
Simulation CPU 0 warning: IPC 0.049833 < 0.05
Heartbeat CPU 0 instructions: 60000005 cycles: 1065280361 heartbeat IPC: 0.0252 cumulative IPC: 0.05632 (Simulation time: 01 hr 55 min 41 sec)
[ERROR_CYCLE] Error added at CPU cycle 1069135703, interval 23, pending count: 1
[DRAM_CYCLE_ERROR] Cycle-based error applied! address=0x8962a2b80 additional_latency=2459910500 cycles
Heartbeat CPU 0 instructions: 70000008 cycles: 1084133944 heartbeat IPC: 0.5304 cumulative IPC: 0.06457 (Simulation time: 01 hr 57 min 42 sec)
Heartbeat CPU 0 instructions: 80000011 cycles: 1093165942 heartbeat IPC: 1.107 cumulative IPC: 0.07318 (Simulation time: 01 hr 58 min 45 sec)
Heartbeat CPU 0 instructions: 90000011 cycles: 1102189210 heartbeat IPC: 1.108 cumulative IPC: 0.08166 (Simulation time: 01 hr 59 min 42 sec)
Heartbeat CPU 0 instructions: 100000014 cycles: 1111201103 heartbeat IPC: 1.11 cumulative IPC: 0.08999 (Simulation time: 02 hr 00 min 36 sec)
[ERROR_CYCLE] Error added at CPU cycle 1115619864, interval 24, pending count: 1
[DRAM_CYCLE_ERROR] Cycle-based error applied! address=0x61cff1080 additional_latency=2459910500 cycles
Heartbeat CPU 0 instructions: 110000014 cycles: 1130064325 heartbeat IPC: 0.5301 cumulative IPC: 0.09734 (Simulation time: 02 hr 02 min 16 sec)
Simulation CPU 0 critical: IPC 0.012663 < 0.02
[ERROR_CYCLE] Error added at CPU cycle 1162104025, interval 25, pending count: 1
[DRAM_CYCLE_ERROR] Cycle-based error applied! address=0x537c65058 additional_latency=2459910500 cycles
Simulation CPU 0 panic: IPC 0 < 0.01
Simulation CPU 0 critical: IPC 0.012124 < 0.02
Heartbeat CPU 0 instructions: 120000018 cycles: 1197401444 heartbeat IPC: 0.1485 cumulative IPC: 0.1002 (Simulation time: 02 hr 10 min 41 sec)
Simulation CPU 0 critical: IPC 0.011851 < 0.02
[ERROR_CYCLE] Error added at CPU cycle 1208588186, interval 26, pending count: 1
Simulation CPU 0 panic: IPC 0.0076457 < 0.01
[DRAM_CYCLE_ERROR] Cycle-based error applied! address=0x537c69960 additional_latency=2459910500 cycles
Simulation CPU 0 panic: IPC 0 < 0.01
Simulation CPU 0 critical: IPC 0.011851 < 0.02
[ERROR_CYCLE] Error added at CPU cycle 1255072347, interval 27, pending count: 1
[DRAM_CYCLE_ERROR] Cycle-based error applied! address=0xa57202918 additional_latency=2459910500 cycles
Simulation CPU 0 panic: IPC 1.79e-05 < 0.01
Simulation CPU 0 critical: IPC 0.011833 < 0.02
Simulation CPU 0 critical: IPC 0.012378 < 0.02
[ERROR_CYCLE] Error added at CPU cycle 1301556508, interval 28, pending count: 1
[DRAM_CYCLE_ERROR] Cycle-based error applied! address=0x537c70080 additional_latency=2459910500 cycles
Simulation CPU 0 panic: IPC 0 < 0.01
Simulation CPU 0 critical: IPC 0.012571 < 0.02
Simulation CPU 0 panic: IPC 0.0036026 < 0.01
[ERROR_CYCLE] Error added at CPU cycle 1348040670, interval 29, pending count: 1
Simulation CPU 0 critical: IPC 0.011861 < 0.02
[DRAM_CYCLE_ERROR] Cycle-based error applied! address=0x537c74ae0 additional_latency=2459910500 cycles
Simulation CPU 0 panic: IPC 0 < 0.01
Simulation CPU 0 warning: IPC 0.02618 < 0.05
Simulation CPU 0 warning: IPC 0.026342 < 0.05
[ERROR_CYCLE] Error added at CPU cycle 1394524831, interval 30, pending count: 1
[DRAM_CYCLE_ERROR] Cycle-based error applied! address=0x8cd3011a8 additional_latency=2459910500 cycles
Simulation CPU 0 panic: IPC 0 < 0.01
Simulation CPU 0 warning: IPC 0.026342 < 0.05
Simulation CPU 0 warning: IPC 0.026342 < 0.05
Simulation CPU 0 warning: IPC 0.0262 < 0.05
Simulation CPU 0 warning: IPC 0.026073 < 0.05
[ERROR_CYCLE] Error added at CPU cycle 1441008992, interval 31, pending count: 1
[DRAM_CYCLE_ERROR] Cycle-based error applied! address=0x537c7b0d0 additional_latency=2459910500 cycles
Simulation CPU 0 panic: IPC 0 < 0.01
Simulation CPU 0 warning: IPC 0.026342 < 0.05
Heartbeat CPU 0 instructions: 130000019 cycles: 1467904173 heartbeat IPC: 0.03697 cumulative IPC: 0.08856 (Simulation time: 02 hr 35 min 14 sec)
Heartbeat CPU 0 instructions: 140000019 cycles: 1476916666 heartbeat IPC: 1.11 cumulative IPC: 0.09479 (Simulation time: 02 hr 36 min 20 sec)
Heartbeat CPU 0 instructions: 150000019 cycles: 1485934409 heartbeat IPC: 1.109 cumulative IPC: 0.1009 (Simulation time: 02 hr 37 min 26 sec)
[ERROR_CYCLE] Error added at CPU cycle 1487493153, interval 32, pending count: 1
[DRAM_CYCLE_ERROR] Cycle-based error applied! address=0xf002e16c0 additional_latency=2459910500 cycles
Heartbeat CPU 0 instructions: 160000020 cycles: 1504773101 heartbeat IPC: 0.5308 cumulative IPC: 0.1063 (Simulation time: 02 hr 39 min 31 sec)
Heartbeat CPU 0 instructions: 170000020 cycles: 1513786078 heartbeat IPC: 1.11 cumulative IPC: 0.1123 (Simulation time: 02 hr 40 min 39 sec)
Heartbeat CPU 0 instructions: 180000023 cycles: 1522805118 heartbeat IPC: 1.109 cumulative IPC: 0.1182 (Simulation time: 02 hr 41 min 39 sec)
Heartbeat CPU 0 instructions: 190000026 cycles: 1531829513 heartbeat IPC: 1.108 cumulative IPC: 0.124 (Simulation time: 02 hr 42 min 30 sec)
[ERROR_CYCLE] Error added at CPU cycle 1533977313, interval 33, pending count: 1
[DRAM_CYCLE_ERROR] Cycle-based error applied! address=0x537c7d090 additional_latency=2459910500 cycles
Simulation CPU 0 panic: IPC 0 < 0.01
Simulation CPU 0 critical: IPC 0.011851 < 0.02
Simulation CPU 0 critical: IPC 0.011851 < 0.02
[ERROR_CYCLE] Error added at CPU cycle 1580461474, interval 34, pending count: 1
[DRAM_CYCLE_ERROR] Cycle-based error applied! address=0x523801d48 additional_latency=2459910500 cycles
Simulation CPU 0 panic: IPC 0.0001218 < 0.01
Simulation CPU 0 panic: IPC 0.0061422 < 0.01
Simulation CPU 0 panic: IPC 0.0057881 < 0.01
[ERROR_CYCLE] Error added at CPU cycle 1626945635, interval 35, pending count: 1
[DRAM_CYCLE_ERROR] Cycle-based error applied! address=0x537c840a8 additional_latency=2459910500 cycles
Simulation CPU 0 panic: IPC 0 < 0.01
Simulation CPU 0 critical: IPC 0.012659 < 0.02
Simulation CPU 0 critical: IPC 0.011859 < 0.02
[ERROR_CYCLE] Error added at CPU cycle 1673429796, interval 36, pending count: 1
[DRAM_CYCLE_ERROR] Cycle-based error applied! address=0xaee29c4c0 additional_latency=2459910500 cycles
Simulation CPU 0 critical: IPC 0.011859 < 0.02
Simulation CPU 0 panic: IPC 0.0027398 < 0.01
[ERROR_CYCLE] Error added at CPU cycle 1719913957, interval 37, pending count: 1
Simulation CPU 0 panic: IPC 0.0091194 < 0.01
[DRAM_CYCLE_ERROR] Cycle-based error applied! address=0x90901918 additional_latency=2459910500 cycles
Simulation CPU 0 panic: IPC 0.0001122 < 0.01
Simulation CPU 0 critical: IPC 0.011859 < 0.02
Heartbeat CPU 0 instructions: 200000030 cycles: 1763616771 heartbeat IPC: 0.04314 cumulative IPC: 0.1134 (Simulation time: 03 hr 08 min 10 sec)
[ERROR_CYCLE] Error added at CPU cycle 1766398118, interval 38, pending count: 1
[DRAM_CYCLE_ERROR] Cycle-based error applied! address=0x537c900e8 additional_latency=2459910500 cycles
Simulation CPU 0 warning: IPC 0.026342 < 0.05
Simulation CPU 0 panic: IPC 0 < 0.01
Simulation CPU 0 warning: IPC 0.026308 < 0.05
Simulation CPU 0 warning: IPC 0.026035 < 0.05
Simulation CPU 0 warning: IPC 0.026273 < 0.05
[ERROR_CYCLE] Error added at CPU cycle 1812882279, interval 39, pending count: 1
[DRAM_CYCLE_ERROR] Cycle-based error applied! address=0x8962917c0 additional_latency=2459910500 cycles
Simulation CPU 0 warning: IPC 0.026342 < 0.05
Simulation CPU 0 warning: IPC 0.026342 < 0.05
Simulation CPU 0 warning: IPC 0.026342 < 0.05
Heartbeat CPU 0 instructions: 210000030 cycles: 1850049433 heartbeat IPC: 0.1157 cumulative IPC: 0.1135 (Simulation time: 03 hr 17 min 36 sec)
Heartbeat CPU 0 instructions: 220000033 cycles: 1859067904 heartbeat IPC: 1.109 cumulative IPC: 0.1183 (Simulation time: 03 hr 18 min 40 sec)
[ERROR_CYCLE] Error added at CPU cycle 1859366441, interval 40, pending count: 1
[DRAM_CYCLE_ERROR] Cycle-based error applied! address=0x8962e9b80 additional_latency=2459910500 cycles
Heartbeat CPU 0 instructions: 230000036 cycles: 1877942811 heartbeat IPC: 0.5298 cumulative IPC: 0.1225 (Simulation time: 03 hr 20 min 12 sec)
Heartbeat CPU 0 instructions: 240000039 cycles: 1886963321 heartbeat IPC: 1.109 cumulative IPC: 0.1272 (Simulation time: 03 hr 21 min 15 sec)
Heartbeat CPU 0 instructions: 250000039 cycles: 1895980666 heartbeat IPC: 1.109 cumulative IPC: 0.1319 (Simulation time: 03 hr 22 min 23 sec)
Heartbeat CPU 0 instructions: 260000039 cycles: 1904999018 heartbeat IPC: 1.109 cumulative IPC: 0.1365 (Simulation time: 03 hr 23 min 32 sec)
[ERROR_CYCLE] Error added at CPU cycle 1905850602, interval 41, pending count: 1
[DRAM_CYCLE_ERROR] Cycle-based error applied! address=0xfd6d37fc0 additional_latency=2459910500 cycles
Simulation CPU 0 critical: IPC 0.012658 < 0.02
Simulation CPU 0 critical: IPC 0.018519 < 0.02
[ERROR_CYCLE] Error added at CPU cycle 1952334763, interval 42, pending count: 1
[DRAM_CYCLE_ERROR] Cycle-based error applied! address=0x537c9ab30 additional_latency=2459910500 cycles
Simulation CPU 0 panic: IPC 0 < 0.01
Simulation CPU 0 warning: IPC 0.021989 < 0.05
Simulation CPU 0 critical: IPC 0.011859 < 0.02
[ERROR_CYCLE] Error added at CPU cycle 1998818924, interval 43, pending count: 1
[DRAM_CYCLE_ERROR] Cycle-based error applied! address=0xf6bca4a40 additional_latency=2459910500 cycles
Simulation CPU 0 critical: IPC 0.013185 < 0.02
Simulation CPU 0 warning: IPC 0.03662 < 0.05
Heartbeat CPU 0 instructions: 270000040 cycles: 2039947851 heartbeat IPC: 0.0741 cumulative IPC: 0.1324 (Simulation time: 03 hr 38 min 50 sec)
Simulation CPU 0 warning: IPC 0.0478 < 0.05
[ERROR_CYCLE] Error added at CPU cycle 2045303084, interval 44, pending count: 1
[DRAM_CYCLE_ERROR] Cycle-based error applied! address=0x537ca20f8 additional_latency=2459910500 cycles
Simulation CPU 0 warning: IPC 0.048279 < 0.05
Simulation CPU 0 panic: IPC 0.0035425 < 0.01
Simulation CPU 0 warning: IPC 0.04337 < 0.05
Simulation CPU 0 warning: IPC 0.021619 < 0.05
[ERROR_CYCLE] Error added at CPU cycle 2091787245, interval 45, pending count: 1
[DRAM_CYCLE_ERROR] Cycle-based error applied! address=0x537ca6b58 additional_latency=2459910500 cycles
Simulation CPU 0 panic: IPC 0 < 0.01
Simulation CPU 0 warning: IPC 0.040585 < 0.05
Simulation CPU 0 warning: IPC 0.046489 < 0.05
[ERROR_CYCLE] Error added at CPU cycle 2138271406, interval 46, pending count: 1
[DRAM_CYCLE_ERROR] Cycle-based error applied! address=0x8e8a00010 additional_latency=2459910500 cycles
Simulation CPU 0 warning: IPC 0.032636 < 0.05
Simulation CPU 0 critical: IPC 0.012492 < 0.02
Simulation CPU 0 warning: IPC 0.031554 < 0.05
Simulation CPU 0 warning: IPC 0.032249 < 0.05
Simulation CPU 0 warning: IPC 0.028898 < 0.05
[ERROR_CYCLE] Error added at CPU cycle 2184755567, interval 47, pending count: 1
[DRAM_CYCLE_ERROR] Cycle-based error applied! address=0x95b502920 additional_latency=2459910500 cycles
Simulation CPU 0 panic: IPC 0 < 0.01
Simulation CPU 0 warning: IPC 0.026215 < 0.05
Simulation CPU 0 warning: IPC 0.026058 < 0.05
Simulation CPU 0 warning: IPC 0.045035 < 0.05
Heartbeat CPU 0 instructions: 280000044 cycles: 2223993179 heartbeat IPC: 0.05433 cumulative IPC: 0.1259 (Simulation time: 03 hr 59 min 54 sec)
[ERROR_CYCLE] Error added at CPU cycle 2231239728, interval 48, pending count: 1
[DRAM_CYCLE_ERROR] Cycle-based error applied! address=0x8962b8440 additional_latency=2459910500 cycles
Heartbeat CPU 0 instructions: 290000047 cycles: 2242849969 heartbeat IPC: 0.5303 cumulative IPC: 0.1293 (Simulation time: 04 hr 01 min 49 sec)
Heartbeat CPU 0 instructions: 300000048 cycles: 2251871633 heartbeat IPC: 1.108 cumulative IPC: 0.1332 (Simulation time: 04 hr 02 min 43 sec)
Heartbeat CPU 0 instructions: 310000050 cycles: 2260893776 heartbeat IPC: 1.108 cumulative IPC: 0.1371 (Simulation time: 04 hr 03 min 51 sec)
Heartbeat CPU 0 instructions: 320000054 cycles: 2269904060 heartbeat IPC: 1.11 cumulative IPC: 0.141 (Simulation time: 04 hr 04 min 57 sec)
[ERROR_CYCLE] Error added at CPU cycle 2277723889, interval 49, pending count: 1
[DRAM_CYCLE_ERROR] Cycle-based error applied! address=0xf002e6ac0 additional_latency=2459910500 cycles
Heartbeat CPU 0 instructions: 330000056 cycles: 2278924634 heartbeat IPC: 1.109 cumulative IPC: 0.1448 (Simulation time: 04 hr 06 min 00 sec)
Simulation CPU 0 critical: IPC 0.011859 < 0.02
Simulation CPU 0 critical: IPC 0.011859 < 0.02
[ERROR_CYCLE] Error added at CPU cycle 2324208050, interval 50, pending count: 1
[DRAM_CYCLE_ERROR] Cycle-based error applied! address=0x353d01cc0 additional_latency=2459910500 cycles
Simulation CPU 0 panic: IPC 0.0010041 < 0.01
Heartbeat CPU 0 instructions: 340000056 cycles: 2335991670 heartbeat IPC: 0.1752 cumulative IPC: 0.1455 (Simulation time: 04 hr 12 min 18 sec)
Simulation CPU 0 critical: IPC 0.019084 < 0.02
Simulation CPU 0 critical: IPC 0.011876 < 0.02
[ERROR_CYCLE] Error added at CPU cycle 2370692212, interval 51, pending count: 1
[DRAM_CYCLE_ERROR] Cycle-based error applied! address=0x537cb7128 additional_latency=2459910500 cycles
Simulation CPU 0 panic: IPC 0 < 0.01
Simulation CPU 0 critical: IPC 0.012661 < 0.02
Simulation CPU 0 critical: IPC 0.011853 < 0.02
[ERROR_CYCLE] Error added at CPU cycle 2417176373, interval 52, pending count: 1
[DRAM_CYCLE_ERROR] Cycle-based error applied! address=0xcf8eb6280 additional_latency=2459910500 cycles
Simulation CPU 0 warning: IPC 0.037595 < 0.05
Simulation CPU 0 critical: IPC 0.011856 < 0.02
Simulation CPU 0 warning: IPC 0.022431 < 0.05
[ERROR_CYCLE] Error added at CPU cycle 2463660534, interval 53, pending count: 1
[DRAM_CYCLE_ERROR] Cycle-based error applied! address=0xb53e02028 additional_latency=2459910500 cycles
Simulation CPU 0 panic: IPC 7.9e-05 < 0.01
Simulation CPU 0 critical: IPC 0.011777 < 0.02
Simulation CPU 0 critical: IPC 0.011856 < 0.02
[ERROR_CYCLE] Error added at CPU cycle 2510144695, interval 54, pending count: 1
[DRAM_CYCLE_ERROR] Cycle-based error applied! address=0xb35161740 additional_latency=2459910500 cycles
Heartbeat CPU 0 instructions: 350000056 cycles: 2513028488 heartbeat IPC: 0.05649 cumulative IPC: 0.1393 (Simulation time: 04 hr 32 min 09 sec)
Heartbeat CPU 0 instructions: 360000056 cycles: 2523322804 heartbeat IPC: 0.9714 cumulative IPC: 0.1427 (Simulation time: 04 hr 33 min 09 sec)
Heartbeat CPU 0 instructions: 370000058 cycles: 2533625555 heartbeat IPC: 0.9706 cumulative IPC: 0.146 (Simulation time: 04 hr 34 min 21 sec)
Heartbeat CPU 0 instructions: 380000062 cycles: 2543920501 heartbeat IPC: 0.9714 cumulative IPC: 0.1494 (Simulation time: 04 hr 35 min 27 sec)
[ERROR_CYCLE] Error added at CPU cycle 2556628855, interval 55, pending count: 1
[DRAM_CYCLE_ERROR] Cycle-based error applied! address=0xf1000000 additional_latency=2459910500 cycles
Simulation CPU 0 panic: IPC 3.3e-05 < 0.01
Simulation CPU 0 critical: IPC 0.013665 < 0.02
Simulation CPU 0 critical: IPC 0.012244 < 0.02
[ERROR_CYCLE] Error added at CPU cycle 2603113016, interval 56, pending count: 1
[DRAM_CYCLE_ERROR] Cycle-based error applied! address=0x537cc69a0 additional_latency=2459910500 cycles
Simulation CPU 0 panic: IPC 0 < 0.01
Simulation CPU 0 warning: IPC 0.030838 < 0.05
Simulation CPU 0 critical: IPC 0.019211 < 0.02
Heartbeat CPU 0 instructions: 390000062 cycles: 2640761361 heartbeat IPC: 0.1033 cumulative IPC: 0.1477 (Simulation time: 04 hr 46 min 57 sec)
[ERROR_CYCLE] Error added at CPU cycle 2649597177, interval 57, pending count: 1
[DRAM_CYCLE_ERROR] Cycle-based error applied! address=0xe75101bf8 additional_latency=2459910500 cycles
Simulation CPU 0 panic: IPC 0.0005343 < 0.01
Simulation CPU 0 critical: IPC 0.011322 < 0.02
Simulation CPU 0 critical: IPC 0.011856 < 0.02
[ERROR_CYCLE] Error added at CPU cycle 2696081338, interval 58, pending count: 1
[DRAM_CYCLE_ERROR] Cycle-based error applied! address=0x537ccd178 additional_latency=2459910500 cycles
Simulation CPU 0 panic: IPC 0 < 0.01
Simulation CPU 0 critical: IPC 0.012263 < 0.02
Simulation CPU 0 warning: IPC 0.034185 < 0.05
[ERROR_CYCLE] Error added at CPU cycle 2742565499, interval 59, pending count: 1
[DRAM_CYCLE_ERROR] Cycle-based error applied! address=0x537cd1bd8 additional_latency=2459910500 cycles
Simulation CPU 0 critical: IPC 0.012667 < 0.02
Simulation CPU 0 panic: IPC 0 < 0.01
Simulation CPU 0 critical: IPC 0.011858 < 0.02
[ERROR_CYCLE] Error added at CPU cycle 2789049660, interval 60, pending count: 1
[DRAM_CYCLE_ERROR] Cycle-based error applied! address=0x97fbc1ef8 additional_latency=2459910500 cycles
Simulation CPU 0 panic: IPC 4.68e-05 < 0.01
Simulation CPU 0 panic: IPC 0.0001208 < 0.01
Simulation CPU 0 panic: IPC 1.5e-06 < 0.01
Simulation CPU 0 panic: IPC 0.0031289 < 0.01
[ERROR_CYCLE] Error added at CPU cycle 2835533821, interval 61, pending count: 1
[DRAM_CYCLE_ERROR] Cycle-based error applied! address=0x537ce70a0 additional_latency=2459910500 cycles
Simulation CPU 0 panic: IPC 0.0031304 < 0.01
Simulation CPU 0 panic: IPC 0 < 0.01
Simulation CPU 0 panic: IPC 0.0031304 < 0.01
Simulation CPU 0 panic: IPC 0.0031304 < 0.01
Simulation CPU 0 panic: IPC 0.0062608 < 0.01
[ERROR_CYCLE] Error added at CPU cycle 2882017983, interval 62, pending count: 1
[DRAM_CYCLE_ERROR] Cycle-based error applied! address=0x537cf81a0 additional_latency=2459910500 cycles
Simulation CPU 0 panic: IPC 0 < 0.01
Simulation CPU 0 panic: IPC 0.0031304 < 0.01
Simulation CPU 0 panic: IPC 0.0031304 < 0.01
Simulation CPU 0 panic: IPC 0.0031304 < 0.01
[ERROR_CYCLE] Error added at CPU cycle 2928502144, interval 63, pending count: 1
Simulation CPU 0 panic: IPC 0.0031304 < 0.01
[DRAM_CYCLE_ERROR] Cycle-based error applied! address=0xaac2082a8 additional_latency=2459910500 cycles
Simulation CPU 0 panic: IPC 0 < 0.01
Simulation CPU 0 panic: IPC 0.0031304 < 0.01
Simulation CPU 0 panic: IPC 0.0031304 < 0.01
Simulation CPU 0 panic: IPC 0.0031304 < 0.01
[ERROR_CYCLE] Error added at CPU cycle 2974986305, interval 64, pending count: 1
[DRAM_CYCLE_ERROR] Cycle-based error applied! address=0xaac218ee0 additional_latency=2459910500 cycles
Simulation CPU 0 panic: IPC 0.0031304 < 0.01
Simulation CPU 0 panic: IPC 3.7e-06 < 0.01
Simulation CPU 0 panic: IPC 0.0031267 < 0.01
Simulation CPU 0 panic: IPC 0.0031304 < 0.01
Simulation CPU 0 panic: IPC 0.0031304 < 0.01
[ERROR_CYCLE] Error added at CPU cycle 3021470466, interval 65, pending count: 1
[DRAM_CYCLE_ERROR] Cycle-based error applied! address=0xaac2284a8 additional_latency=2459910500 cycles
Simulation CPU 0 panic: IPC 0.0031304 < 0.01
Simulation CPU 0 panic: IPC 0.0031304 < 0.01
Simulation CPU 0 panic: IPC 0.0031304 < 0.01
Simulation CPU 0 panic: IPC 0.0031304 < 0.01
[ERROR_CYCLE] Error added at CPU cycle 3067954626, interval 66, pending count: 1
Simulation CPU 0 panic: IPC 0.0031304 < 0.01
[DRAM_CYCLE_ERROR] Cycle-based error applied! address=0xaac2385a8 additional_latency=2459910500 cycles
Simulation CPU 0 panic: IPC 0 < 0.01
Simulation CPU 0 panic: IPC 0.0031304 < 0.01
Simulation CPU 0 panic: IPC 0.0031304 < 0.01
Simulation CPU 0 panic: IPC 0.0031304 < 0.01
[ERROR_CYCLE] Error added at CPU cycle 3114438787, interval 67, pending count: 1
[DRAM_CYCLE_ERROR] Cycle-based error applied! address=0x247b32f00 additional_latency=2459910500 cycles
Simulation CPU 0 panic: IPC 6.1e-06 < 0.01
Simulation CPU 0 panic: IPC 0.0031243 < 0.01
Simulation CPU 0 panic: IPC 0.0031304 < 0.01
Simulation CPU 0 panic: IPC 0.0031304 < 0.01
Simulation CPU 0 panic: IPC 0.0031304 < 0.01
[ERROR_CYCLE] Error added at CPU cycle 3160922948, interval 68, pending count: 1
[DRAM_CYCLE_ERROR] Cycle-based error applied! address=0xaac255770 additional_latency=2459910500 cycles
Simulation CPU 0 panic: IPC 0 < 0.01
Simulation CPU 0 panic: IPC 0.0031304 < 0.01
Simulation CPU 0 panic: IPC 0.0031304 < 0.01
Simulation CPU 0 panic: IPC 0.0031304 < 0.01
[ERROR_CYCLE] Error added at CPU cycle 3207407109, interval 69, pending count: 1
[DRAM_CYCLE_ERROR] Cycle-based error applied! address=0xaac265870 additional_latency=2459910500 cycles
Simulation CPU 0 panic: IPC 0.0031304 < 0.01
Simulation CPU 0 panic: IPC 0 < 0.01
Simulation CPU 0 panic: IPC 0.0031304 < 0.01
Simulation CPU 0 panic: IPC 0.0031304 < 0.01
Simulation CPU 0 panic: IPC 0.0031304 < 0.01
[ERROR_CYCLE] Error added at CPU cycle 3253891270, interval 70, pending count: 1
[DRAM_CYCLE_ERROR] Cycle-based error applied! address=0xaac275978 additional_latency=2459910500 cycles
Simulation CPU 0 panic: IPC 0.0031304 < 0.01
Simulation CPU 0 panic: IPC 0.0031304 < 0.01
Simulation CPU 0 warning: IPC 0.041392 < 0.05
Simulation CPU 0 panic: IPC 0.0039007 < 0.01
Simulation CPU 0 panic: IPC 0 < 0.01
[ERROR_CYCLE] Error added at CPU cycle 3300375431, interval 71, pending count: 1
[DRAM_CYCLE_ERROR] Cycle-based error applied! address=0x6952c3648 additional_latency=2459910500 cycles
Simulation CPU 0 panic: IPC 0 < 0.01
Simulation CPU 0 panic: IPC 4.09e-05 < 0.01
Simulation CPU 0 panic: IPC 4.09e-05 < 0.01
Simulation CPU 0 panic: IPC 8.18e-05 < 0.01
[ERROR_CYCLE] Error added at CPU cycle 3346859592, interval 72, pending count: 1
[DRAM_CYCLE_ERROR] Cycle-based error applied! address=0x42517b408 additional_latency=2459910500 cycles
Simulation CPU 0 panic: IPC 0 < 0.01
Simulation CPU 0 panic: IPC 4.09e-05 < 0.01
Simulation CPU 0 panic: IPC 4.09e-05 < 0.01
Simulation CPU 0 panic: IPC 4.09e-05 < 0.01
Simulation CPU 0 panic: IPC 4.09e-05 < 0.01
[ERROR_CYCLE] Error added at CPU cycle 3393343754, interval 73, pending count: 1
[DRAM_CYCLE_ERROR] Cycle-based error applied! address=0xadc4331c8 additional_latency=2459910500 cycles
Simulation CPU 0 panic: IPC 0 < 0.01
Simulation CPU 0 panic: IPC 4.09e-05 < 0.01
Simulation CPU 0 panic: IPC 4.09e-05 < 0.01
Simulation CPU 0 panic: IPC 4.09e-05 < 0.01
[ERROR_CYCLE] Error added at CPU cycle 3439827915, interval 74, pending count: 1
Simulation CPU 0 panic: IPC 4.09e-05 < 0.01
[DRAM_CYCLE_ERROR] Cycle-based error applied! address=0xb184eaf88 additional_latency=2459910500 cycles
Simulation CPU 0 panic: IPC 0 < 0.01
Simulation CPU 0 panic: IPC 4.09e-05 < 0.01
Simulation CPU 0 panic: IPC 4.09e-05 < 0.01
Simulation CPU 0 panic: IPC 4.09e-05 < 0.01
[ERROR_CYCLE] Error added at CPU cycle 3486312076, interval 75, pending count: 1
[DRAM_CYCLE_ERROR] Cycle-based error applied! address=0xd67a2d48 additional_latency=2459910500 cycles
Simulation CPU 0 panic: IPC 4.09e-05 < 0.01
Simulation CPU 0 panic: IPC 4.09e-05 < 0.01
Simulation CPU 0 panic: IPC 4.09e-05 < 0.01
Simulation CPU 0 panic: IPC 4.09e-05 < 0.01
Simulation CPU 0 panic: IPC 4.09e-05 < 0.01
[ERROR_CYCLE] Error added at CPU cycle 3532796237, interval 76, pending count: 1
[DRAM_CYCLE_ERROR] Cycle-based error applied! address=0x2a235ab08 additional_latency=2459910500 cycles
Simulation CPU 0 panic: IPC 0 < 0.01
Simulation CPU 0 panic: IPC 4.09e-05 < 0.01
Simulation CPU 0 panic: IPC 4.09e-05 < 0.01
Simulation CPU 0 panic: IPC 4.09e-05 < 0.01
[ERROR_CYCLE] Error added at CPU cycle 3579280397, interval 77, pending count: 1
Simulation CPU 0 panic: IPC 4.09e-05 < 0.01
[DRAM_CYCLE_ERROR] Cycle-based error applied! address=0x63dd00838 additional_latency=2459910500 cycles
Simulation CPU 0 panic: IPC 2.9e-06 < 0.01
Simulation CPU 0 panic: IPC 3.8e-05 < 0.01
Simulation CPU 0 panic: IPC 4.09e-05 < 0.01
Simulation CPU 0 panic: IPC 4.09e-05 < 0.01
[ERROR_CYCLE] Error added at CPU cycle 3625764558, interval 78, pending count: 1
[DRAM_CYCLE_ERROR] Cycle-based error applied! address=0xd2a8ca688 additional_latency=2459910500 cycles
Simulation CPU 0 panic: IPC 4.09e-05 < 0.01
Simulation CPU 0 panic: IPC 4.09e-05 < 0.01
Simulation CPU 0 panic: IPC 4.09e-05 < 0.01
Simulation CPU 0 panic: IPC 4.09e-05 < 0.01
Simulation CPU 0 panic: IPC 4.09e-05 < 0.01
[ERROR_CYCLE] Error added at CPU cycle 3672248719, interval 79, pending count: 1
[DRAM_CYCLE_ERROR] Cycle-based error applied! address=0x71682448 additional_latency=2459910500 cycles
Simulation CPU 0 panic: IPC 0 < 0.01
Simulation CPU 0 panic: IPC 4.09e-05 < 0.01
Simulation CPU 0 panic: IPC 4.09e-05 < 0.01
Simulation CPU 0 panic: IPC 4.09e-05 < 0.01
[ERROR_CYCLE] Error added at CPU cycle 3718732880, interval 80, pending count: 1
[DRAM_CYCLE_ERROR] Cycle-based error applied! address=0xaac2e7d28 additional_latency=2459910500 cycles
Simulation CPU 0 panic: IPC 4.09e-05 < 0.01
Simulation CPU 0 panic: IPC 0 < 0.01
Simulation CPU 0 panic: IPC 4.09e-05 < 0.01
Simulation CPU 0 panic: IPC 4.09e-05 < 0.01
Simulation CPU 0 panic: IPC 4.09e-05 < 0.01
Heartbeat CPU 0 instructions: 400000062 cycles: 3762680884 heartbeat IPC: 0.008913 cumulative IPC: 0.1063 (Simulation time: 06 hr 51 min 46 sec)
[ERROR_CYCLE] Error added at CPU cycle 3765217041, interval 81, pending count: 1
[DRAM_CYCLE_ERROR] Cycle-based error applied! address=0xe62295180 additional_latency=2459910500 cycles
Simulation CPU 0 warning: IPC 0.032731 < 0.05
[ERROR_CYCLE] Error added at CPU cycle 3811701202, interval 82, pending count: 1
[DRAM_CYCLE_ERROR] Cycle-based error applied! address=0xbab801048 additional_latency=2459910500 cycles
Simulation CPU 0 panic: IPC 0 < 0.01
Simulation CPU 0 panic: IPC 3.8e-05 < 0.01
Heartbeat CPU 0 instructions: 410000062 cycles: 3835322685 heartbeat IPC: 0.1377 cumulative IPC: 0.1069 (Simulation time: 06 hr 59 min 24 sec)
[ERROR_CYCLE] Error added at CPU cycle 3858185363, interval 83, pending count: 1
[DRAM_CYCLE_ERROR] Cycle-based error applied! address=0x340500000 additional_latency=2459910500 cycles
Simulation CPU 0 panic: IPC 0 < 0.01
Simulation CPU 0 warning: IPC 0.034305 < 0.05
Heartbeat CPU 0 instructions: 420000064 cycles: 3879997760 heartbeat IPC: 0.2238 cumulative IPC: 0.1082 (Simulation time: 07 hr 04 min 22 sec)
[ERROR_CYCLE] Error added at CPU cycle 3904669525, interval 84, pending count: 1
[DRAM_CYCLE_ERROR] Cycle-based error applied! address=0xaac2fb290 additional_latency=2459910500 cycles
Simulation CPU 0 panic: IPC 0 < 0.01
Simulation CPU 0 warning: IPC 0.045619 < 0.05
Simulation CPU 0 warning: IPC 0.026382 < 0.05
Heartbeat CPU 0 instructions: 430000067 cycles: 3944564960 heartbeat IPC: 0.1549 cumulative IPC: 0.109 (Simulation time: 07 hr 11 min 54 sec)
[ERROR_CYCLE] Error added at CPU cycle 3951153686, interval 85, pending count: 1
[DRAM_CYCLE_ERROR] Cycle-based error applied! address=0x2e2e025c8 additional_latency=2459910500 cycles
Simulation CPU 0 panic: IPC 0 < 0.01
Simulation CPU 0 panic: IPC 9.6e-06 < 0.01
[ERROR_CYCLE] Error added at CPU cycle 3997637847, interval 86, pending count: 1
[DRAM_CYCLE_ERROR] Cycle-based error applied! address=0x3c2b02e18 additional_latency=2459910500 cycles
Simulation CPU 0 critical: IPC 0.01132 < 0.02
Simulation CPU 0 panic: IPC 0 < 0.01
Simulation CPU 0 panic: IPC 9.6e-06 < 0.01
Simulation CPU 0 critical: IPC 0.011756 < 0.02
[ERROR_CYCLE] Error added at CPU cycle 4044122008, interval 87, pending count: 1
[DRAM_CYCLE_ERROR] Cycle-based error applied! address=0x3c2b06570 additional_latency=2459910500 cycles
Simulation CPU 0 warning: IPC 0.034433 < 0.05
Simulation CPU 0 panic: IPC 0 < 0.01
Simulation CPU 0 warning: IPC 0.045832 < 0.05
Simulation CPU 0 critical: IPC 0.012519 < 0.02
[ERROR_CYCLE] Error added at CPU cycle 4090606168, interval 88, pending count: 1
[DRAM_CYCLE_ERROR] Cycle-based error applied! address=0x536901fb8 additional_latency=2459910500 cycles
Simulation CPU 0 panic: IPC 0 < 0.01
Heartbeat CPU 0 instructions: 440000067 cycles: 4103673641 heartbeat IPC: 0.06285 cumulative IPC: 0.1072 (Simulation time: 07 hr 29 min 14 sec)
Simulation CPU 0 critical: IPC 0.012519 < 0.02
[ERROR_CYCLE] Error added at CPU cycle 4137090329, interval 89, pending count: 1
[DRAM_CYCLE_ERROR] Cycle-based error applied! address=0xbeee41cc0 additional_latency=2459910500 cycles
Simulation CPU 0 panic: IPC 9.6e-06 < 0.01
[ERROR_CYCLE] Error added at CPU cycle 4183574490, interval 90, pending count: 1
[DRAM_CYCLE_ERROR] Cycle-based error applied! address=0x9e0a008c8 additional_latency=2459910500 cycles
Simulation CPU 0 panic: IPC 0 < 0.01
Heartbeat CPU 0 instructions: 450000067 cycles: 4196531002 heartbeat IPC: 0.1077 cumulative IPC: 0.1072 (Simulation time: 07 hr 38 min 20 sec)
Simulation CPU 0 panic: IPC 0.000352 < 0.01
Simulation CPU 0 warning: IPC 0.032841 < 0.05
[ERROR_CYCLE] Error added at CPU cycle 4230058651, interval 91, pending count: 1
[DRAM_CYCLE_ERROR] Cycle-based error applied! address=0x3c2b14530 additional_latency=2459910500 cycles
Simulation CPU 0 panic: IPC 0 < 0.01
Simulation CPU 0 panic: IPC 9.6e-06 < 0.01
[ERROR_CYCLE] Error added at CPU cycle 4276542812, interval 92, pending count: 1
[DRAM_CYCLE_ERROR] Cycle-based error applied! address=0x4ce801c78 additional_latency=2459910500 cycles
Simulation CPU 0 panic: IPC 0 < 0.01
Simulation CPU 0 warning: IPC 0.034415 < 0.05
Heartbeat CPU 0 instructions: 460000069 cycles: 4307904960 heartbeat IPC: 0.08979 cumulative IPC: 0.1068 (Simulation time: 07 hr 50 min 19 sec)
[ERROR_CYCLE] Error added at CPU cycle 4323026973, interval 93, pending count: 1
[DRAM_CYCLE_ERROR] Cycle-based error applied! address=0x3c2b1b2f0 additional_latency=2459910500 cycles
Simulation CPU 0 panic: IPC 0 < 0.01
Simulation CPU 0 warning: IPC 0.04551 < 0.05
[ERROR_CYCLE] Error added at CPU cycle 4369511134, interval 94, pending count: 1
Simulation CPU 0 warning: IPC 0.026491 < 0.05
[DRAM_CYCLE_ERROR] Cycle-based error applied! address=0x987202c98 additional_latency=2459910500 cycles
Simulation CPU 0 panic: IPC 0 < 0.01
Heartbeat CPU 0 instructions: 470000073 cycles: 4382314695 heartbeat IPC: 0.1344 cumulative IPC: 0.1072 (Simulation time: 07 hr 58 min 43 sec)
Simulation CPU 0 warning: IPC 0.045492 < 0.05
[ERROR_CYCLE] Error added at CPU cycle 4415995296, interval 95, pending count: 1
[DRAM_CYCLE_ERROR] Cycle-based error applied! address=0x3c2b22f30 additional_latency=2459910500 cycles
Simulation CPU 0 panic: IPC 9.6e-06 < 0.01
Simulation CPU 0 panic: IPC 0 < 0.01
Simulation CPU 0 panic: IPC 9.6e-06 < 0.01
[ERROR_CYCLE] Error added at CPU cycle 4462479457, interval 96, pending count: 1
[DRAM_CYCLE_ERROR] Cycle-based error applied! address=0x3c2b26ba0 additional_latency=2459910500 cycles
Simulation CPU 0 critical: IPC 0.011866 < 0.02
Simulation CPU 0 panic: IPC 0 < 0.01
Simulation CPU 0 warning: IPC 0.034433 < 0.05
[ERROR_CYCLE] Error added at CPU cycle 4508963618, interval 97, pending count: 1
[DRAM_CYCLE_ERROR] Cycle-based error applied! address=0xdcb700000 additional_latency=2459910500 cycles
Simulation CPU 0 panic: IPC 0 < 0.01
Heartbeat CPU 0 instructions: 480000074 cycles: 4531315232 heartbeat IPC: 0.06711 cumulative IPC: 0.1059 (Simulation time: 08 hr 13 min 44 sec)
Simulation CPU 0 critical: IPC 0.012519 < 0.02
[ERROR_CYCLE] Error added at CPU cycle 4555447779, interval 98, pending count: 1
[DRAM_CYCLE_ERROR] Cycle-based error applied! address=0x3c2b2d1d0 additional_latency=2459910500 cycles
Simulation CPU 0 panic: IPC 0 < 0.01
Simulation CPU 0 critical: IPC 0.012519 < 0.02
[ERROR_CYCLE] Error added at CPU cycle 4601931939, interval 99, pending count: 1
[DRAM_CYCLE_ERROR] Cycle-based error applied! address=0xd3a800000 additional_latency=2459910500 cycles
Simulation CPU 0 panic: IPC 0 < 0.01
Heartbeat CPU 0 instructions: 490000074 cycles: 4633673899 heartbeat IPC: 0.0977 cumulative IPC: 0.1057 (Simulation time: 08 hr 24 min 56 sec)
[ERROR_CYCLE] Error added at CPU cycle 4648416100, interval 100, pending count: 1
Simulation CPU 0 panic: IPC 9.6e-06 < 0.01
[DRAM_CYCLE_ERROR] Cycle-based error applied! address=0xd3a200958 additional_latency=2459910500 cycles
Simulation CPU 0 panic: IPC 0 < 0.01
Simulation CPU 0 warning: IPC 0.032951 < 0.05
[ERROR_CYCLE] Error added at CPU cycle 4694900261, interval 101, pending count: 1
[DRAM_CYCLE_ERROR] Cycle-based error applied! address=0x3c2b38d58 additional_latency=2459910500 cycles
Simulation CPU 0 warning: IPC 0.048571 < 0.05
Simulation CPU 0 panic: IPC 0 < 0.01
Simulation CPU 0 panic: IPC 9.6e-06 < 0.01
[ERROR_CYCLE] Error added at CPU cycle 4741384422, interval 102, pending count: 1
[DRAM_CYCLE_ERROR] Cycle-based error applied! address=0xb88800078 additional_latency=2459910500 cycles
Simulation CPU 0 panic: IPC 0 < 0.01
Simulation CPU 0 warning: IPC 0.034433 < 0.05
Heartbeat CPU 0 instructions: 500000076 cycles: 4773278044 heartbeat IPC: 0.07163 cumulative IPC: 0.1047 (Simulation time: 08 hr 40 min 23 sec)
[ERROR_CYCLE] Error added at CPU cycle 4787868583, interval 103, pending count: 1
[DRAM_CYCLE_ERROR] Cycle-based error applied! address=0x3c2b3f270 additional_latency=2459910500 cycles
Simulation CPU 0 panic: IPC 0 < 0.01
Simulation CPU 0 warning: IPC 0.0454 < 0.05
Simulation CPU 0 warning: IPC 0.026601 < 0.05
[ERROR_CYCLE] Error added at CPU cycle 4834352744, interval 104, pending count: 1
[DRAM_CYCLE_ERROR] Cycle-based error applied! address=0xffba02d28 additional_latency=2459910500 cycles
Simulation CPU 0 panic: IPC 0 < 0.01
Heartbeat CPU 0 instructions: 510000079 cycles: 4847682509 heartbeat IPC: 0.1344 cumulative IPC: 0.1052 (Simulation time: 08 hr 48 min 53 sec)
Simulation CPU 0 panic: IPC 9.6e-06 < 0.01
[ERROR_CYCLE] Error added at CPU cycle 4880836905, interval 105, pending count: 1
[DRAM_CYCLE_ERROR] Cycle-based error applied! address=0x3c2b46eb0 additional_latency=2459910500 cycles
Simulation CPU 0 panic: IPC 0 < 0.01
Simulation CPU 0 panic: IPC 9.6e-06 < 0.01
[ERROR_CYCLE] Error added at CPU cycle 4927321067, interval 106, pending count: 1
Simulation CPU 0 critical: IPC 0.011976 < 0.02
[DRAM_CYCLE_ERROR] Cycle-based error applied! address=0x3c2b4ab20 additional_latency=2459910500 cycles
Simulation CPU 0 panic: IPC 0 < 0.01
Simulation CPU 0 warning: IPC 0.034433 < 0.05
Simulation CPU 0 warning: IPC 0.045613 < 0.05
[ERROR_CYCLE] Error added at CPU cycle 4973805228, interval 107, pending count: 1
[DRAM_CYCLE_ERROR] Cycle-based error applied! address=0x3a8700000 additional_latency=2459910500 cycles
Simulation CPU 0 panic: IPC 0 < 0.01
Heartbeat CPU 0 instructions: 520000083 cycles: 4987384989 heartbeat IPC: 0.07158 cumulative IPC: 0.1043 (Simulation time: 09 hr 04 min 16 sec)
Simulation CPU 0 critical: IPC 0.012519 < 0.02
[ERROR_CYCLE] Error added at CPU cycle 5020289389, interval 108, pending count: 1
[DRAM_CYCLE_ERROR] Cycle-based error applied! address=0x3c2b512f0 additional_latency=2459910500 cycles
Simulation CPU 0 panic: IPC 0.0090203 < 0.01
Simulation CPU 0 critical: IPC 0.012519 < 0.02
[ERROR_CYCLE] Error added at CPU cycle 5066773550, interval 109, pending count: 1
[DRAM_CYCLE_ERROR] Cycle-based error applied! address=0x798a01848 additional_latency=2459910500 cycles
Simulation CPU 0 panic: IPC 0 < 0.01
Heartbeat CPU 0 instructions: 530000087 cycles: 5080499331 heartbeat IPC: 0.1074 cumulative IPC: 0.1043 (Simulation time: 09 hr 14 min 28 sec)
Simulation CPU 0 warning: IPC 0.048006 < 0.05
[ERROR_CYCLE] Error added at CPU cycle 5113257710, interval 110, pending count: 1
[DRAM_CYCLE_ERROR] Cycle-based error applied! address=0x3c2b58ae0 additional_latency=2459910500 cycles
Simulation CPU 0 panic: IPC 0 < 0.01
Simulation CPU 0 warning: IPC 0.033061 < 0.05
[ERROR_CYCLE] Error added at CPU cycle 5159741871, interval 111, pending count: 1
[DRAM_CYCLE_ERROR] Cycle-based error applied! address=0x3c2b5c1f8 additional_latency=2459910500 cycles
Simulation CPU 0 panic: IPC 0 < 0.01
[ERROR_CYCLE] Error added at CPU cycle 5206226032, interval 112, pending count: 1
[DRAM_CYCLE_ERROR] Cycle-based error applied! address=0xcbdd01740 additional_latency=2459910500 cycles
Simulation CPU 0 warning: IPC 0.034439 < 0.05
Heartbeat CPU 0 instructions: 540000087 cycles: 5229409631 heartbeat IPC: 0.06715 cumulative IPC: 0.1033 (Simulation time: 09 hr 31 min 43 sec)
[ERROR_CYCLE] Error added at CPU cycle 5252710193, interval 113, pending count: 1
[DRAM_CYCLE_ERROR] Cycle-based error applied! address=0x3c2b63f28 additional_latency=2459910500 cycles
Simulation CPU 0 warning: IPC 0.025137 < 0.05
Simulation CPU 0 warning: IPC 0.032639 < 0.05
[ERROR_CYCLE] Error added at CPU cycle 5299194354, interval 114, pending count: 1
Simulation CPU 0 warning: IPC 0.026711 < 0.05
[DRAM_CYCLE_ERROR] Cycle-based error applied! address=0x967f02db8 additional_latency=2459910500 cycles
Simulation CPU 0 panic: IPC 0 < 0.01
Heartbeat CPU 0 instructions: 550000089 cycles: 5313050087 heartbeat IPC: 0.1196 cumulative IPC: 0.1035 (Simulation time: 09 hr 41 min 07 sec)
[ERROR_CYCLE] Error added at CPU cycle 5345678515, interval 115, pending count: 1
[DRAM_CYCLE_ERROR] Cycle-based error applied! address=0x3c2b6ae30 additional_latency=2459910500 cycles
Simulation CPU 0 panic: IPC 9.6e-06 < 0.01
Simulation CPU 0 panic: IPC 0 < 0.01
Simulation CPU 0 panic: IPC 9.6e-06 < 0.01
[ERROR_CYCLE] Error added at CPU cycle 5392162676, interval 116, pending count: 1
[DRAM_CYCLE_ERROR] Cycle-based error applied! address=0xa01300000 additional_latency=2459910500 cycles
Simulation CPU 0 panic: IPC 0 < 0.01
Simulation CPU 0 critical: IPC 0.012086 < 0.02
Simulation CPU 0 warning: IPC 0.034433 < 0.05
Simulation CPU 0 warning: IPC 0.045503 < 0.05
[ERROR_CYCLE] Error added at CPU cycle 5438646838, interval 117, pending count: 1
[DRAM_CYCLE_ERROR] Cycle-based error applied! address=0x4cb700000 additional_latency=2459910500 cycles
Simulation CPU 0 panic: IPC 0 < 0.01
Simulation CPU 0 panic: IPC 9.6e-06 < 0.01
Heartbeat CPU 0 instructions: 560000093 cycles: 5461975024 heartbeat IPC: 0.06715 cumulative IPC: 0.1025 (Simulation time: 09 hr 56 min 36 sec)
Simulation CPU 0 critical: IPC 0.012519 < 0.02
[ERROR_CYCLE] Error added at CPU cycle 5485130999, interval 118, pending count: 1
[DRAM_CYCLE_ERROR] Cycle-based error applied! address=0x3c2b750d0 additional_latency=2459910500 cycles
Simulation CPU 0 panic: IPC 0 < 0.01
Simulation CPU 0 critical: IPC 0.012519 < 0.02
[ERROR_CYCLE] Error added at CPU cycle 5531615160, interval 119, pending count: 1
[DRAM_CYCLE_ERROR] Cycle-based error applied! address=0x460b007a8 additional_latency=2459910500 cycles
Simulation CPU 0 panic: IPC 0 < 0.01
Heartbeat CPU 0 instructions: 570000097 cycles: 5545668876 heartbeat IPC: 0.1195 cumulative IPC: 0.1028 (Simulation time: 10 hr 05 min 23 sec)
Simulation CPU 0 panic: IPC 9.6e-06 < 0.01
[ERROR_CYCLE] Error added at CPU cycle 5578099321, interval 120, pending count: 1
[DRAM_CYCLE_ERROR] Cycle-based error applied! address=0x3c2b7ca60 additional_latency=2459910500 cycles
Simulation CPU 0 panic: IPC 0 < 0.01
Simulation CPU 0 warning: IPC 0.03317 < 0.05
[ERROR_CYCLE] Error added at CPU cycle 5624583481, interval 121, pending count: 1
[DRAM_CYCLE_ERROR] Cycle-based error applied! address=0xe91101288 additional_latency=2459910500 cycles
Simulation CPU 0 panic: IPC 0 < 0.01
Simulation CPU 0 panic: IPC 9.6e-06 < 0.01
Simulation CPU 0 warning: IPC 0.034433 < 0.05
[ERROR_CYCLE] Error added at CPU cycle 5671067642, interval 122, pending count: 1
[DRAM_CYCLE_ERROR] Cycle-based error applied! address=0x3935017c8 additional_latency=2459910500 cycles
Simulation CPU 0 panic: IPC 0 < 0.01
Heartbeat CPU 0 instructions: 580000100 cycles: 5685635390 heartbeat IPC: 0.07145 cumulative IPC: 0.102 (Simulation time: 10 hr 20 min 13 sec)
Simulation CPU 0 panic: IPC 9.6e-06 < 0.01
[ERROR_CYCLE] Error added at CPU cycle 5717551803, interval 123, pending count: 1
Simulation CPU 0 warning: IPC 0.025247 < 0.05
[DRAM_CYCLE_ERROR] Cycle-based error applied! address=0x3c2b87ea8 additional_latency=2459910500 cycles
Simulation CPU 0 panic: IPC 0 < 0.01
[ERROR_CYCLE] Error added at CPU cycle 5764035964, interval 124, pending count: 1
[DRAM_CYCLE_ERROR] Cycle-based error applied! address=0x1c2500000 additional_latency=2459910500 cycles
Simulation CPU 0 panic: IPC 0 < 0.01
Simulation CPU 0 warning: IPC 0.026821 < 0.05
Heartbeat CPU 0 instructions: 590000101 cycles: 5787621009 heartbeat IPC: 0.09805 cumulative IPC: 0.1019 (Simulation time: 10 hr 32 min 40 sec)
[ERROR_CYCLE] Error added at CPU cycle 5810520125, interval 125, pending count: 1
[DRAM_CYCLE_ERROR] Cycle-based error applied! address=0x3c2b8e890 additional_latency=2459910500 cycles
Simulation CPU 0 panic: IPC 0 < 0.01
Simulation CPU 0 panic: IPC 9.6e-06 < 0.01
Simulation CPU 0 warning: IPC 0.029887 < 0.05
[ERROR_CYCLE] Error added at CPU cycle 5857004286, interval 126, pending count: 1
[DRAM_CYCLE_ERROR] Cycle-based error applied! address=0xa46500000 additional_latency=2459910500 cycles
Simulation CPU 0 panic: IPC 0 < 0.01
Simulation CPU 0 panic: IPC 9.6e-06 < 0.01
Simulation CPU 0 warning: IPC 0.034433 < 0.05
Simulation CPU 0 warning: IPC 0.045393 < 0.05
[ERROR_CYCLE] Error added at CPU cycle 5903488448, interval 127, pending count: 1
[DRAM_CYCLE_ERROR] Cycle-based error applied! address=0x878f00000 additional_latency=2459910500 cycles
Simulation CPU 0 panic: IPC 0 < 0.01
Simulation CPU 0 panic: IPC 9.6e-06 < 0.01
Heartbeat CPU 0 instructions: 600000105 cycles: 5936535608 heartbeat IPC: 0.06715 cumulative IPC: 0.1011 (Simulation time: 10 hr 49 min 40 sec)
[ERROR_CYCLE] Error added at CPU cycle 5949972609, interval 128, pending count: 1
Simulation CPU 0 critical: IPC 0.012519 < 0.02
[DRAM_CYCLE_ERROR] Cycle-based error applied! address=0x3c2b99da8 additional_latency=2459910500 cycles
Simulation CPU 0 panic: IPC 0 < 0.01
Heartbeat CPU 0 instructions: 610000107 cycles: 5971786550 heartbeat IPC: 0.2837 cumulative IPC: 0.1021 (Simulation time: 10 hr 54 min 19 sec)
[ERROR_CYCLE] Error added at CPU cycle 5996456770, interval 129, pending count: 1
[DRAM_CYCLE_ERROR] Cycle-based error applied! address=0x3c2b9c130 additional_latency=2459910500 cycles
Simulation CPU 0 critical: IPC 0.012519 < 0.02
Simulation CPU 0 panic: IPC 0 < 0.01
Heartbeat CPU 0 instructions: 620000108 cycles: 6016065218 heartbeat IPC: 0.2258 cumulative IPC: 0.1031 (Simulation time: 10 hr 59 min 58 sec)
Simulation CPU 0 panic: IPC 3.8e-05 < 0.01
[ERROR_CYCLE] Error added at CPU cycle 6042940931, interval 130, pending count: 1
[DRAM_CYCLE_ERROR] Cycle-based error applied! address=0xc96d00b08 additional_latency=2459910500 cycles
Simulation CPU 0 panic: IPC 0 < 0.01
Heartbeat CPU 0 instructions: 630000109 cycles: 6060333275 heartbeat IPC: 0.2259 cumulative IPC: 0.104 (Simulation time: 11 hr 05 min 40 sec)
Simulation CPU 0 warning: IPC 0.03328 < 0.05
[ERROR_CYCLE] Error added at CPU cycle 6089425092, interval 131, pending count: 1
[DRAM_CYCLE_ERROR] Cycle-based error applied! address=0xe39202178 additional_latency=2459910500 cycles
Simulation CPU 0 panic: IPC 0 < 0.01
Heartbeat CPU 0 instructions: 640000109 cycles: 6123081143 heartbeat IPC: 0.1594 cumulative IPC: 0.1045 (Simulation time: 11 hr 13 min 27 sec)
[ERROR_CYCLE] Error added at CPU cycle 6135909252, interval 132, pending count: 1
[DRAM_CYCLE_ERROR] Cycle-based error applied! address=0x3c2ba66b8 additional_latency=2459910500 cycles
Simulation CPU 0 warning: IPC 0.034433 < 0.05
Simulation CPU 0 panic: IPC 0 < 0.01
Simulation CPU 0 panic: IPC 4e-05 < 0.01
Heartbeat CPU 0 instructions: 650000113 cycles: 6176412740 heartbeat IPC: 0.1875 cumulative IPC: 0.1052 (Simulation time: 11 hr 19 min 28 sec)
[ERROR_CYCLE] Error added at CPU cycle 6182393413, interval 133, pending count: 1
[DRAM_CYCLE_ERROR] Cycle-based error applied! address=0x3c2ba9010 additional_latency=2459910500 cycles
Simulation CPU 0 panic: IPC 0 < 0.01
Simulation CPU 0 warning: IPC 0.025357 < 0.05
Heartbeat CPU 0 instructions: 660000113 cycles: 6220459196 heartbeat IPC: 0.227 cumulative IPC: 0.1061 (Simulation time: 11 hr 24 min 26 sec)
[ERROR_CYCLE] Error added at CPU cycle 6228877574, interval 134, pending count: 1
[DRAM_CYCLE_ERROR] Cycle-based error applied! address=0x1f2e00000 additional_latency=2459910500 cycles
Simulation CPU 0 panic: IPC 0 < 0.01
Simulation CPU 0 warning: IPC 0.026931 < 0.05
Heartbeat CPU 0 instructions: 670000114 cycles: 6255271028 heartbeat IPC: 0.2873 cumulative IPC: 0.1071 (Simulation time: 11 hr 27 min 43 sec)
[ERROR_CYCLE] Error added at CPU cycle 6275361735, interval 135, pending count: 1
[DRAM_CYCLE_ERROR] Cycle-based error applied! address=0xed89001a8 additional_latency=2459910500 cycles
Simulation CPU 0 panic: IPC 0 < 0.01
Simulation CPU 0 panic: IPC 9.6e-06 < 0.01
Simulation CPU 0 panic: IPC 9.6e-06 < 0.01
[ERROR_CYCLE] Error added at CPU cycle 6321845896, interval 136, pending count: 1
[DRAM_CYCLE_ERROR] Cycle-based error applied! address=0x3c2bb30b8 additional_latency=2459910500 cycles
Simulation CPU 0 panic: IPC 0 < 0.01
Heartbeat CPU 0 instructions: 680000114 cycles: 6346936682 heartbeat IPC: 0.1091 cumulative IPC: 0.1071 (Simulation time: 11 hr 35 min 52 sec)
[ERROR_CYCLE] Error added at CPU cycle 6368330057, interval 137, pending count: 1
Simulation CPU 0 warning: IPC 0.037686 < 0.05
[DRAM_CYCLE_ERROR] Cycle-based error applied! address=0x3c2bb7f20 additional_latency=2459910500 cycles
Simulation CPU 0 panic: IPC 0 < 0.01
Simulation CPU 0 panic: IPC 9.6e-06 < 0.01
Simulation CPU 0 critical: IPC 0.012519 < 0.02
[ERROR_CYCLE] Error added at CPU cycle 6414814219, interval 138, pending count: 1
[DRAM_CYCLE_ERROR] Cycle-based error applied! address=0xab7102288 additional_latency=2459910500 cycles
Simulation CPU 0 panic: IPC 0 < 0.01
Heartbeat CPU 0 instructions: 690000115 cycles: 6429512004 heartbeat IPC: 0.1211 cumulative IPC: 0.1073 (Simulation time: 11 hr 45 min 44 sec)
Simulation CPU 0 critical: IPC 0.012519 < 0.02
[ERROR_CYCLE] Error added at CPU cycle 6461298380, interval 139, pending count: 1
[DRAM_CYCLE_ERROR] Cycle-based error applied! address=0xe5ce43380 additional_latency=2459910500 cycles
Simulation CPU 0 critical: IPC 0.018691 < 0.02
Heartbeat CPU 0 instructions: 700000115 cycles: 6473525051 heartbeat IPC: 0.2272 cumulative IPC: 0.1081 (Simulation time: 11 hr 51 min 06 sec)
[ERROR_CYCLE] Error added at CPU cycle 6507782541, interval 140, pending count: 1
Simulation CPU 0 warning: IPC 0.045713 < 0.05
[DRAM_CYCLE_ERROR] Cycle-based error applied! address=0x3c2bc17d0 additional_latency=2459910500 cycles
Simulation CPU 0 panic: IPC 0 < 0.01
Simulation CPU 0 panic: IPC 9.6e-06 < 0.01
Heartbeat CPU 0 instructions: 710000117 cycles: 6536654659 heartbeat IPC: 0.1584 cumulative IPC: 0.1086 (Simulation time: 11 hr 57 min 28 sec)
Simulation CPU 0 warning: IPC 0.030259 < 0.05
[ERROR_CYCLE] Error added at CPU cycle 6554266702, interval 141, pending count: 1
[DRAM_CYCLE_ERROR] Cycle-based error applied! address=0xd184010d8 additional_latency=2459910500 cycles
Simulation CPU 0 panic: IPC 0 < 0.01
Simulation CPU 0 panic: IPC 9.6e-06 < 0.01
[ERROR_CYCLE] Error added at CPU cycle 6600750863, interval 142, pending count: 1
[DRAM_CYCLE_ERROR] Cycle-based error applied! address=0x3c2bc8ce8 additional_latency=2459910500 cycles
Simulation CPU 0 panic: IPC 0 < 0.01
Simulation CPU 0 warning: IPC 0.034433 < 0.05
Simulation CPU 0 panic: IPC 9.6e-06 < 0.01
[ERROR_CYCLE] Error added at CPU cycle 6647235023, interval 143, pending count: 1
[DRAM_CYCLE_ERROR] Cycle-based error applied! address=0xc308f26d0 additional_latency=2459910500 cycles
Simulation CPU 0 panic: IPC 0.0029099 < 0.01
Simulation CPU 0 warning: IPC 0.025467 < 0.05
Heartbeat CPU 0 instructions: 720000119 cycles: 6685849374 heartbeat IPC: 0.06703 cumulative IPC: 0.1077 (Simulation time: 12 hr 14 min 48 sec)
Simulation CPU 0 warning: IPC 0.034433 < 0.05
[ERROR_CYCLE] Error added at CPU cycle 6693719184, interval 144, pending count: 1
[DRAM_CYCLE_ERROR] Cycle-based error applied! address=0xf6fb020f8 additional_latency=2459910500 cycles
Simulation CPU 0 panic: IPC 0 < 0.01
Simulation CPU 0 warning: IPC 0.02704 < 0.05
Simulation CPU 0 warning: IPC 0.045527 < 0.05
[ERROR_CYCLE] Error added at CPU cycle 6740203345, interval 145, pending count: 1
[DRAM_CYCLE_ERROR] Cycle-based error applied! address=0x3c2bd3270 additional_latency=2459910500 cycles
Simulation CPU 0 panic: IPC 0 < 0.01
Simulation CPU 0 panic: IPC 9.6e-06 < 0.01
[ERROR_CYCLE] Error added at CPU cycle 6786687506, interval 146, pending count: 1
[DRAM_CYCLE_ERROR] Cycle-based error applied! address=0xa13202bf8 additional_latency=2459910500 cycles
Simulation CPU 0 panic: IPC 0 < 0.01
Heartbeat CPU 0 instructions: 730000120 cycles: 6797767827 heartbeat IPC: 0.08935 cumulative IPC: 0.1074 (Simulation time: 12 hr 27 min 56 sec)
Simulation CPU 0 panic: IPC 9.6e-06 < 0.01
[ERROR_CYCLE] Error added at CPU cycle 6833171667, interval 147, pending count: 1
[DRAM_CYCLE_ERROR] Cycle-based error applied! address=0x3c2bdaea0 additional_latency=2459910500 cycles
Simulation CPU 0 panic: IPC 0 < 0.01
Simulation CPU 0 panic: IPC 9.6e-06 < 0.01
Simulation CPU 0 critical: IPC 0.019069 < 0.02
[ERROR_CYCLE] Error added at CPU cycle 6879655828, interval 148, pending count: 1
[DRAM_CYCLE_ERROR] Cycle-based error applied! address=0x3c2bde980 additional_latency=2459910500 cycles
Simulation CPU 0 panic: IPC 0 < 0.01
Heartbeat CPU 0 instructions: 740000123 cycles: 6899891725 heartbeat IPC: 0.09792 cumulative IPC: 0.1072 (Simulation time: 12 hr 39 min 45 sec)
[ERROR_CYCLE] Error added at CPU cycle 6926139990, interval 149, pending count: 1
[DRAM_CYCLE_ERROR] Cycle-based error applied! address=0x9fe202b28 additional_latency=2459910500 cycles
Simulation CPU 0 critical: IPC 0.012519 < 0.02
Simulation CPU 0 warning: IPC 0.029264 < 0.05
[ERROR_CYCLE] Error added at CPU cycle 6972624151, interval 150, pending count: 1
[DRAM_CYCLE_ERROR] Cycle-based error applied! address=0x3c2be5c70 additional_latency=2459910500 cycles
Simulation CPU 0 panic: IPC 9.6e-06 < 0.01
Simulation CPU 0 panic: IPC 0 < 0.01
Simulation CPU 0 warning: IPC 0.020012 < 0.05
Heartbeat CPU 0 instructions: 750000124 cycles: 7002018119 heartbeat IPC: 0.09792 cumulative IPC: 0.1071 (Simulation time: 12 hr 51 min 22 sec)
[ERROR_CYCLE] Error added at CPU cycle 7019108312, interval 151, pending count: 1
[DRAM_CYCLE_ERROR] Cycle-based error applied! address=0x400702298 additional_latency=2459910500 cycles
Simulation CPU 0 panic: IPC 0 < 0.01
Simulation CPU 0 panic: IPC 9.6e-06 < 0.01
[ERROR_CYCLE] Error added at CPU cycle 7065592473, interval 152, pending count: 1
[DRAM_CYCLE_ERROR] Cycle-based error applied! address=0x3c2bec5b8 additional_latency=2459910500 cycles
Simulation CPU 0 warning: IPC 0.034433 < 0.05
Simulation CPU 0 panic: IPC 0 < 0.01
Simulation CPU 0 panic: IPC 9.6e-06 < 0.01
[ERROR_CYCLE] Error added at CPU cycle 7112076634, interval 153, pending count: 1
[DRAM_CYCLE_ERROR] Cycle-based error applied! address=0x8e8ac8c00 additional_latency=2459910500 cycles
Simulation CPU 0 panic: IPC 0.0049398 < 0.01
Heartbeat CPU 0 instructions: 760000128 cycles: 7132527340 heartbeat IPC: 0.07662 cumulative IPC: 0.1066 (Simulation time: 13 hr 06 min 20 sec)
Simulation CPU 0 warning: IPC 0.034433 < 0.05
[ERROR_CYCLE] Error added at CPU cycle 7158560794, interval 154, pending count: 1
[DRAM_CYCLE_ERROR] Cycle-based error applied! address=0x3c2bf3298 additional_latency=2459910500 cycles
Simulation CPU 0 panic: IPC 0 < 0.01
Simulation CPU 0 warning: IPC 0.02715 < 0.05
Simulation CPU 0 warning: IPC 0.045418 < 0.05
[ERROR_CYCLE] Error added at CPU cycle 7205044955, interval 155, pending count: 1
[DRAM_CYCLE_ERROR] Cycle-based error applied! address=0x483a00000 additional_latency=2459910500 cycles
Simulation CPU 0 panic: IPC 0 < 0.01
Heartbeat CPU 0 instructions: 770000130 cycles: 7225704680 heartbeat IPC: 0.1073 cumulative IPC: 0.1066 (Simulation time: 13 hr 16 min 25 sec)
Simulation CPU 0 panic: IPC 9.6e-06 < 0.01
[ERROR_CYCLE] Error added at CPU cycle 7251529116, interval 156, pending count: 1
[DRAM_CYCLE_ERROR] Cycle-based error applied! address=0x3c2bfa578 additional_latency=2459910500 cycles
Simulation CPU 0 panic: IPC 0 < 0.01
Simulation CPU 0 panic: IPC 9.6e-06 < 0.01
[ERROR_CYCLE] Error added at CPU cycle 7298013277, interval 157, pending count: 1
Simulation CPU 0 critical: IPC 0.012519 < 0.02
[DRAM_CYCLE_ERROR] Cycle-based error applied! address=0x3c2bfec28 additional_latency=2459910500 cycles
Simulation CPU 0 panic: IPC 0 < 0.01
Heartbeat CPU 0 instructions: 780000133 cycles: 7327697714 heartbeat IPC: 0.09805 cumulative IPC: 0.1064 (Simulation time: 13 hr 26 min 33 sec)
Simulation CPU 0 warning: IPC 0.028282 < 0.05
[ERROR_CYCLE] Error added at CPU cycle 7344497438, interval 158, pending count: 1
[DRAM_CYCLE_ERROR] Cycle-based error applied! address=0x6d8b02bb8 additional_latency=2459910500 cycles
Simulation CPU 0 panic: IPC 0 < 0.01
Simulation CPU 0 warning: IPC 0.046247 < 0.05
[ERROR_CYCLE] Error added at CPU cycle 7390981599, interval 159, pending count: 1
[DRAM_CYCLE_ERROR] Cycle-based error applied! address=0x8e8ae4400 additional_latency=2459910500 cycles
Heartbeat CPU 0 instructions: 790000136 cycles: 7402130233 heartbeat IPC: 0.1343 cumulative IPC: 0.1067 (Simulation time: 13 hr 35 min 32 sec)
[ERROR_CYCLE] Error added at CPU cycle 7437465761, interval 160, pending count: 1
Simulation CPU 0 panic: IPC 9.6e-06 < 0.01
[DRAM_CYCLE_ERROR] Cycle-based error applied! address=0xb257014c8 additional_latency=2459910500 cycles
Simulation CPU 0 panic: IPC 0 < 0.01
Simulation CPU 0 warning: IPC 0.034433 < 0.05
[ERROR_CYCLE] Error added at CPU cycle 7483949922, interval 161, pending count: 1
[DRAM_CYCLE_ERROR] Cycle-based error applied! address=0x94a50cde0 additional_latency=2459910500 cycles
Simulation CPU 0 panic: IPC 0 < 0.01
Simulation CPU 0 panic: IPC 9.6e-06 < 0.01
Heartbeat CPU 0 instructions: 800000136 cycles: 7513543708 heartbeat IPC: 0.08976 cumulative IPC: 0.1065 (Simulation time: 13 hr 47 min 03 sec)
Simulation CPU 0 warning: IPC 0.046882 < 0.05
[ERROR_CYCLE] Error added at CPU cycle 7530434083, interval 162, pending count: 1
[DRAM_CYCLE_ERROR] Cycle-based error applied! address=0x745900000 additional_latency=2459910500 cycles
Simulation CPU 0 panic: IPC 0 < 0.01
Simulation CPU 0 panic: IPC 0.0094627 < 0.01
Simulation CPU 0 warning: IPC 0.034433 < 0.05
[ERROR_CYCLE] Error added at CPU cycle 7576918244, interval 163, pending count: 1
[DRAM_CYCLE_ERROR] Cycle-based error applied! address=0x94a513218 additional_latency=2459910500 cycles
Simulation CPU 0 panic: IPC 0 < 0.01
Simulation CPU 0 critical: IPC 0.011036 < 0.02
[ERROR_CYCLE] Error added at CPU cycle 7623402405, interval 164, pending count: 1
[DRAM_CYCLE_ERROR] Cycle-based error applied! address=0xe13100000 additional_latency=2459910500 cycles
Simulation CPU 0 panic: IPC 0 < 0.01
Heartbeat CPU 0 instructions: 810000136 cycles: 7634930858 heartbeat IPC: 0.08238 cumulative IPC: 0.1061 (Simulation time: 13 hr 58 min 26 sec)
Simulation CPU 0 warning: IPC 0.048453 < 0.05
[ERROR_CYCLE] Error added at CPU cycle 7669886565, interval 165, pending count: 1
Simulation CPU 0 panic: IPC 9.6e-06 < 0.01
[DRAM_CYCLE_ERROR] Cycle-based error applied! address=0x7c1f00000 additional_latency=2459910500 cycles
Simulation CPU 0 panic: IPC 0 < 0.01
[ERROR_CYCLE] Error added at CPU cycle 7716370726, interval 166, pending count: 1
[DRAM_CYCLE_ERROR] Cycle-based error applied! address=0x94a51e2c0 additional_latency=2459910500 cycles
Simulation CPU 0 panic: IPC 9.6e-06 < 0.01
Simulation CPU 0 panic: IPC 0 < 0.01
Simulation CPU 0 critical: IPC 0.012519 < 0.02
[ERROR_CYCLE] Error added at CPU cycle 7762854887, interval 167, pending count: 1
[DRAM_CYCLE_ERROR] Cycle-based error applied! address=0x997c00248 additional_latency=2459910500 cycles
Simulation CPU 0 panic: IPC 0 < 0.01
Heartbeat CPU 0 instructions: 820000139 cycles: 7783855293 heartbeat IPC: 0.06715 cumulative IPC: 0.1053 (Simulation time: 14 hr 15 min 03 sec)
Simulation CPU 0 critical: IPC 0.012519 < 0.02
[ERROR_CYCLE] Error added at CPU cycle 7809339048, interval 168, pending count: 1
Simulation CPU 0 warning: IPC 0.046137 < 0.05
[DRAM_CYCLE_ERROR] Cycle-based error applied! address=0x94a5252b8 additional_latency=2459910500 cycles
Simulation CPU 0 panic: IPC 0 < 0.01
Heartbeat CPU 0 instructions: 830000143 cycles: 7848436695 heartbeat IPC: 0.1548 cumulative IPC: 0.1058 (Simulation time: 14 hr 22 min 36 sec)
[ERROR_CYCLE] Error added at CPU cycle 7855823209, interval 169, pending count: 1
[DRAM_CYCLE_ERROR] Cycle-based error applied! address=0xf08501288 additional_latency=2459910500 cycles
Simulation CPU 0 panic: IPC 0 < 0.01
Simulation CPU 0 panic: IPC 9.6e-06 < 0.01
[ERROR_CYCLE] Error added at CPU cycle 7902307370, interval 170, pending count: 1
[DRAM_CYCLE_ERROR] Cycle-based error applied! address=0x94a52cb68 additional_latency=2459910500 cycles
Simulation CPU 0 critical: IPC 0.013589 < 0.02
[ERROR_CYCLE] Error added at CPU cycle 7948791532, interval 171, pending count: 1
[DRAM_CYCLE_ERROR] Cycle-based error applied! address=0x1bd101d68 additional_latency=2459910500 cycles
Simulation CPU 0 panic: IPC 0 < 0.01
Simulation CPU 0 panic: IPC 9.6e-06 < 0.01
Heartbeat CPU 0 instructions: 840000143 cycles: 7969643235 heartbeat IPC: 0.0825 cumulative IPC: 0.1054 (Simulation time: 14 hr 36 min 42 sec)
Simulation CPU 0 warning: IPC 0.02052 < 0.05
[ERROR_CYCLE] Error added at CPU cycle 7995275693, interval 172, pending count: 1
[DRAM_CYCLE_ERROR] Cycle-based error applied! address=0x5a1e00c78 additional_latency=2459910500 cycles
Simulation CPU 0 panic: IPC 0 < 0.01
Simulation CPU 0 warning: IPC 0.034433 < 0.05
[ERROR_CYCLE] Error added at CPU cycle 8041759854, interval 173, pending count: 1
[DRAM_CYCLE_ERROR] Cycle-based error applied! address=0x94a537338 additional_latency=2459910500 cycles
Simulation CPU 0 warning: IPC 0.044759 < 0.05
Simulation CPU 0 critical: IPC 0.011146 < 0.02
Heartbeat CPU 0 instructions: 850000144 cycles: 8080996837 heartbeat IPC: 0.0898 cumulative IPC: 0.1052 (Simulation time: 14 hr 48 min 29 sec)
[ERROR_CYCLE] Error added at CPU cycle 8088244015, interval 174, pending count: 1
[DRAM_CYCLE_ERROR] Cycle-based error applied! address=0x114b003e8 additional_latency=2459910500 cycles
Simulation CPU 0 panic: IPC 0 < 0.01
Simulation CPU 0 panic: IPC 9.6e-06 < 0.01
[ERROR_CYCLE] Error added at CPU cycle 8134728176, interval 175, pending count: 1
[DRAM_CYCLE_ERROR] Cycle-based error applied! address=0x94a53e478 additional_latency=2459910500 cycles
Simulation CPU 0 panic: IPC 0 < 0.01
Simulation CPU 0 panic: IPC 9.6e-06 < 0.01
[ERROR_CYCLE] Error added at CPU cycle 8181212336, interval 176, pending count: 1
[DRAM_CYCLE_ERROR] Cycle-based error applied! address=0x9a28f080 additional_latency=2459910500 cycles
Simulation CPU 0 critical: IPC 0.012519 < 0.02
Heartbeat CPU 0 instructions: 860000145 cycles: 8221005356 heartbeat IPC: 0.07142 cumulative IPC: 0.1046 (Simulation time: 15 hr 04 min 22 sec)
[ERROR_CYCLE] Error added at CPU cycle 8227696497, interval 177, pending count: 1
[DRAM_CYCLE_ERROR] Cycle-based error applied! address=0x695e005a8 additional_latency=2459910500 cycles
Simulation CPU 0 panic: IPC 0 < 0.01
Simulation CPU 0 critical: IPC 0.012519 < 0.02
Simulation CPU 0 warning: IPC 0.046028 < 0.05
[ERROR_CYCLE] Error added at CPU cycle 8274180658, interval 178, pending count: 1
[DRAM_CYCLE_ERROR] Cycle-based error applied! address=0x94a549868 additional_latency=2459910500 cycles
Simulation CPU 0 panic: IPC 0 < 0.01
Heartbeat CPU 0 instructions: 870000148 cycles: 8313741308 heartbeat IPC: 0.1078 cumulative IPC: 0.1046 (Simulation time: 15 hr 14 min 27 sec)
[ERROR_CYCLE] Error added at CPU cycle 8320664819, interval 179, pending count: 1
[DRAM_CYCLE_ERROR] Cycle-based error applied! address=0x838d01318 additional_latency=2459910500 cycles
Simulation CPU 0 panic: IPC 0 < 0.01
Simulation CPU 0 panic: IPC 9.6e-06 < 0.01
[ERROR_CYCLE] Error added at CPU cycle 8367148980, interval 180, pending count: 1
[DRAM_CYCLE_ERROR] Cycle-based error applied! address=0x94a550ae8 additional_latency=2459910500 cycles
Simulation CPU 0 panic: IPC 0 < 0.01
Simulation CPU 0 warning: IPC 0.034433 < 0.05
[ERROR_CYCLE] Error added at CPU cycle 8413633141, interval 181, pending count: 1
[DRAM_CYCLE_ERROR] Cycle-based error applied! address=0xcd9d01df8 additional_latency=2459910500 cycles
Simulation CPU 0 panic: IPC 0 < 0.01
Simulation CPU 0 panic: IPC 9.6e-06 < 0.01
Heartbeat CPU 0 instructions: 880000152 cycles: 8434951930 heartbeat IPC: 0.0825 cumulative IPC: 0.1043 (Simulation time: 15 hr 27 min 42 sec)
Simulation CPU 0 warning: IPC 0.046662 < 0.05
Simulation CPU 0 panic: IPC 0.0096823 < 0.01
[ERROR_CYCLE] Error added at CPU cycle 8460117303, interval 182, pending count: 1
[DRAM_CYCLE_ERROR] Cycle-based error applied! address=0x672800d08 additional_latency=2459910500 cycles
Simulation CPU 0 panic: IPC 0 < 0.01
Simulation CPU 0 warning: IPC 0.034433 < 0.05
[ERROR_CYCLE] Error added at CPU cycle 8506601464, interval 183, pending count: 1
[DRAM_CYCLE_ERROR] Cycle-based error applied! address=0x94a55b2b8 additional_latency=2459910500 cycles
Simulation CPU 0 panic: IPC 0 < 0.01
Simulation CPU 0 critical: IPC 0.011256 < 0.02
Heartbeat CPU 0 instructions: 890000155 cycles: 8537071789 heartbeat IPC: 0.09792 cumulative IPC: 0.1043 (Simulation time: 15 hr 39 min 28 sec)
[ERROR_CYCLE] Error added at CPU cycle 8553085625, interval 184, pending count: 1
[DRAM_CYCLE_ERROR] Cycle-based error applied! address=0x7aa200478 additional_latency=2459910500 cycles
Simulation CPU 0 panic: IPC 0 < 0.01
Simulation CPU 0 panic: IPC 9.6e-06 < 0.01
[ERROR_CYCLE] Error added at CPU cycle 8599569786, interval 185, pending count: 1
[DRAM_CYCLE_ERROR] Cycle-based error applied! address=0x94a562828 additional_latency=2459910500 cycles
Simulation CPU 0 panic: IPC 0 < 0.01
Simulation CPU 0 panic: IPC 9.6e-06 < 0.01
[ERROR_CYCLE] Error added at CPU cycle 8646053947, interval 186, pending count: 1
[DRAM_CYCLE_ERROR] Cycle-based error applied! address=0x70ae009c8 additional_latency=2459910500 cycles
Simulation CPU 0 panic: IPC 0 < 0.01
Simulation CPU 0 critical: IPC 0.012519 < 0.02
Heartbeat CPU 0 instructions: 900000156 cycles: 8667655219 heartbeat IPC: 0.07658 cumulative IPC: 0.1038 (Simulation time: 15 hr 55 min 19 sec)
Simulation CPU 0 panic: IPC 9.6e-06 < 0.01
[ERROR_CYCLE] Error added at CPU cycle 8692538107, interval 187, pending count: 1
[DRAM_CYCLE_ERROR] Cycle-based error applied! address=0x86f600638 additional_latency=2459910500 cycles
Simulation CPU 0 panic: IPC 0 < 0.01
Simulation CPU 0 critical: IPC 0.012519 < 0.02
Simulation CPU 0 warning: IPC 0.045918 < 0.05
[ERROR_CYCLE] Error added at CPU cycle 8739022268, interval 188, pending count: 1
[DRAM_CYCLE_ERROR] Cycle-based error applied! address=0xaab110740 additional_latency=2459910500 cycles
Heartbeat CPU 0 instructions: 910000156 cycles: 8769837639 heartbeat IPC: 0.09786 cumulative IPC: 0.1038 (Simulation time: 16 hr 06 min 01 sec)
[ERROR_CYCLE] Error added at CPU cycle 8785506429, interval 189, pending count: 1
[DRAM_CYCLE_ERROR] Cycle-based error applied! address=0x94a570460 additional_latency=2459910500 cycles
Simulation CPU 0 panic: IPC 0 < 0.01
Simulation CPU 0 panic: IPC 9.6e-06 < 0.01
[ERROR_CYCLE] Error added at CPU cycle 8831990590, interval 190, pending count: 1
[DRAM_CYCLE_ERROR] Cycle-based error applied! address=0x2b5800588 additional_latency=2459910500 cycles
Simulation CPU 0 panic: IPC 0 < 0.01
Simulation CPU 0 warning: IPC 0.034433 < 0.05
[ERROR_CYCLE] Error added at CPU cycle 8878474751, interval 191, pending count: 1
Simulation CPU 0 panic: IPC 9.6e-06 < 0.01
[DRAM_CYCLE_ERROR] Cycle-based error applied! address=0xce601e88 additional_latency=2459910500 cycles
Simulation CPU 0 panic: IPC 0 < 0.01
Heartbeat CPU 0 instructions: 920000159 cycles: 8891024352 heartbeat IPC: 0.08252 cumulative IPC: 0.1035 (Simulation time: 16 hr 18 min 55 sec)
Simulation CPU 0 warning: IPC 0.043422 < 0.05
[ERROR_CYCLE] Error added at CPU cycle 8924958912, interval 192, pending count: 1
[DRAM_CYCLE_ERROR] Cycle-based error applied! address=0x94a57bdf0 additional_latency=2459910500 cycles
Simulation CPU 0 panic: IPC 0.0097921 < 0.01
Simulation CPU 0 panic: IPC 0.0061852 < 0.01
Simulation CPU 0 warning: IPC 0.031207 < 0.05
[ERROR_CYCLE] Error added at CPU cycle 8971443074, interval 193, pending count: 1
[DRAM_CYCLE_ERROR] Cycle-based error applied! address=0x94a57f098 additional_latency=2459910500 cycles
Simulation CPU 0 panic: IPC 0 < 0.01
Heartbeat CPU 0 instructions: 930000159 cycles: 9011630129 heartbeat IPC: 0.08291 cumulative IPC: 0.1032 (Simulation time: 16 hr 31 min 41 sec)
[ERROR_CYCLE] Error added at CPU cycle 9017927235, interval 194, pending count: 1
[DRAM_CYCLE_ERROR] Cycle-based error applied! address=0xc7e600000 additional_latency=2459910500 cycles
Simulation CPU 0 panic: IPC 0 < 0.01
Simulation CPU 0 panic: IPC 9.6e-06 < 0.01
[ERROR_CYCLE] Error added at CPU cycle 9064411396, interval 195, pending count: 1
[DRAM_CYCLE_ERROR] Cycle-based error applied! address=0x94a586378 additional_latency=2459910500 cycles
Simulation CPU 0 panic: IPC 0 < 0.01
Simulation CPU 0 panic: IPC 9.6e-06 < 0.01
[ERROR_CYCLE] Error added at CPU cycle 9110895557, interval 196, pending count: 1
[DRAM_CYCLE_ERROR] Cycle-based error applied! address=0xaabf00000 additional_latency=2459910500 cycles
Simulation CPU 0 panic: IPC 0 < 0.01
Heartbeat CPU 0 instructions: 940000161 cycles: 9123581524 heartbeat IPC: 0.08932 cumulative IPC: 0.103 (Simulation time: 16 hr 43 min 53 sec)
[ERROR_CYCLE] Error added at CPU cycle 9157379718, interval 197, pending count: 1
[DRAM_CYCLE_ERROR] Cycle-based error applied! address=0x94a58d4c8 additional_latency=2459910500 cycles
Simulation CPU 0 panic: IPC 9.6e-06 < 0.01
Simulation CPU 0 panic: IPC 0 < 0.01
Simulation CPU 0 critical: IPC 0.012519 < 0.02
Simulation CPU 0 warning: IPC 0.045808 < 0.05
[ERROR_CYCLE] Error added at CPU cycle 9203863878, interval 198, pending count: 1
[DRAM_CYCLE_ERROR] Cycle-based error applied! address=0x7ec17e940 additional_latency=2459910500 cycles
Heartbeat CPU 0 instructions: 950000161 cycles: 9235267791 heartbeat IPC: 0.08954 cumulative IPC: 0.1029 (Simulation time: 16 hr 56 min 48 sec)
[ERROR_CYCLE] Error added at CPU cycle 9250348039, interval 199, pending count: 1
[DRAM_CYCLE_ERROR] Cycle-based error applied! address=0x94a594858 additional_latency=2459910500 cycles
Simulation CPU 0 panic: IPC 0 < 0.01
Simulation CPU 0 panic: IPC 9.6e-06 < 0.01
Simulation CPU 0 warning: IPC 0.034433 < 0.05
[ERROR_CYCLE] Error added at CPU cycle 9296832200, interval 200, pending count: 1
[DRAM_CYCLE_ERROR] Cycle-based error applied! address=0xaed701c48 additional_latency=2459910500 cycles
Simulation CPU 0 panic: IPC 0 < 0.01
Simulation CPU 0 panic: IPC 9.6e-06 < 0.01
Heartbeat CPU 0 instructions: 960000163 cycles: 9337293261 heartbeat IPC: 0.09801 cumulative IPC: 0.1028 (Simulation time: 17 hr 07 min 28 sec)
[ERROR_CYCLE] Error added at CPU cycle 9343316361, interval 201, pending count: 1
[DRAM_CYCLE_ERROR] Cycle-based error applied! address=0x94a59be30 additional_latency=2459910500 cycles
Simulation CPU 0 panic: IPC 0 < 0.01
Simulation CPU 0 panic: IPC 0.0099019 < 0.01
Simulation CPU 0 warning: IPC 0.034433 < 0.05
[ERROR_CYCLE] Error added at CPU cycle 9389800522, interval 202, pending count: 1
Simulation CPU 0 panic: IPC 9.6e-06 < 0.01
[DRAM_CYCLE_ERROR] Cycle-based error applied! address=0x94a59f488 additional_latency=2459910500 cycles
Simulation CPU 0 panic: IPC 0 < 0.01
Simulation CPU 0 critical: IPC 0.011476 < 0.02
[ERROR_CYCLE] Error added at CPU cycle 9436284683, interval 203, pending count: 1
[DRAM_CYCLE_ERROR] Cycle-based error applied! address=0xc98801638 additional_latency=2459910500 cycles
Simulation CPU 0 panic: IPC 0 < 0.01
Heartbeat CPU 0 instructions: 970000164 cycles: 9449286548 heartbeat IPC: 0.08929 cumulative IPC: 0.1027 (Simulation time: 17 hr 18 min 45 sec)
[ERROR_CYCLE] Error added at CPU cycle 9482768845, interval 204, pending count: 1
[DRAM_CYCLE_ERROR] Cycle-based error applied! address=0x94a5a6d38 additional_latency=2459910500 cycles
Simulation CPU 0 panic: IPC 9.6e-06 < 0.01
Simulation CPU 0 panic: IPC 0 < 0.01
[ERROR_CYCLE] Error added at CPU cycle 9529253006, interval 205, pending count: 1
[DRAM_CYCLE_ERROR] Cycle-based error applied! address=0xf22700000 additional_latency=2459910500 cycles
Simulation CPU 0 panic: IPC 0 < 0.01
Simulation CPU 0 warning: IPC 0.04798 < 0.05
Heartbeat CPU 0 instructions: 980000164 cycles: 9551447025 heartbeat IPC: 0.09789 cumulative IPC: 0.1026 (Simulation time: 17 hr 30 min 08 sec)
[ERROR_CYCLE] Error added at CPU cycle 9575737167, interval 206, pending count: 1
[DRAM_CYCLE_ERROR] Cycle-based error applied! address=0x94a5adf28 additional_latency=2459910500 cycles
Simulation CPU 0 panic: IPC 0 < 0.01
Simulation CPU 0 panic: IPC 9.6e-06 < 0.01
Simulation CPU 0 critical: IPC 0.012519 < 0.02
[ERROR_CYCLE] Error added at CPU cycle 9622221328, interval 207, pending count: 1
[DRAM_CYCLE_ERROR] Cycle-based error applied! address=0x94a5b10b8 additional_latency=2459910500 cycles
Simulation CPU 0 warning: IPC 0.045698 < 0.05
Simulation CPU 0 panic: IPC 0 < 0.01
Heartbeat CPU 0 instructions: 990000166 cycles: 9653670678 heartbeat IPC: 0.09782 cumulative IPC: 0.1026 (Simulation time: 17 hr 42 min 31 sec)
[ERROR_CYCLE] Error added at CPU cycle 9668705488, interval 208, pending count: 1
[DRAM_CYCLE_ERROR] Cycle-based error applied! address=0x94a5b4360 additional_latency=2459910500 cycles
Simulation CPU 0 panic: IPC 0 < 0.01
Simulation CPU 0 warning: IPC 0.045713 < 0.05
Simulation CPU 0 panic: IPC 9.6e-06 < 0.01
[ERROR_CYCLE] Error added at CPU cycle 9715189649, interval 209, pending count: 1
[DRAM_CYCLE_ERROR] Cycle-based error applied! address=0x6b58fabc0 additional_latency=2459910500 cycles
Simulation CPU 0 warning: IPC 0.031302 < 0.05
Heartbeat CPU 0 instructions: 1000000170 cycles: 9755941996 heartbeat IPC: 0.09778 cumulative IPC: 0.1025 (Simulation time: 17 hr 53 min 11 sec)
[ERROR_CYCLE] Error added at CPU cycle 9761673810, interval 210, pending count: 1
[DRAM_CYCLE_ERROR] Cycle-based error applied! address=0xc0fa01fa8 additional_latency=2459910500 cycles
Simulation CPU 0 panic: IPC 0 < 0.01
Simulation CPU 0 panic: IPC 9.6e-06 < 0.01
Simulation CPU 0 critical: IPC 0.010012 < 0.02
[ERROR_CYCLE] Error added at CPU cycle 9808157971, interval 211, pending count: 1
Simulation CPU 0 warning: IPC 0.034433 < 0.05
[DRAM_CYCLE_ERROR] Cycle-based error applied! address=0x94a5bf640 additional_latency=2459910500 cycles
Simulation CPU 0 panic: IPC 0 < 0.01
Simulation CPU 0 panic: IPC 9.6e-06 < 0.01
[ERROR_CYCLE] Error added at CPU cycle 9854642132, interval 212, pending count: 1
[DRAM_CYCLE_ERROR] Cycle-based error applied! address=0xcdd00000 additional_latency=2459910500 cycles
Simulation CPU 0 panic: IPC 0 < 0.01
Simulation CPU 0 critical: IPC 0.011586 < 0.02
Simulation CPU 0 warning: IPC 0.034433 < 0.05
Heartbeat CPU 0 instructions: 1010000172 cycles: 9895549576 heartbeat IPC: 0.07163 cumulative IPC: 0.1021 (Simulation time: 18 hr 09 min 26 sec)
[ERROR_CYCLE] Error added at CPU cycle 9901126293, interval 213, pending count: 1
[DRAM_CYCLE_ERROR] Cycle-based error applied! address=0x94a5c6320 additional_latency=2459910500 cycles
[...]
Simulation CPU 0 panic: IPC 9.6e-06 < 0.01
Heartbeat CPU 0 instructions: 1100000191 cycles: 10824892343 heartbeat IPC: 0.1078 cumulative IPC: 0.1016 (Simulation time: 19 hr 52 min 57 sec)
[ERROR_CYCLE] Error added at CPU cycle 10830809513, interval 233, pending count: 1
[DRAM_CYCLE_ERROR] Cycle-based error applied! address=0xb6750fbb0 additional_latency=2459910500 cycles
Simulation CPU 0 panic: IPC 0 < 0.01
Simulation CPU 0 warning: IPC 0.031316 < 0.05
Simulation CPU 0 warning: IPC 0.045428 < 0.05
[ERROR_CYCLE] Error added at CPU cycle 10877293674, interval 234, pending count: 1
[DRAM_CYCLE_ERROR] Cycle-based error applied! address=0xb675132c8 additional_latency=2459910500 cycles
Simulation CPU 0 panic: IPC 9.6e-06 < 0.01
Simulation CPU 0 panic: IPC 0 < 0.01
Simulation CPU 0 warning: IPC 0.03289 < 0.05
[ERROR_CYCLE] Error added at CPU cycle 10923777835, interval 235, pending count: 1
[DRAM_CYCLE_ERROR] Cycle-based error applied! address=0xc6cd00e48 additional_latency=2459910500 cycles
Simulation CPU 0 panic: IPC 0 < 0.01
Heartbeat CPU 0 instructions: 1110000194 cycles: 10946087673 heartbeat IPC: 0.08251 cumulative IPC: 0.1014 (Simulation time: 20 hr 06 min 02 sec)
[ERROR_CYCLE] Error added at CPU cycle 10970261996, interval 236, pending count: 1
[DRAM_CYCLE_ERROR] Cycle-based error applied! address=0xb6751a1e0 additional_latency=2459910500 cycles
Simulation CPU 0 panic: IPC 0 < 0.01
Heartbeat CPU 0 instructions: 1120000198 cycles: 11001436115 heartbeat IPC: 0.1807 cumulative IPC: 0.1018 (Simulation time: 20 hr 12 min 30 sec)
[ERROR_CYCLE] Error added at CPU cycle 11016746158, interval 237, pending count: 1
[DRAM_CYCLE_ERROR] Cycle-based error applied! address=0xd9f102fb8 additional_latency=2459910500 cycles
Simulation CPU 0 panic: IPC 0 < 0.01
Simulation CPU 0 warning: IPC 0.045461 < 0.05
Simulation CPU 0 warning: IPC 0.04712 < 0.05
[ERROR_CYCLE] Error added at CPU cycle 11063230319, interval 238, pending count: 1
[DRAM_CYCLE_ERROR] Cycle-based error applied! address=0xb67521c30 additional_latency=2459910500 cycles
Simulation CPU 0 panic: IPC 0 < 0.01
Simulation CPU 0 critical: IPC 0.010341 < 0.02
[ERROR_CYCLE] Error added at CPU cycle 11109714480, interval 239, pending count: 1
[DRAM_CYCLE_ERROR] Cycle-based error applied! address=0x643c02968 additional_latency=2459910500 cycles
Simulation CPU 0 panic: IPC 9.6e-06 < 0.01
[ERROR_CYCLE] Error added at CPU cycle 11156198641, interval 240, pending count: 1
[DRAM_CYCLE_ERROR] Cycle-based error applied! address=0x30f701878 additional_latency=2459910500 cycles
Simulation CPU 0 critical: IPC 0.011915 < 0.02
Heartbeat CPU 0 instructions: 1130000200 cycles: 11169611439 heartbeat IPC: 0.05946 cumulative IPC: 0.1012 (Simulation time: 20 hr 30 min 41 sec)
Simulation CPU 0 warning: IPC 0.034433 < 0.05
[ERROR_CYCLE] Error added at CPU cycle 11202682801, interval 241, pending count: 1
[DRAM_CYCLE_ERROR] Cycle-based error applied! address=0xb6752c280 additional_latency=2459910500 cycles
Simulation CPU 0 critical: IPC 0.012519 < 0.02
Simulation CPU 0 panic: IPC 0 < 0.01
[ERROR_CYCLE] Error added at CPU cycle 11249166962, interval 242, pending count: 1
[DRAM_CYCLE_ERROR] Cycle-based error applied! address=0x464100fe8 additional_latency=2459910500 cycles
Simulation CPU 0 panic: IPC 0 < 0.01
Simulation CPU 0 panic: IPC 9.6e-06 < 0.01
Heartbeat CPU 0 instructions: 1140000200 cycles: 11280968209 heartbeat IPC: 0.0898 cumulative IPC: 0.1011 (Simulation time: 20 hr 43 min 12 sec)
[ERROR_CYCLE] Error added at CPU cycle 11295651123, interval 243, pending count: 1
[DRAM_CYCLE_ERROR] Cycle-based error applied! address=0xb67533480 additional_latency=2459910500 cycles
Simulation CPU 0 warning: IPC 0.031426 < 0.05
Simulation CPU 0 panic: IPC 0 < 0.01
Simulation CPU 0 panic: IPC 9.6e-06 < 0.01
[ERROR_CYCLE] Error added at CPU cycle 11342135284, interval 244, pending count: 1
[DRAM_CYCLE_ERROR] Cycle-based error applied! address=0x22539f7c0 additional_latency=2459910500 cycles
Simulation CPU 0 warning: IPC 0.033 < 0.05
[ERROR_CYCLE] Error added at CPU cycle 11388619445, interval 245, pending count: 1
[DRAM_CYCLE_ERROR] Cycle-based error applied! address=0x125a011a8 additional_latency=2459910500 cycles
Simulation CPU 0 panic: IPC 0 < 0.01
Heartbeat CPU 0 instructions: 1150000201 cycles: 11402166588 heartbeat IPC: 0.08251 cumulative IPC: 0.1009 (Simulation time: 20 hr 56 min 57 sec)
[ERROR_CYCLE] Error added at CPU cycle 11435103606, interval 246, pending count: 1
[DRAM_CYCLE_ERROR] Cycle-based error applied! address=0xb6df02838 additional_latency=2459910500 cycles
Simulation CPU 0 panic: IPC 0 < 0.01
Simulation CPU 0 warning: IPC 0.046925 < 0.05
Simulation CPU 0 warning: IPC 0.025076 < 0.05
Heartbeat CPU 0 instructions: 1160000205 cycles: 11466745571 heartbeat IPC: 0.1548 cumulative IPC: 0.1012 (Simulation time: 21 hr 04 min 18 sec)
[ERROR_CYCLE] Error added at CPU cycle 11481587767, interval 247, pending count: 1
[DRAM_CYCLE_ERROR] Cycle-based error applied! address=0xb67541870 additional_latency=2459910500 cycles
Simulation CPU 0 panic: IPC 0 < 0.01
Simulation CPU 0 panic: IPC 9.6e-06 < 0.01
[ERROR_CYCLE] Error added at CPU cycle 11528071929, interval 248, pending count: 1
Simulation CPU 0 critical: IPC 0.010451 < 0.02
[DRAM_CYCLE_ERROR] Cycle-based error applied! address=0xb67545af0 additional_latency=2459910500 cycles
Simulation CPU 0 panic: IPC 0 < 0.01
Simulation CPU 0 warning: IPC 0.034433 < 0.05
Simulation CPU 0 panic: IPC 9.6e-06 < 0.01
[ERROR_CYCLE] Error added at CPU cycle 11574556090, interval 249, pending count: 1
[DRAM_CYCLE_ERROR] Cycle-based error applied! address=0xb182029f8 additional_latency=2459910500 cycles
Simulation CPU 0 panic: IPC 0 < 0.01
Heartbeat CPU 0 instructions: 1170000209 cycles: 11597229001 heartbeat IPC: 0.07664 cumulative IPC: 0.1009 (Simulation time: 21 hr 18 min 20 sec)
Simulation CPU 0 critical: IPC 0.012025 < 0.02
Simulation CPU 0 warning: IPC 0.034433 < 0.05
[ERROR_CYCLE] Error added at CPU cycle 11621040251, interval 250, pending count: 1
[DRAM_CYCLE_ERROR] Cycle-based error applied! address=0xb6754c7c8 additional_latency=2459910500 cycles
Simulation CPU 0 panic: IPC 0 < 0.01
Simulation CPU 0 critical: IPC 0.012519 < 0.02
[ERROR_CYCLE] Error added at CPU cycle 11667524412, interval 251, pending count: 1
[DRAM_CYCLE_ERROR] Cycle-based error applied! address=0x9da1dd508 additional_latency=2459910500 cycles
Heartbeat CPU 0 instructions: 1180000209 cycles: 11699662699 heartbeat IPC: 0.09762 cumulative IPC: 0.1009 (Simulation time: 21 hr 29 min 45 sec)
Simulation CPU 0 panic: IPC 9.6e-06 < 0.01
[ERROR_CYCLE] Error added at CPU cycle 11714008572, interval 252, pending count: 1
[DRAM_CYCLE_ERROR] Cycle-based error applied! address=0x31fc00218 additional_latency=2459910500 cycles
Simulation CPU 0 panic: IPC 0 < 0.01
[ERROR_CYCLE] Error added at CPU cycle 11760492733, interval 253, pending count: 1
[DRAM_CYCLE_ERROR] Cycle-based error applied! address=0xb67557ca8 additional_latency=2459910500 cycles
Simulation CPU 0 panic: IPC 0 < 0.01
Simulation CPU 0 panic: IPC 9.6e-06 < 0.01
[ERROR_CYCLE] Error added at CPU cycle 11806976894, interval 254, pending count: 1
[DRAM_CYCLE_ERROR] Cycle-based error applied! address=0x8dc600000 additional_latency=2459910500 cycles
Simulation CPU 0 warning: IPC 0.027385 < 0.05
Simulation CPU 0 warning: IPC 0.033109 < 0.05
Simulation CPU 0 panic: IPC 9.6e-06 < 0.01
Simulation CPU 0 panic: IPC 0.0038386 < 0.01
[ERROR_CYCLE] Error added at CPU cycle 11853461055, interval 255, pending count: 1
[DRAM_CYCLE_ERROR] Cycle-based error applied! address=0xb3dd00000 additional_latency=2459910500 cycles
Simulation CPU 0 panic: IPC 0 < 0.01
Heartbeat CPU 0 instructions: 1190000209 cycles: 11867536299 heartbeat IPC: 0.05957 cumulative IPC: 0.1003 (Simulation time: 21 hr 47 min 55 sec)
[ERROR_CYCLE] Error added at CPU cycle 11899945216, interval 256, pending count: 1
[DRAM_CYCLE_ERROR] Cycle-based error applied! address=0x412c028c8 additional_latency=2459910500 cycles
Simulation CPU 0 panic: IPC 0 < 0.01
Simulation CPU 0 warning: IPC 0.046815 < 0.05
Simulation CPU 0 warning: IPC 0.025186 < 0.05
Heartbeat CPU 0 instructions: 1200000209 cycles: 11932128668 heartbeat IPC: 0.1548 cumulative IPC: 0.1006 (Simulation time: 21 hr 55 min 41 sec)
[ERROR_CYCLE] Error added at CPU cycle 11946429377, interval 257, pending count: 1
[DRAM_CYCLE_ERROR] Cycle-based error applied! address=0xb675657f0 additional_latency=2459910500 cycles
Simulation CPU 0 panic: IPC 0 < 0.01
Simulation CPU 0 panic: IPC 9.6e-06 < 0.01
[ERROR_CYCLE] Error added at CPU cycle 11992913538, interval 258, pending count: 1
[DRAM_CYCLE_ERROR] Cycle-based error applied! address=0x5bda00000 additional_latency=2459910500 cycles
Simulation CPU 0 panic: IPC 0 < 0.01
Simulation CPU 0 panic: IPC 0.0074301 < 0.01
Simulation CPU 0 warning: IPC 0.034433 < 0.05
[ERROR_CYCLE] Error added at CPU cycle 12039397700, interval 259, pending count: 1
Simulation CPU 0 panic: IPC 9.6e-06 < 0.01
[DRAM_CYCLE_ERROR] Cycle-based error applied! address=0x11ca02a88 additional_latency=2459910500 cycles
Simulation CPU 0 panic: IPC 0 < 0.01
Simulation CPU 0 panic: IPC 9.6e-06 < 0.01
Heartbeat CPU 0 instructions: 1210000213 cycles: 12071842162 heartbeat IPC: 0.07158 cumulative IPC: 0.1002 (Simulation time: 22 hr 09 min 09 sec)
[ERROR_CYCLE] Error added at CPU cycle 12085881861, interval 260, pending count: 1
[DRAM_CYCLE_ERROR] Cycle-based error applied! address=0xb67570df8 additional_latency=2459910500 cycles
Simulation CPU 0 critical: IPC 0.012134 < 0.02
Simulation CPU 0 panic: IPC 0 < 0.01
Simulation CPU 0 warning: IPC 0.034433 < 0.05
[ERROR_CYCLE] Error added at CPU cycle 12132366022, interval 261, pending count: 1
[DRAM_CYCLE_ERROR] Cycle-based error applied! address=0x246f00618 additional_latency=2459910500 cycles
Simulation CPU 0 panic: IPC 0 < 0.01
Simulation CPU 0 critical: IPC 0.012519 < 0.02
Heartbeat CPU 0 instructions: 1220000217 cycles: 12174144751 heartbeat IPC: 0.09775 cumulative IPC: 0.1002 (Simulation time: 22 hr 19 min 15 sec)
[ERROR_CYCLE] Error added at CPU cycle 12178850183, interval 262, pending count: 1
[DRAM_CYCLE_ERROR] Cycle-based error applied! address=0xb675778a0 additional_latency=2459910500 cycles
Simulation CPU 0 panic: IPC 0 < 0.01
Simulation CPU 0 panic: IPC 9.6e-06 < 0.01
Simulation CPU 0 warning: IPC 0.031645 < 0.05
[ERROR_CYCLE] Error added at CPU cycle 12225334343, interval 263, pending count: 1
[DRAM_CYCLE_ERROR] Cycle-based error applied! address=0xb6757b7b0 additional_latency=2459910500 cycles
Simulation CPU 0 panic: IPC 0 < 0.01
Simulation CPU 0 panic: IPC 9.6e-06 < 0.01
[ERROR_CYCLE] Error added at CPU cycle 12271818504, interval 264, pending count: 1
[DRAM_CYCLE_ERROR] Cycle-based error applied! address=0x865a00000 additional_latency=2459910500 cycles
Simulation CPU 0 panic: IPC 0 < 0.01
Simulation CPU 0 warning: IPC 0.033219 < 0.05
Heartbeat CPU 0 instructions: 1230000218 cycles: 12295420303 heartbeat IPC: 0.08246 cumulative IPC: 0.1 (Simulation time: 22 hr 32 min 03 sec)
Simulation CPU 0 panic: IPC 9.6e-06 < 0.01
[ERROR_CYCLE] Error added at CPU cycle 12318302665, interval 265, pending count: 1
[DRAM_CYCLE_ERROR] Cycle-based error applied! address=0xb67582e78 additional_latency=2459910500 cycles
Simulation CPU 0 panic: IPC 0 < 0.01
Simulation CPU 0 warning: IPC 0.046705 < 0.05
[ERROR_CYCLE] Error added at CPU cycle 12364786826, interval 266, pending count: 1
[DRAM_CYCLE_ERROR] Cycle-based error applied! address=0x399a00000 additional_latency=2459910500 cycles
Simulation CPU 0 panic: IPC 0 < 0.01
Simulation CPU 0 warning: IPC 0.025296 < 0.05
Heartbeat CPU 0 instructions: 1240000218 cycles: 12388323278 heartbeat IPC: 0.1076 cumulative IPC: 0.1001 (Simulation time: 22 hr 41 min 35 sec)
[ERROR_CYCLE] Error added at CPU cycle 12411270987, interval 267, pending count: 1
[DRAM_CYCLE_ERROR] Cycle-based error applied! address=0xb67589860 additional_latency=2459910500 cycles
Simulation CPU 0 panic: IPC 0 < 0.01
Simulation CPU 0 panic: IPC 9.6e-06 < 0.01
[ERROR_CYCLE] Error added at CPU cycle 12457755148, interval 268, pending count: 1
[DRAM_CYCLE_ERROR] Cycle-based error applied! address=0xc82e02848 additional_latency=2459910500 cycles
Simulation CPU 0 critical: IPC 0.01521 < 0.02
Simulation CPU 0 warning: IPC 0.046918 < 0.05
Simulation CPU 0 panic: IPC 9.6e-06 < 0.01
Heartbeat CPU 0 instructions: 1250000220 cycles: 12499714856 heartbeat IPC: 0.08977 cumulative IPC: 0.1 (Simulation time: 22 hr 53 min 27 sec)
[ERROR_CYCLE] Error added at CPU cycle 12504239309, interval 269, pending count: 1
[DRAM_CYCLE_ERROR] Cycle-based error applied! address=0xb67590f70 additional_latency=2459910500 cycles
Simulation CPU 0 panic: IPC 0 < 0.01
Simulation CPU 0 panic: IPC 9.6e-06 < 0.01
Simulation CPU 0 critical: IPC 0.012244 < 0.02
[ERROR_CYCLE] Error added at CPU cycle 12550723471, interval 270, pending count: 1
[DRAM_CYCLE_ERROR] Cycle-based error applied! address=0xe7a247280 additional_latency=2459910500 cycles
Simulation CPU 0 warning: IPC 0.039759 < 0.05
Heartbeat CPU 0 instructions: 1260000224 cycles: 12592610991 heartbeat IPC: 0.1076 cumulative IPC: 0.1001 (Simulation time: 23 hr 03 min 11 sec)
[ERROR_CYCLE] Error added at CPU cycle 12597207632, interval 271, pending count: 1
[DRAM_CYCLE_ERROR] Cycle-based error applied! address=0xb675973a8 additional_latency=2459910500 cycles
Simulation CPU 0 panic: IPC 0 < 0.01
Simulation CPU 0 panic: IPC 9.6e-06 < 0.01
[ERROR_CYCLE] Error added at CPU cycle 12643691793, interval 272, pending count: 1
[DRAM_CYCLE_ERROR] Cycle-based error applied! address=0xb6759b300 additional_latency=2459910500 cycles
Simulation CPU 0 warning: IPC 0.031755 < 0.05
Simulation CPU 0 panic: IPC 0 < 0.01
Simulation CPU 0 panic: IPC 9.6e-06 < 0.01
[ERROR_CYCLE] Error added at CPU cycle 12690175954, interval 273, pending count: 1
[DRAM_CYCLE_ERROR] Cycle-based error applied! address=0x8cbc00b48 additional_latency=2459910500 cycles
Simulation CPU 0 panic: IPC 0 < 0.01
Simulation CPU 0 warning: IPC 0.033329 < 0.05
Heartbeat CPU 0 instructions: 1270000226 cycles: 12723366100 heartbeat IPC: 0.07648 cumulative IPC: 0.09982 (Simulation time: 23 hr 17 min 15 sec)
[ERROR_CYCLE] Error added at CPU cycle 12736660114, interval 274, pending count: 1
[DRAM_CYCLE_ERROR] Cycle-based error applied! address=0xb675a2450 additional_latency=2459910500 cycles
Simulation CPU 0 panic: IPC 9.6e-06 < 0.01
Simulation CPU 0 panic: IPC 0 < 0.01
[ERROR_CYCLE] Error added at CPU cycle 12783144275, interval 275, pending count: 1
[DRAM_CYCLE_ERROR] Cycle-based error applied! address=0x43f6029e8 additional_latency=2459910500 cycles
Simulation CPU 0 panic: IPC 0 < 0.01
Simulation CPU 0 warning: IPC 0.046595 < 0.05
Simulation CPU 0 warning: IPC 0.025406 < 0.05
Heartbeat CPU 0 instructions: 1280000228 cycles: 12816146952 heartbeat IPC: 0.1078 cumulative IPC: 0.09987 (Simulation time: 23 hr 26 min 11 sec)
[ERROR_CYCLE] Error added at CPU cycle 12829628436, interval 276, pending count: 1
Simulation CPU 0 warning: IPC 0.026979 < 0.05
[DRAM_CYCLE_ERROR] Cycle-based error applied! address=0xb675a9508 additional_latency=2459910500 cycles
Simulation CPU 0 panic: IPC 0 < 0.01
Simulation CPU 0 warning: IPC 0.045713 < 0.05
Simulation CPU 0 panic: IPC 9.6e-06 < 0.01
[ERROR_CYCLE] Error added at CPU cycle 12876112597, interval 277, pending count: 1
[DRAM_CYCLE_ERROR] Cycle-based error applied! address=0x6bb4012a8 additional_latency=2459910500 cycles
Simulation CPU 0 panic: IPC 0 < 0.01
Simulation CPU 0 warning: IPC 0.031302 < 0.05
Simulation CPU 0 warning: IPC 0.046809 < 0.05
Simulation CPU 0 panic: IPC 9.6e-06 < 0.01
[ERROR_CYCLE] Error added at CPU cycle 12922596758, interval 278, pending count: 1
[DRAM_CYCLE_ERROR] Cycle-based error applied! address=0x850d02ba8 additional_latency=2459910500 cycles
Simulation CPU 0 panic: IPC 0 < 0.01
Heartbeat CPU 0 instructions: 1290000228 cycles: 12937332776 heartbeat IPC: 0.08252 cumulative IPC: 0.09971 (Simulation time: 23 hr 37 min 54 sec)
Simulation CPU 0 panic: IPC 9.6e-06 < 0.01
Simulation CPU 0 critical: IPC 0.014464 < 0.02
[ERROR_CYCLE] Error added at CPU cycle 12969080919, interval 279, pending count: 1
[DRAM_CYCLE_ERROR] Cycle-based error applied! address=0xb675b4db8 additional_latency=2459910500 cycles
Simulation CPU 0 panic: IPC 0 < 0.01
Simulation CPU 0 critical: IPC 0.012354 < 0.02
[ERROR_CYCLE] Error added at CPU cycle 13015565080, interval 280, pending count: 1
[DRAM_CYCLE_ERROR] Cycle-based error applied! address=0x9b9a00000 additional_latency=2459910500 cycles
Simulation CPU 0 panic: IPC 0 < 0.01
Simulation CPU 0 critical: IPC 0.012519 < 0.02
Heartbeat CPU 0 instructions: 1300000228 cycles: 13057936426 heartbeat IPC: 0.08292 cumulative IPC: 0.09956 (Simulation time: 23 hr 50 min 58 sec)
[ERROR_CYCLE] Error added at CPU cycle 13062049242, interval 281, pending count: 1
[DRAM_CYCLE_ERROR] Cycle-based error applied! address=0xb675bb328 additional_latency=2459910500 cycles
Simulation CPU 0 panic: IPC 0 < 0.01
Simulation CPU 0 warning: IPC 0.048856 < 0.05
Simulation CPU 0 panic: IPC 9.6e-06 < 0.01
[ERROR_CYCLE] Error added at CPU cycle 13108533403, interval 282, pending count: 1
[DRAM_CYCLE_ERROR] Cycle-based error applied! address=0x96146f100 additional_latency=2459910500 cycles
Simulation CPU 0 panic: IPC 9.6e-06 < 0.01
[ERROR_CYCLE] Error added at CPU cycle 13155017564, interval 283, pending count: 1
[DRAM_CYCLE_ERROR] Cycle-based error applied! address=0x18dc00000 additional_latency=2459910500 cycles
Simulation CPU 0 panic: IPC 0 < 0.01
Heartbeat CPU 0 instructions: 1310000228 cycles: 13178636784 heartbeat IPC: 0.08285 cumulative IPC: 0.0994 (Simulation time: 00 hr 02 min 06 sec)
Simulation CPU 0 warning: IPC 0.033439 < 0.05
Simulation CPU 0 panic: IPC 9.6e-06 < 0.01
[ERROR_CYCLE] Error added at CPU cycle 13201501725, interval 284, pending count: 1
[DRAM_CYCLE_ERROR] Cycle-based error applied! address=0xb675c73d0 additional_latency=2459910500 cycles
Simulation CPU 0 panic: IPC 0 < 0.01
Simulation CPU 0 warning: IPC 0.034433 < 0.05
[ERROR_CYCLE] Error added at CPU cycle 13247985885, interval 285, pending count: 1
[DRAM_CYCLE_ERROR] Cycle-based error applied! address=0xb4401928 additional_latency=2459910500 cycles
Simulation CPU 0 panic: IPC 0 < 0.01
Heartbeat CPU 0 instructions: 1320000232 cycles: 13290151012 heartbeat IPC: 0.08967 cumulative IPC: 0.09932 (Simulation time: 00 hr 11 min 56 sec)
[ERROR_CYCLE] Error added at CPU cycle 13294470046, interval 286, pending count: 1
[DRAM_CYCLE_ERROR] Cycle-based error applied! address=0xb675ce670 additional_latency=2459910500 cycles
Simulation CPU 0 panic: IPC 0 < 0.01
Simulation CPU 0 warning: IPC 0.027089 < 0.05
Simulation CPU 0 panic: IPC 9.6e-06 < 0.01
[ERROR_CYCLE] Error added at CPU cycle 13340954207, interval 287, pending count: 1
[DRAM_CYCLE_ERROR] Cycle-based error applied! address=0x9fe4ecbc0 additional_latency=2459910500 cycles
Simulation CPU 0 panic: IPC 0.0044635 < 0.01
Simulation CPU 0 warning: IPC 0.046699 < 0.05
[ERROR_CYCLE] Error added at CPU cycle 13387438368, interval 288, pending count: 1
Simulation CPU 0 panic: IPC 9.6e-06 < 0.01
[DRAM_CYCLE_ERROR] Cycle-based error applied! address=0xb62c02c38 additional_latency=2459910500 cycles
Simulation CPU 0 panic: IPC 0 < 0.01
Heartbeat CPU 0 instructions: 1330000232 cycles: 13402068085 heartbeat IPC: 0.08935 cumulative IPC: 0.09924 (Simulation time: 00 hr 22 min 52 sec)
Simulation CPU 0 panic: IPC 9.6e-06 < 0.01
[ERROR_CYCLE] Error added at CPU cycle 13433922529, interval 289, pending count: 1
[DRAM_CYCLE_ERROR] Cycle-based error applied! address=0xb675d9c78 additional_latency=2459910500 cycles
Simulation CPU 0 critical: IPC 0.012464 < 0.02
Simulation CPU 0 panic: IPC 0 < 0.01
Simulation CPU 0 critical: IPC 0.012519 < 0.02
[ERROR_CYCLE] Error added at CPU cycle 13480406690, interval 290, pending count: 1
[DRAM_CYCLE_ERROR] Cycle-based error applied! address=0x243602358 additional_latency=2459910500 cycles
Simulation CPU 0 panic: IPC 0 < 0.0