
*** ChampSim Multicore Out-of-Order Simulator ***
Warmup Instructions: 0
Simulation Instructions: 9223372036854775807
Number of CPUs: 1
Page size: 1048576

Off-chip DRAM Size: 128 GiB Channels: 2 Width: 32-bit Data Rate: 4807 MT/s
[ERROR_PAGE_MANAGER] Error latency: 0 
[ERROR_PAGE_MANAGER] Random seed: 54321 (fixed for preload reproducibility)
[ERROR_PAGE_MANAGER] Error pages off

=== ERROR PAGE STATISTICS ===
Mode: OFF
Total Error Accesses: 0
==============================
Warmup finished CPU 0 instructions: 0 cycles: 1 cumulative IPC: 0 (Simulation time: 00 hr 00 min 00 sec)
Warmup complete CPU 0 instructions: 0 cycles: 1 cumulative IPC: 0 (Simulation time: 00 hr 00 min 00 sec)
Simulation CPU 0 panic: IPC 0 < 0.01
Simulation CPU 0 panic: IPC 2e-06 < 0.01
Simulation CPU 0 panic: IPC 0 < 0.01
Simulation CPU 0 panic: IPC 2.52e-05 < 0.01
Simulation CPU 0 panic: IPC 0.000543 < 0.01
Simulation CPU 0 panic: IPC 0.0003794 < 0.01
Simulation CPU 0 panic: IPC 7.5e-06 < 0.01
Simulation CPU 0 panic: IPC 2.1e-06 < 0.01
Simulation CPU 0 panic: IPC 1.7e-06 < 0.01
Simulation CPU 0 panic: IPC 1.11e-05 < 0.01
Simulation CPU 0 panic: IPC 1e-07 < 0.01
Simulation CPU 0 panic: IPC 4e-07 < 0.01
Simulation CPU 0 panic: IPC 4e-06 < 0.01
Simulation CPU 0 panic: IPC 8e-06 < 0.01
Simulation CPU 0 panic: IPC 0.0030956 < 0.01
Simulation CPU 0 critical: IPC 0.018621 < 0.02
Simulation CPU 0 critical: IPC 0.015891 < 0.02
Simulation CPU 0 panic: IPC 0.0027506 < 0.01
Simulation CPU 0 warning: IPC 0.021759 < 0.05
Simulation CPU 0 warning: IPC 0.024809 < 0.05
Simulation CPU 0 warning: IPC 0.037198 < 0.05
Simulation CPU 0 panic: IPC 7.2e-06 < 0.01
Simulation CPU 0 panic: IPC 8e-06 < 0.01
Simulation CPU 0 panic: IPC 0.0061778 < 0.01
Simulation CPU 0 panic: IPC 0.0061606 < 0.01
Simulation CPU 0 panic: IPC 0.0093766 < 0.01
Simulation CPU 0 panic: IPC 0.0059319 < 0.01
Simulation CPU 0 critical: IPC 0.012699 < 0.02
Simulation CPU 0 critical: IPC 0.012403 < 0.02
Simulation CPU 0 critical: IPC 0.018633 < 0.02
Simulation CPU 0 panic: IPC 0.009306 < 0.01
Simulation CPU 0 panic: IPC 8e-06 < 0.01
Simulation CPU 0 panic: IPC 0.0030944 < 0.01
Simulation CPU 0 panic: IPC 0.0084984 < 0.01
Simulation CPU 0 critical: IPC 0.010128 < 0.02
Simulation CPU 0 panic: IPC 0.0030958 < 0.01
Simulation CPU 0 critical: IPC 0.018635 < 0.02
Simulation CPU 0 critical: IPC 0.015525 < 0.02
Simulation CPU 0 panic: IPC 0.003084 < 0.01
Simulation CPU 0 panic: IPC 0.0093209 < 0.01
Simulation CPU 0 warning: IPC 0.040334 < 0.05
Simulation CPU 0 panic: IPC 0.0003344 < 0.01
Simulation CPU 0 panic: IPC 0.0001264 < 0.01
Simulation CPU 0 panic: IPC 8e-07 < 0.01
Simulation CPU 0 panic: IPC 1.6e-06 < 0.01
Simulation CPU 0 panic: IPC 8e-07 < 0.01
Simulation CPU 0 panic: IPC 8e-07 < 0.01
Simulation CPU 0 panic: IPC 8.8e-06 < 0.01
Simulation CPU 0 panic: IPC 8e-07 < 0.01
Simulation CPU 0 panic: IPC 0.0010825 < 0.01
Simulation CPU 0 critical: IPC 0.012459 < 0.02
Simulation CPU 0 critical: IPC 0.010631 < 0.02
Simulation CPU 0 critical: IPC 0.011066 < 0.02
Simulation CPU 0 panic: IPC 7.2e-06 < 0.01
Simulation CPU 0 panic: IPC 0.003121 < 0.01
Simulation CPU 0 panic: IPC 0.0030986 < 0.01
Simulation CPU 0 warning: IPC 0.036728 < 0.05
Simulation CPU 0 warning: IPC 0.029702 < 0.05
Heartbeat CPU 0 instructions: 10000002 cycles: 659053446 heartbeat IPC: 0.01517 cumulative IPC: 0.01517 (Simulation time: 00 hr 53 min 14 sec)
Simulation CPU 0 warning: IPC 0.02925 < 0.05
Simulation CPU 0 warning: IPC 0.046384 < 0.05
Simulation CPU 0 warning: IPC 0.029164 < 0.05
Simulation CPU 0 warning: IPC 0.02879 < 0.05
Simulation CPU 0 panic: IPC 0.0051085 < 0.01
Simulation CPU 0 warning: IPC 0.02399 < 0.05
Simulation CPU 0 warning: IPC 0.03414 < 0.05
Simulation CPU 0 warning: IPC 0.022203 < 0.05
Simulation CPU 0 panic: IPC 0.0084508 < 0.01
Simulation CPU 0 critical: IPC 0.012076 < 0.02
Simulation CPU 0 panic: IPC 0.0071009 < 0.01
Simulation CPU 0 critical: IPC 0.018628 < 0.02
Simulation CPU 0 panic: IPC 8e-06 < 0.01
Simulation CPU 0 panic: IPC 0.0062191 < 0.01
Simulation CPU 0 panic: IPC 0.000472 < 0.01
Simulation CPU 0 warning: IPC 0.046519 < 0.05
Simulation CPU 0 warning: IPC 0.027922 < 0.05
Simulation CPU 0 warning: IPC 0.028193 < 0.05
Simulation CPU 0 panic: IPC 0.000504 < 0.01
Simulation CPU 0 panic: IPC 8e-06 < 0.01
Simulation CPU 0 critical: IPC 0.014575 < 0.02
Simulation CPU 0 panic: IPC 0.003084 < 0.01
Simulation CPU 0 warning: IPC 0.021741 < 0.05
Simulation CPU 0 critical: IPC 0.018644 < 0.02
Simulation CPU 0 critical: IPC 0.016941 < 0.02
Simulation CPU 0 warning: IPC 0.041063 < 0.05
Heartbeat CPU 0 instructions: 20000002 cycles: 971733208 heartbeat IPC: 0.03198 cumulative IPC: 0.02058 (Simulation time: 01 hr 17 min 36 sec)
Simulation CPU 0 warning: IPC 0.021011 < 0.05
Simulation CPU 0 panic: IPC 8e-06 < 0.01
Simulation CPU 0 warning: IPC 0.021704 < 0.05
Simulation CPU 0 warning: IPC 0.049472 < 0.05
Simulation CPU 0 critical: IPC 0.015526 < 0.02
Simulation CPU 0 warning: IPC 0.021714 < 0.05
Simulation CPU 0 critical: IPC 0.01551 < 0.02
Simulation CPU 0 critical: IPC 0.018613 < 0.02
Simulation CPU 0 critical: IPC 0.012392 < 0.02
Simulation CPU 0 panic: IPC 0.0093017 < 0.01
Simulation CPU 0 critical: IPC 0.015508 < 0.02
Simulation CPU 0 warning: IPC 0.034145 < 0.05
Simulation CPU 0 critical: IPC 0.012406 < 0.02
Simulation CPU 0 warning: IPC 0.037298 < 0.05
Simulation CPU 0 panic: IPC 0.0031301 < 0.01
Simulation CPU 0 critical: IPC 0.015537 < 0.02
Simulation CPU 0 panic: IPC 0.000472 < 0.01
Simulation CPU 0 critical: IPC 0.015048 < 0.02
Simulation CPU 0 critical: IPC 0.012423 < 0.02
Simulation CPU 0 panic: IPC 0.000472 < 0.01
Simulation CPU 0 warning: IPC 0.036737 < 0.05
Simulation CPU 0 warning: IPC 0.024809 < 0.05
Simulation CPU 0 panic: IPC 0.0062005 < 0.01
Simulation CPU 0 warning: IPC 0.049616 < 0.05
Simulation CPU 0 panic: IPC 0.009301 < 0.01
Simulation CPU 0 panic: IPC 0.0031048 < 0.01
Simulation CPU 0 warning: IPC 0.034131 < 0.05
Simulation CPU 0 critical: IPC 0.015517 < 0.02
Heartbeat CPU 0 instructions: 30000004 cycles: 1312094222 heartbeat IPC: 0.02938 cumulative IPC: 0.02286 (Simulation time: 01 hr 42 min 48 sec)
Simulation CPU 0 warning: IPC 0.037211 < 0.05
Simulation CPU 0 critical: IPC 0.012412 < 0.02
Simulation CPU 0 panic: IPC 0.0031018 < 0.01
Simulation CPU 0 panic: IPC 0.0062108 < 0.01
Simulation CPU 0 panic: IPC 0.0048863 < 0.01
Simulation CPU 0 panic: IPC 0.0093111 < 0.01
Simulation CPU 0 critical: IPC 0.012394 < 0.02
Simulation CPU 0 panic: IPC 1.59e-05 < 0.01
Simulation CPU 0 critical: IPC 0.015504 < 0.02
Simulation CPU 0 panic: IPC 0.0073798 < 0.01
Simulation CPU 0 warning: IPC 0.031614 < 0.05
Simulation CPU 0 panic: IPC 3.2e-06 < 0.01
Simulation CPU 0 panic: IPC 8.4e-05 < 0.01
Simulation CPU 0 panic: IPC 5.6e-06 < 0.01
Simulation CPU 0 warning: IPC 0.025285 < 0.05
Simulation CPU 0 warning: IPC 0.029274 < 0.05
Simulation CPU 0 warning: IPC 0.028859 < 0.05
Simulation CPU 0 panic: IPC 0.0046942 < 0.01
Simulation CPU 0 warning: IPC 0.024504 < 0.05
Simulation CPU 0 warning: IPC 0.043736 < 0.05
Simulation CPU 0 panic: IPC 0.0085768 < 0.01
Simulation CPU 0 warning: IPC 0.021453 < 0.05
Simulation CPU 0 panic: IPC 0.0041138 < 0.01
Simulation CPU 0 warning: IPC 0.020862 < 0.05
Simulation CPU 0 warning: IPC 0.038062 < 0.05
Simulation CPU 0 panic: IPC 0.0062027 < 0.01
Simulation CPU 0 panic: IPC 0.0031156 < 0.01
Simulation CPU 0 warning: IPC 0.037205 < 0.05
Simulation CPU 0 panic: IPC 0.0078495 < 0.01
Simulation CPU 0 critical: IPC 0.01385 < 0.02
Simulation CPU 0 warning: IPC 0.035432 < 0.05
Simulation CPU 0 panic: IPC 0.0062091 < 0.01
Simulation CPU 0 panic: IPC 0.0031298 < 0.01
Simulation CPU 0 panic: IPC 0.0062028 < 0.01
Simulation CPU 0 critical: IPC 0.018643 < 0.02
Simulation CPU 0 critical: IPC 0.018628 < 0.02
Simulation CPU 0 panic: IPC 0.000472 < 0.01
Simulation CPU 0 critical: IPC 0.011207 < 0.02
Simulation CPU 0 warning: IPC 0.025583 < 0.05
Simulation CPU 0 panic: IPC 0.0031006 < 0.01
Simulation CPU 0 warning: IPC 0.021719 < 0.05
Simulation CPU 0 critical: IPC 0.011128 < 0.02
Simulation CPU 0 critical: IPC 0.013677 < 0.02
Simulation CPU 0 critical: IPC 0.012404 < 0.02
Simulation CPU 0 panic: IPC 0.0031006 < 0.01
Heartbeat CPU 0 instructions: 40000005 cycles: 1804918692 heartbeat IPC: 0.02029 cumulative IPC: 0.02216 (Simulation time: 02 hr 16 min 48 sec)
Simulation CPU 0 warning: IPC 0.034142 < 0.05
Simulation CPU 0 warning: IPC 0.040305 < 0.05
Simulation CPU 0 warning: IPC 0.030423 < 0.05
Simulation CPU 0 warning: IPC 0.039679 < 0.05
Simulation CPU 0 warning: IPC 0.028914 < 0.05
Simulation CPU 0 critical: IPC 0.015727 < 0.02
Simulation CPU 0 panic: IPC 0.0066835 < 0.01
Simulation CPU 0 critical: IPC 0.013914 < 0.02
Simulation CPU 0 warning: IPC 0.043904 < 0.05
Simulation CPU 0 warning: IPC 0.039408 < 0.05
Simulation CPU 0 warning: IPC 0.042126 < 0.05
Simulation CPU 0 warning: IPC 0.044396 < 0.05
Simulation CPU 0 warning: IPC 0.03002 < 0.05
Simulation CPU 0 warning: IPC 0.046924 < 0.05
Simulation CPU 0 warning: IPC 0.024422 < 0.05
Simulation CPU 0 critical: IPC 0.012422 < 0.02
Simulation CPU 0 critical: IPC 0.012448 < 0.02
Simulation CPU 0 panic: IPC 0.0093099 < 0.01
Simulation CPU 0 warning: IPC 0.028105 < 0.05
Simulation CPU 0 warning: IPC 0.029075 < 0.05
Simulation CPU 0 warning: IPC 0.043582 < 0.05
Simulation CPU 0 warning: IPC 0.032624 < 0.05
Simulation CPU 0 warning: IPC 0.04032 < 0.05
Heartbeat CPU 0 instructions: 50000009 cycles: 2071401145 heartbeat IPC: 0.03753 cumulative IPC: 0.02414 (Simulation time: 02 hr 36 min 48 sec)
Simulation CPU 0 warning: IPC 0.035837 < 0.05
Simulation CPU 0 warning: IPC 0.029294 < 0.05
Simulation CPU 0 warning: IPC 0.027913 < 0.05
Simulation CPU 0 critical: IPC 0.012347 < 0.02
Simulation CPU 0 panic: IPC 0.0097134 < 0.01
Simulation CPU 0 warning: IPC 0.043051 < 0.05
Simulation CPU 0 critical: IPC 0.01469 < 0.02
Simulation CPU 0 critical: IPC 0.018962 < 0.02
Simulation CPU 0 warning: IPC 0.039158 < 0.05
Simulation CPU 0 warning: IPC 0.028763 < 0.05
Simulation CPU 0 warning: IPC 0.025781 < 0.05
Simulation CPU 0 warning: IPC 0.035779 < 0.05
Simulation CPU 0 panic: IPC 0.0094624 < 0.01
Simulation CPU 0 warning: IPC 0.021707 < 0.05
Simulation CPU 0 warning: IPC 0.042239 < 0.05
Simulation CPU 0 warning: IPC 0.031905 < 0.05
Simulation CPU 0 panic: IPC 0.0084106 < 0.01
Simulation CPU 0 warning: IPC 0.04377 < 0.05
Simulation CPU 0 panic: IPC 0.0049182 < 0.01
Simulation CPU 0 panic: IPC 0.0002752 < 0.01
Simulation CPU 0 panic: IPC 0.0004992 < 0.01
Simulation CPU 0 warning: IPC 0.037378 < 0.05
Simulation CPU 0 critical: IPC 0.016418 < 0.02
Simulation CPU 0 critical: IPC 0.016256 < 0.02
Simulation CPU 0 warning: IPC 0.047494 < 0.05
Simulation CPU 0 critical: IPC 0.010089 < 0.02
Heartbeat CPU 0 instructions: 60000012 cycles: 2393323713 heartbeat IPC: 0.03106 cumulative IPC: 0.02507 (Simulation time: 03 hr 04 min 01 sec)
Simulation CPU 0 warning: IPC 0.030063 < 0.05
Simulation CPU 0 panic: IPC 0.0071695 < 0.01
Simulation CPU 0 panic: IPC 0.0062084 < 0.01
Simulation CPU 0 critical: IPC 0.018601 < 0.02
Simulation CPU 0 panic: IPC 0.0031085 < 0.01
Simulation CPU 0 warning: IPC 0.024266 < 0.05
Simulation CPU 0 critical: IPC 0.015975 < 0.02
Simulation CPU 0 critical: IPC 0.016903 < 0.02
Simulation CPU 0 panic: IPC 0.0064425 < 0.01
Simulation CPU 0 critical: IPC 0.016532 < 0.02
Simulation CPU 0 panic: IPC 0.0031036 < 0.01
Simulation CPU 0 critical: IPC 0.012432 < 0.02
Simulation CPU 0 panic: IPC 0.003084 < 0.01
Simulation CPU 0 panic: IPC 0.0031205 < 0.01
Simulation CPU 0 panic: IPC 0.0031204 < 0.01
Simulation CPU 0 critical: IPC 0.015519 < 0.02
Simulation CPU 0 warning: IPC 0.037201 < 0.05
Simulation CPU 0 panic: IPC 0.0092978 < 0.01
Simulation CPU 0 critical: IPC 0.010541 < 0.02
Simulation CPU 0 warning: IPC 0.045318 < 0.05
Simulation CPU 0 panic: IPC 0.0040887 < 0.01
Simulation CPU 0 panic: IPC 0.0026126 < 0.01
Simulation CPU 0 critical: IPC 0.015526 < 0.02
Simulation CPU 0 warning: IPC 0.049332 < 0.05
Simulation CPU 0 warning: IPC 0.041064 < 0.05
Simulation CPU 0 warning: IPC 0.02866 < 0.05
Simulation CPU 0 panic: IPC 0.006215 < 0.01
Simulation CPU 0 warning: IPC 0.020633 < 0.05
Simulation CPU 0 warning: IPC 0.026898 < 0.05
Simulation CPU 0 panic: IPC 0.0031046 < 0.01
Simulation CPU 0 critical: IPC 0.016003 < 0.02
Simulation CPU 0 panic: IPC 0.0026233 < 0.01
Simulation CPU 0 critical: IPC 0.010371 < 0.02
Heartbeat CPU 0 instructions: 70000012 cycles: 2798387824 heartbeat IPC: 0.02469 cumulative IPC: 0.02501 (Simulation time: 03 hr 37 min 15 sec)
Simulation CPU 0 panic: IPC 0.0069782 < 0.01
Simulation CPU 0 panic: IPC 0.0005464 < 0.01
Simulation CPU 0 warning: IPC 0.047184 < 0.05
Simulation CPU 0 panic: IPC 0.0093234 < 0.01
Simulation CPU 0 panic: IPC 0.0030368 < 0.01
Simulation CPU 0 panic: IPC 0.0031966 < 0.01
Simulation CPU 0 critical: IPC 0.015536 < 0.02
Simulation CPU 0 warning: IPC 0.03103 < 0.05
Simulation CPU 0 critical: IPC 0.017233 < 0.02
Simulation CPU 0 panic: IPC 0.0018687 < 0.01
Simulation CPU 0 warning: IPC 0.028828 < 0.05
Simulation CPU 0 panic: IPC 0.0048377 < 0.01
Simulation CPU 0 panic: IPC 0.0062376 < 0.01
Simulation CPU 0 panic: IPC 0.000472 < 0.01
Simulation CPU 0 panic: IPC 0.0026286 < 0.01
Simulation CPU 0 critical: IPC 0.018433 < 0.02
Simulation CPU 0 warning: IPC 0.040478 < 0.05
Simulation CPU 0 panic: IPC 0.0006496 < 0.01
Simulation CPU 0 panic: IPC 0.0023128 < 0.01
Simulation CPU 0 panic: IPC 4.24e-05 < 0.01
Simulation CPU 0 panic: IPC 6.08e-05 < 0.01
Simulation CPU 0 warning: IPC 0.024836 < 0.05
Simulation CPU 0 panic: IPC 0.003113 < 0.01
Simulation CPU 0 panic: IPC 0.0062012 < 0.01
Simulation CPU 0 warning: IPC 0.030199 < 0.05
Simulation CPU 0 panic: IPC 0.0031052 < 0.01
Simulation CPU 0 panic: IPC 0.0031162 < 0.01
Simulation CPU 0 warning: IPC 0.031277 < 0.05
Simulation CPU 0 panic: IPC 0.0002752 < 0.01
Simulation CPU 0 panic: IPC 8.32e-05 < 0.01
Simulation CPU 0 warning: IPC 0.023593 < 0.05
Simulation CPU 0 panic: IPC 0.0052251 < 0.01
Simulation CPU 0 warning: IPC 0.021098 < 0.05
Simulation CPU 0 critical: IPC 0.018616 < 0.02
Simulation CPU 0 warning: IPC 0.021708 < 0.05
Simulation CPU 0 panic: IPC 0.000472 < 0.01
Simulation CPU 0 warning: IPC 0.045463 < 0.05
Simulation CPU 0 panic: IPC 0.0044782 < 0.01
Simulation CPU 0 panic: IPC 1.56e-05 < 0.01
Simulation CPU 0 panic: IPC 0.003104 < 0.01
Simulation CPU 0 panic: IPC 0.0093379 < 0.01
Simulation CPU 0 critical: IPC 0.015509 < 0.02
Simulation CPU 0 panic: IPC 0.0093226 < 0.01
Simulation CPU 0 critical: IPC 0.012911 < 0.02
Heartbeat CPU 0 instructions: 80000016 cycles: 3309711258 heartbeat IPC: 0.01956 cumulative IPC: 0.02417 (Simulation time: 04 hr 19 min 13 sec)
Simulation CPU 0 warning: IPC 0.029173 < 0.05
Simulation CPU 0 warning: IPC 0.023106 < 0.05
Simulation CPU 0 critical: IPC 0.01551 < 0.02
Simulation CPU 0 panic: IPC 0 < 0.01
Simulation CPU 0 panic: IPC 0.0062118 < 0.01
Simulation CPU 0 panic: IPC 0.0031086 < 0.01
Simulation CPU 0 warning: IPC 0.021707 < 0.05
Simulation CPU 0 panic: IPC 0.0031162 < 0.01
Simulation CPU 0 warning: IPC 0.031003 < 0.05
Simulation CPU 0 critical: IPC 0.015517 < 0.02
Simulation CPU 0 critical: IPC 0.011644 < 0.02
Simulation CPU 0 critical: IPC 0.019609 < 0.02
Simulation CPU 0 panic: IPC 0.0093115 < 0.01
Simulation CPU 0 critical: IPC 0.015503 < 0.02
Simulation CPU 0 panic: IPC 0.0031071 < 0.01
Simulation CPU 0 critical: IPC 0.014887 < 0.02
Simulation CPU 0 warning: IPC 0.043299 < 0.05
Simulation CPU 0 warning: IPC 0.029344 < 0.05
Simulation CPU 0 warning: IPC 0.028859 < 0.05
Simulation CPU 0 warning: IPC 0.035802 < 0.05
Simulation CPU 0 warning: IPC 0.03195 < 0.05
Simulation CPU 0 warning: IPC 0.049273 < 0.05
Simulation CPU 0 warning: IPC 0.03064 < 0.05
Heartbeat CPU 0 instructions: 90000018 cycles: 3617775069 heartbeat IPC: 0.03246 cumulative IPC: 0.02488 (Simulation time: 04 hr 45 min 35 sec)
Simulation CPU 0 warning: IPC 0.044167 < 0.05
Simulation CPU 0 critical: IPC 0.015484 < 0.02
Simulation CPU 0 warning: IPC 0.039333 < 0.05
Simulation CPU 0 critical: IPC 0.011977 < 0.02
Simulation CPU 0 warning: IPC 0.046092 < 0.05
Simulation CPU 0 warning: IPC 0.043697 < 0.05
Simulation CPU 0 critical: IPC 0.013923 < 0.02
Simulation CPU 0 panic: IPC 0.0031066 < 0.01
Simulation CPU 0 panic: IPC 0.000472 < 0.01
Simulation CPU 0 warning: IPC 0.049164 < 0.05
Simulation CPU 0 warning: IPC 0.024824 < 0.05
Simulation CPU 0 critical: IPC 0.01241 < 0.02
Simulation CPU 0 critical: IPC 0.013795 < 0.02
Simulation CPU 0 warning: IPC 0.028819 < 0.05
Simulation CPU 0 warning: IPC 0.029177 < 0.05
Simulation CPU 0 warning: IPC 0.032865 < 0.05
Simulation CPU 0 warning: IPC 0.020319 < 0.05
Heartbeat CPU 0 instructions: 100000020 cycles: 3847307830 heartbeat IPC: 0.04357 cumulative IPC: 0.02599 (Simulation time: 05 hr 04 min 19 sec)
Simulation CPU 0 critical: IPC 0.017163 < 0.02
Simulation CPU 0 warning: IPC 0.021101 < 0.05
Simulation CPU 0 panic: IPC 0.0099377 < 0.01
Simulation CPU 0 panic: IPC 0.009306 < 0.01
Simulation CPU 0 warning: IPC 0.037221 < 0.05
Simulation CPU 0 warning: IPC 0.027908 < 0.05
Simulation CPU 0 warning: IPC 0.033023 < 0.05
Simulation CPU 0 warning: IPC 0.025897 < 0.05
Simulation CPU 0 panic: IPC 0.0030953 < 0.01
Simulation CPU 0 critical: IPC 0.01553 < 0.02
Simulation CPU 0 critical: IPC 0.012412 < 0.02
Simulation CPU 0 panic: IPC 0.0047915 < 0.01
Simulation CPU 0 critical: IPC 0.015513 < 0.02
Simulation CPU 0 panic: IPC 0.0031276 < 0.01
Simulation CPU 0 critical: IPC 0.0193 < 0.02
Simulation CPU 0 warning: IPC 0.027771 < 0.05
Simulation CPU 0 panic: IPC 0.0001359 < 0.01
Simulation CPU 0 panic: IPC 0.000472 < 0.01
Simulation CPU 0 panic: IPC 0.0026305 < 0.01
Simulation CPU 0 panic: IPC 0.0062024 < 0.01
Simulation CPU 0 panic: IPC 0.0031166 < 0.01
Simulation CPU 0 critical: IPC 0.016991 < 0.02
Simulation CPU 0 panic: IPC 0.0016255 < 0.01
Simulation CPU 0 panic: IPC 0.0062184 < 0.01
Simulation CPU 0 critical: IPC 0.012414 < 0.02
Simulation CPU 0 warning: IPC 0.027767 < 0.05
Simulation CPU 0 critical: IPC 0.018799 < 0.02
Simulation CPU 0 panic: IPC 0.0062032 < 0.01
Simulation CPU 0 panic: IPC 0.0031018 < 0.01
Simulation CPU 0 panic: IPC 0.0062335 < 0.01
Simulation CPU 0 warning: IPC 0.032549 < 0.05
Simulation CPU 0 panic: IPC 0.0093185 < 0.01
Simulation CPU 0 panic: IPC 0.0062274 < 0.01
Heartbeat CPU 0 instructions: 110000020 cycles: 4261622031 heartbeat IPC: 0.02414 cumulative IPC: 0.02581 (Simulation time: 05 hr 36 min 18 sec)
Simulation CPU 0 warning: IPC 0.027736 < 0.05
Simulation CPU 0 warning: IPC 0.044337 < 0.05
Simulation CPU 0 critical: IPC 0.018666 < 0.02
Simulation CPU 0 critical: IPC 0.016531 < 0.02
Simulation CPU 0 panic: IPC 0.0051826 < 0.01
Simulation CPU 0 warning: IPC 0.040354 < 0.05
Simulation CPU 0 warning: IPC 0.049623 < 0.05
Simulation CPU 0 panic: IPC 0.0031006 < 0.01
Simulation CPU 0 warning: IPC 0.039765 < 0.05
Simulation CPU 0 warning: IPC 0.042094 < 0.05
Simulation CPU 0 panic: IPC 0.0050182 < 0.01
Simulation CPU 0 panic: IPC 0.0031061 < 0.01
Simulation CPU 0 warning: IPC 0.027917 < 0.05
Simulation CPU 0 warning: IPC 0.027928 < 0.05
Simulation CPU 0 warning: IPC 0.02941 < 0.05
Simulation CPU 0 panic: IPC 0.0015956 < 0.01
Simulation CPU 0 warning: IPC 0.040336 < 0.05
Simulation CPU 0 panic: IPC 0.0031022 < 0.01
Simulation CPU 0 warning: IPC 0.034124 < 0.05
Simulation CPU 0 warning: IPC 0.033681 < 0.05
Simulation CPU 0 warning: IPC 0.03104 < 0.05
Simulation CPU 0 panic: IPC 0.009315 < 0.01
Simulation CPU 0 panic: IPC 0.0030953 < 0.01
Simulation CPU 0 critical: IPC 0.012429 < 0.02
Simulation CPU 0 panic: IPC 0.000472 < 0.01
Simulation CPU 0 panic: IPC 0.0026337 < 0.01
Simulation CPU 0 panic: IPC 0.0062042 < 0.01
Simulation CPU 0 warning: IPC 0.022955 < 0.05
Simulation CPU 0 warning: IPC 0.031295 < 0.05
Simulation CPU 0 critical: IPC 0.017095 < 0.02
Simulation CPU 0 warning: IPC 0.021712 < 0.05
Simulation CPU 0 panic: IPC 0.0031102 < 0.01
Simulation CPU 0 panic: IPC 0.0031226 < 0.01
Simulation CPU 0 critical: IPC 0.0124 < 0.02
Simulation CPU 0 warning: IPC 0.040328 < 0.05
Simulation CPU 0 panic: IPC 0.0031012 < 0.01
Heartbeat CPU 0 instructions: 120000024 cycles: 4666695867 heartbeat IPC: 0.02469 cumulative IPC: 0.02571 (Simulation time: 06 hr 05 min 23 sec)
Simulation CPU 0 warning: IPC 0.031003 < 0.05
Simulation CPU 0 warning: IPC 0.021715 < 0.05
Simulation CPU 0 warning: IPC 0.021711 < 0.05
Simulation CPU 0 critical: IPC 0.012397 < 0.02
Simulation CPU 0 warning: IPC 0.024816 < 0.05
Simulation CPU 0 panic: IPC 0.0083047 < 0.01
Simulation CPU 0 warning: IPC 0.044415 < 0.05
Simulation CPU 0 warning: IPC 0.042085 < 0.05
Simulation CPU 0 warning: IPC 0.026159 < 0.05
Simulation CPU 0 panic: IPC 0.0062047 < 0.01
Simulation CPU 0 critical: IPC 0.011248 < 0.02
Simulation CPU 0 panic: IPC 0.0061998 < 0.01
Simulation CPU 0 warning: IPC 0.043409 < 0.05
Simulation CPU 0 critical: IPC 0.015508 < 0.02
Simulation CPU 0 critical: IPC 0.012404 < 0.02
Simulation CPU 0 panic: IPC 0.0031006 < 0.01
Simulation CPU 0 warning: IPC 0.027915 < 0.05
Simulation CPU 0 critical: IPC 0.015503 < 0.02
Simulation CPU 0 panic: IPC 0.0062005 < 0.01
Simulation CPU 0 panic: IPC 0.0092958 < 0.01
Simulation CPU 0 warning: IPC 0.040332 < 0.05
Simulation CPU 0 panic: IPC 0.0031058 < 0.01
Simulation CPU 0 warning: IPC 0.031006 < 0.05
Simulation CPU 0 warning: IPC 0.032863 < 0.05
Simulation CPU 0 critical: IPC 0.015512 < 0.02
Simulation CPU 0 warning: IPC 0.034125 < 0.05
Simulation CPU 0 critical: IPC 0.015505 < 0.02
Simulation CPU 0 panic: IPC 0.0062091 < 0.01
Simulation CPU 0 panic: IPC 0.0035924 < 0.01
Simulation CPU 0 panic: IPC 0.0026332 < 0.01
Simulation CPU 0 warning: IPC 0.027907 < 0.05
Simulation CPU 0 warning: IPC 0.021717 < 0.05
Simulation CPU 0 critical: IPC 0.012402 < 0.02
Simulation CPU 0 critical: IPC 0.01855 < 0.02
Simulation CPU 0 critical: IPC 0.012459 < 0.02
Simulation CPU 0 panic: IPC 0.0062102 < 0.01
Simulation CPU 0 critical: IPC 0.012402 < 0.02
Simulation CPU 0 critical: IPC 0.018624 < 0.02
Simulation CPU 0 warning: IPC 0.033234 < 0.05
Simulation CPU 0 warning: IPC 0.028923 < 0.05
Heartbeat CPU 0 instructions: 130000024 cycles: 5090244135 heartbeat IPC: 0.02361 cumulative IPC: 0.02554 (Simulation time: 06 hr 39 min 17 sec)
Simulation CPU 0 warning: IPC 0.024808 < 0.05
Simulation CPU 0 warning: IPC 0.021711 < 0.05
Simulation CPU 0 critical: IPC 0.016107 < 0.02
Simulation CPU 0 warning: IPC 0.038343 < 0.05
Simulation CPU 0 warning: IPC 0.023094 < 0.05
Simulation CPU 0 warning: IPC 0.021711 < 0.05
Simulation CPU 0 critical: IPC 0.01242 < 0.02
Simulation CPU 0 panic: IPC 1.8e-05 < 0.01
Simulation CPU 0 panic: IPC 0.0062084 < 0.01
Simulation CPU 0 panic: IPC 0.0096442 < 0.01
Simulation CPU 0 critical: IPC 0.017865 < 0.02
Simulation CPU 0 warning: IPC 0.046515 < 0.05
Simulation CPU 0 panic: IPC 0.0031112 < 0.01
Simulation CPU 0 warning: IPC 0.038429 < 0.05
Heartbeat CPU 0 instructions: 140000027 cycles: 5329014819 heartbeat IPC: 0.04188 cumulative IPC: 0.02627 (Simulation time: 06 hr 58 min 03 sec)
Simulation CPU 0 warning: IPC 0.029289 < 0.05
Simulation CPU 0 warning: IPC 0.045306 < 0.05
Simulation CPU 0 warning: IPC 0.043766 < 0.05
Simulation CPU 0 critical: IPC 0.012422 < 0.02
Simulation CPU 0 critical: IPC 0.014262 < 0.02
Simulation CPU 0 warning: IPC 0.028804 < 0.05
Simulation CPU 0 warning: IPC 0.029317 < 0.05
Simulation CPU 0 critical: IPC 0.013859 < 0.02
Simulation CPU 0 critical: IPC 0.015247 < 0.02
Simulation CPU 0 warning: IPC 0.038104 < 0.05
Simulation CPU 0 warning: IPC 0.039079 < 0.05
Simulation CPU 0 warning: IPC 0.034844 < 0.05
Simulation CPU 0 warning: IPC 0.029956 < 0.05
Heartbeat CPU 0 instructions: 150000029 cycles: 5540065510 heartbeat IPC: 0.04738 cumulative IPC: 0.02708 (Simulation time: 07 hr 15 min 15 sec)
Simulation CPU 0 warning: IPC 0.028159 < 0.05
Simulation CPU 0 critical: IPC 0.013764 < 0.02
Simulation CPU 0 warning: IPC 0.037245 < 0.05
Simulation CPU 0 panic: IPC 0.0047864 < 0.01
Simulation CPU 0 critical: IPC 0.010732 < 0.02
Simulation CPU 0 panic: IPC 0.0062005 < 0.01
Simulation CPU 0 warning: IPC 0.031666 < 0.05
Simulation CPU 0 panic: IPC 0.0037618 < 0.01
Simulation CPU 0 warning: IPC 0.023191 < 0.05
Simulation CPU 0 panic: IPC 0.0001776 < 0.01
Simulation CPU 0 panic: IPC 6.32e-05 < 0.01
Simulation CPU 0 panic: IPC 1.28e-05 < 0.01
Simulation CPU 0 panic: IPC 9.12e-05 < 0.01
Simulation CPU 0 panic: IPC 8.8e-05 < 0.01
Simulation CPU 0 panic: IPC 0.0070581 < 0.01
Simulation CPU 0 panic: IPC 0.0082158 < 0.01
Simulation CPU 0 critical: IPC 0.015516 < 0.02
Simulation CPU 0 critical: IPC 0.012422 < 0.02
Simulation CPU 0 panic: IPC 0.0062005 < 0.01
Simulation CPU 0 panic: IPC 0.0031178 < 0.01
Simulation CPU 0 warning: IPC 0.041114 < 0.05
Simulation CPU 0 panic: IPC 0.0053959 < 0.01
Simulation CPU 0 panic: IPC 0.0093168 < 0.01
Simulation CPU 0 critical: IPC 0.012403 < 0.02
Simulation CPU 0 warning: IPC 0.046508 < 0.05
Simulation CPU 0 warning: IPC 0.026223 < 0.05
Heartbeat CPU 0 instructions: 160000031 cycles: 5898943659 heartbeat IPC: 0.02786 cumulative IPC: 0.02712 (Simulation time: 07 hr 43 min 49 sec)
Simulation CPU 0 warning: IPC 0.030949 < 0.05
Simulation CPU 0 warning: IPC 0.021376 < 0.05
Simulation CPU 0 warning: IPC 0.024333 < 0.05
Simulation CPU 0 warning: IPC 0.037209 < 0.05
Simulation CPU 0 panic: IPC 0.0062005 < 0.01
Simulation CPU 0 warning: IPC 0.043413 < 0.05
Simulation CPU 0 panic: IPC 7.2e-05 < 0.01
Simulation CPU 0 critical: IPC 0.012125 < 0.02
Simulation CPU 0 critical: IPC 0.018609 < 0.02
Simulation CPU 0 critical: IPC 0.01109 < 0.02
Simulation CPU 0 warning: IPC 0.034133 < 0.05
Simulation CPU 0 warning: IPC 0.024823 < 0.05
Simulation CPU 0 critical: IPC 0.013086 < 0.02
Simulation CPU 0 critical: IPC 0.015506 < 0.02
Simulation CPU 0 warning: IPC 0.033606 < 0.05
Simulation CPU 0 critical: IPC 0.012934 < 0.02
Simulation CPU 0 panic: IPC 0.0062036 < 0.01
Simulation CPU 0 warning: IPC 0.049602 < 0.05
Simulation CPU 0 panic: IPC 0.0054266 < 0.01
Simulation CPU 0 warning: IPC 0.030006 < 0.05
Simulation CPU 0 warning: IPC 0.022714 < 0.05
Simulation CPU 0 warning: IPC 0.020408 < 0.05
Heartbeat CPU 0 instructions: 170000034 cycles: 6193129144 heartbeat IPC: 0.03399 cumulative IPC: 0.02745 (Simulation time: 08 hr 08 min 31 sec)
Simulation CPU 0 critical: IPC 0.01439 < 0.02
Simulation CPU 0 warning: IPC 0.046981 < 0.05
Simulation CPU 0 panic: IPC 0.008829 < 0.01
Simulation CPU 0 critical: IPC 0.013191 < 0.02
Simulation CPU 0 panic: IPC 0.0085148 < 0.01
Simulation CPU 0 warning: IPC 0.021745 < 0.05
Simulation CPU 0 critical: IPC 0.012358 < 0.02
Simulation CPU 0 panic: IPC 0.0093019 < 0.01
Simulation CPU 0 panic: IPC 0.0031014 < 0.01
Simulation CPU 0 critical: IPC 0.01244 < 0.02
Simulation CPU 0 panic: IPC 0.0093023 < 0.01
Simulation CPU 0 panic: IPC 0.0039242 < 0.01
Simulation CPU 0 warning: IPC 0.031004 < 0.05
Simulation CPU 0 critical: IPC 0.012398 < 0.02
Simulation CPU 0 panic: IPC 0.0093252 < 0.01
Simulation CPU 0 warning: IPC 0.040326 < 0.05
Simulation CPU 0 warning: IPC 0.023187 < 0.05
Simulation CPU 0 critical: IPC 0.017137 < 0.02
Simulation CPU 0 warning: IPC 0.02002 < 0.05
Simulation CPU 0 warning: IPC 0.026511 < 0.05
Simulation CPU 0 critical: IPC 0.012879 < 0.02
Simulation CPU 0 warning: IPC 0.042943 < 0.05
Simulation CPU 0 critical: IPC 0.012407 < 0.02
Simulation CPU 0 warning: IPC 0.028888 < 0.05
Simulation CPU 0 warning: IPC 0.02269 < 0.05
Simulation CPU 0 panic: IPC 0.0031042 < 0.01
Simulation CPU 0 critical: IPC 0.012418 < 0.02
Heartbeat CPU 0 instructions: 180000036 cycles: 6542736713 heartbeat IPC: 0.0286 cumulative IPC: 0.02751 (Simulation time: 08 hr 37 min 00 sec)
Simulation CPU 0 warning: IPC 0.020462 < 0.05
Simulation CPU 0 critical: IPC 0.015522 < 0.02
Simulation CPU 0 warning: IPC 0.043406 < 0.05
Simulation CPU 0 warning: IPC 0.021745 < 0.05
Simulation CPU 0 warning: IPC 0.032056 < 0.05
Simulation CPU 0 warning: IPC 0.036727 < 0.05
Simulation CPU 0 panic: IPC 0.0092923 < 0.01
Simulation CPU 0 critical: IPC 0.012168 < 0.02
Simulation CPU 0 critical: IPC 0.015751 < 0.02
Simulation CPU 0 warning: IPC 0.034107 < 0.05
Simulation CPU 0 warning: IPC 0.03556 < 0.05
Simulation CPU 0 panic: IPC 0.006978 < 0.01
Simulation CPU 0 warning: IPC 0.025705 < 0.05
Simulation CPU 0 warning: IPC 0.031024 < 0.05
Simulation CPU 0 panic: IPC 0.0031006 < 0.01
Simulation CPU 0 warning: IPC 0.048184 < 0.05
Simulation CPU 0 critical: IPC 0.016987 < 0.02
Simulation CPU 0 warning: IPC 0.027915 < 0.05
Simulation CPU 0 warning: IPC 0.021723 < 0.05
Simulation CPU 0 warning: IPC 0.023849 < 0.05
Simulation CPU 0 panic: IPC 0.0062432 < 0.01
Simulation CPU 0 panic: IPC 0.0031058 < 0.01
Simulation CPU 0 panic: IPC 0.000472 < 0.01
Simulation CPU 0 warning: IPC 0.021234 < 0.05
Simulation CPU 0 critical: IPC 0.012413 < 0.02
Simulation CPU 0 critical: IPC 0.012408 < 0.02
Simulation CPU 0 critical: IPC 0.012414 < 0.02
Simulation CPU 0 panic: IPC 0.003106 < 0.01
Simulation CPU 0 critical: IPC 0.015539 < 0.02
Simulation CPU 0 critical: IPC 0.018628 < 0.02
Simulation CPU 0 panic: IPC 0.0016322 < 0.01
Simulation CPU 0 panic: IPC 0.00122 < 0.01
Simulation CPU 0 panic: IPC 1.76e-05 < 0.01
Simulation CPU 0 panic: IPC 3.44e-05 < 0.01
Simulation CPU 0 panic: IPC 8e-06 < 0.01
Simulation CPU 0 panic: IPC 8.8e-06 < 0.01
Simulation CPU 0 panic: IPC 1.6e-05 < 0.01
Simulation CPU 0 panic: IPC 1.6e-06 < 0.01
Simulation CPU 0 panic: IPC 8.8e-06 < 0.01
Simulation CPU 0 panic: IPC 1.76e-05 < 0.01
Simulation CPU 0 panic: IPC 1.6e-06 < 0.01
Simulation CPU 0 panic: IPC 1.68e-05 < 0.01
Simulation CPU 0 panic: IPC 3.2e-05 < 0.01
Simulation CPU 0 panic: IPC 2.4e-05 < 0.01
Simulation CPU 0 panic: IPC 1.6e-05 < 0.01
Simulation CPU 0 panic: IPC 1.6e-06 < 0.01
Simulation CPU 0 panic: IPC 1.04e-05 < 0.01
Simulation CPU 0 panic: IPC 1.84e-05 < 0.01
Simulation CPU 0 panic: IPC 0.0062424 < 0.01
Simulation CPU 0 warning: IPC 0.021714 < 0.05
Heartbeat CPU 0 instructions: 190000039 cycles: 7095646907 heartbeat IPC: 0.01809 cumulative IPC: 0.02678 (Simulation time: 09 hr 18 min 56 sec)
Simulation CPU 0 critical: IPC 0.010883 < 0.02
Simulation CPU 0 warning: IPC 0.028935 < 0.05
Simulation CPU 0 warning: IPC 0.022173 < 0.05
Simulation CPU 0 panic: IPC 0.0093163 < 0.01
Simulation CPU 0 warning: IPC 0.033176 < 0.05
Simulation CPU 0 warning: IPC 0.044333 < 0.05
Simulation CPU 0 critical: IPC 0.0186 < 0.02
Simulation CPU 0 warning: IPC 0.032853 < 0.05
Simulation CPU 0 warning: IPC 0.049316 < 0.05
Simulation CPU 0 critical: IPC 0.010886 < 0.02
Simulation CPU 0 warning: IPC 0.043639 < 0.05
Simulation CPU 0 warning: IPC 0.02171 < 0.05
Simulation CPU 0 warning: IPC 0.031028 < 0.05
Heartbeat CPU 0 instructions: 200000040 cycles: 7315947176 heartbeat IPC: 0.04539 cumulative IPC: 0.02734 (Simulation time: 09 hr 35 min 51 sec)
Simulation CPU 0 critical: IPC 0.013999 < 0.02
Simulation CPU 0 panic: IPC 0.0062028 < 0.01
Simulation CPU 0 warning: IPC 0.024822 < 0.05
Simulation CPU 0 critical: IPC 0.012403 < 0.02
Simulation CPU 0 warning: IPC 0.037224 < 0.05
Simulation CPU 0 critical: IPC 0.016398 < 0.02
Simulation CPU 0 warning: IPC 0.045658 < 0.05
Simulation CPU 0 panic: IPC 0.0062005 < 0.01
Simulation CPU 0 critical: IPC 0.012413 < 0.02
Simulation CPU 0 panic: IPC 0.0031006 < 0.01
Simulation CPU 0 critical: IPC 0.018607 < 0.02
Simulation CPU 0 warning: IPC 0.027901 < 0.05
Simulation CPU 0 panic: IPC 0.0079078 < 0.01
Simulation CPU 0 critical: IPC 0.019532 < 0.02
Simulation CPU 0 warning: IPC 0.034121 < 0.05
Simulation CPU 0 warning: IPC 0.021734 < 0.05
Simulation CPU 0 panic: IPC 0.0062449 < 0.01
Simulation CPU 0 warning: IPC 0.040363 < 0.05
Simulation CPU 0 warning: IPC 0.030228 < 0.05
Simulation CPU 0 warning: IPC 0.024807 < 0.05
Simulation CPU 0 warning: IPC 0.041678 < 0.05
Simulation CPU 0 warning: IPC 0.041888 < 0.05
Heartbeat CPU 0 instructions: 210000042 cycles: 7610133111 heartbeat IPC: 0.03399 cumulative IPC: 0.02759 (Simulation time: 09 hr 58 min 54 sec)
Simulation CPU 0 warning: IPC 0.029306 < 0.05
Simulation CPU 0 warning: IPC 0.028849 < 0.05
Simulation CPU 0 warning: IPC 0.028713 < 0.05
Simulation CPU 0 warning: IPC 0.029279 < 0.05
Simulation CPU 0 warning: IPC 0.028797 < 0.05
Simulation CPU 0 warning: IPC 0.028685 < 0.05
Simulation CPU 0 warning: IPC 0.029331 < 0.05
Simulation CPU 0 warning: IPC 0.036348 < 0.05
Simulation CPU 0 panic: IPC 0.0031024 < 0.01
Simulation CPU 0 warning: IPC 0.024819 < 0.05
Simulation CPU 0 panic: IPC 0.0062096 < 0.01
Simulation CPU 0 warning: IPC 0.03103 < 0.05
Simulation CPU 0 panic: IPC 0.0093087 < 0.01
Simulation CPU 0 critical: IPC 0.012407 < 0.02
Simulation CPU 0 warning: IPC 0.024806 < 0.05
Simulation CPU 0 critical: IPC 0.012416 < 0.02
Simulation CPU 0 panic: IPC 0.0062303 < 0.01
Simulation CPU 0 panic: IPC 0.000472 < 0.01
Simulation CPU 0 panic: IPC 0.0088333 < 0.01
Simulation CPU 0 warning: IPC 0.037207 < 0.05
Simulation CPU 0 panic: IPC 0.005695 < 0.01
Simulation CPU 0 panic: IPC 0.0036147 < 0.01
Simulation CPU 0 panic: IPC 0.0030744 < 0.01
Simulation CPU 0 warning: IPC 0.021711 < 0.05
Simulation CPU 0 warning: IPC 0.024807 < 0.05
Simulation CPU 0 warning: IPC 0.033071 < 0.05
Simulation CPU 0 panic: IPC 0.0072431 < 0.01
Simulation CPU 0 warning: IPC 0.049637 < 0.05
Simulation CPU 0 panic: IPC 0.0031006 < 0.01
Simulation CPU 0 warning: IPC 0.046519 < 0.05
Simulation CPU 0 warning: IPC 0.020039 < 0.05
Simulation CPU 0 warning: IPC 0.03578 < 0.05
Simulation CPU 0 warning: IPC 0.032173 < 0.05
Simulation CPU 0 panic: IPC 0.0019584 < 0.01
Heartbeat CPU 0 instructions: 220000045 cycles: 8005972216 heartbeat IPC: 0.02526 cumulative IPC: 0.02748 (Simulation time: 10 hr 29 min 59 sec)
Simulation CPU 0 warning: IPC 0.040317 < 0.05
Simulation CPU 0 critical: IPC 0.015509 < 0.02
Simulation CPU 0 warning: IPC 0.021716 < 0.05
Simulation CPU 0 panic: IPC 0.0062024 < 0.01
Simulation CPU 0 warning: IPC 0.046521 < 0.05
Simulation CPU 0 critical: IPC 0.018612 < 0.02
Simulation CPU 0 panic: IPC 0.0093055 < 0.01
Simulation CPU 0 warning: IPC 0.02481 < 0.05
Simulation CPU 0 warning: IPC 0.034115 < 0.05
Simulation CPU 0 panic: IPC 0.0071916 < 0.01
Simulation CPU 0 critical: IPC 0.014521 < 0.02
Simulation CPU 0 critical: IPC 0.01241 < 0.02
Simulation CPU 0 panic: IPC 0.0093049 < 0.01
Simulation CPU 0 warning: IPC 0.049609 < 0.05
Simulation CPU 0 warning: IPC 0.029949 < 0.05
Simulation CPU 0 critical: IPC 0.019662 < 0.02
Simulation CPU 0 warning: IPC 0.048249 < 0.05
Simulation CPU 0 panic: IPC 0.0013614 < 0.01
Simulation CPU 0 panic: IPC 0.0062116 < 0.01
Simulation CPU 0 panic: IPC 0.0017374 < 0.01
Simulation CPU 0 panic: IPC 0.0031024 < 0.01
Simulation CPU 0 warning: IPC 0.025456 < 0.05
Simulation CPU 0 warning: IPC 0.021056 < 0.05
Simulation CPU 0 warning: IPC 0.031012 < 0.05
Simulation CPU 0 critical: IPC 0.018577 < 0.02
Simulation CPU 0 critical: IPC 0.012403 < 0.02
Simulation CPU 0 warning: IPC 0.02424 < 0.05
Simulation CPU 0 warning: IPC 0.030214 < 0.05
Simulation CPU 0 critical: IPC 0.016313 < 0.02
Simulation CPU 0 warning: IPC 0.046509 < 0.05
Simulation CPU 0 critical: IPC 0.01446 < 0.02
Heartbeat CPU 0 instructions: 230000046 cycles: 8364835042 heartbeat IPC: 0.02787 cumulative IPC: 0.0275 (Simulation time: 10 hr 53 min 58 sec)
Simulation CPU 0 panic: IPC 0.00449 < 0.01
Simulation CPU 0 warning: IPC 0.029627 < 0.05
Simulation CPU 0 critical: IPC 0.019539 < 0.02
Simulation CPU 0 panic: IPC 1.84e-05 < 0.01
Simulation CPU 0 panic: IPC 3.36e-05 < 0.01
Simulation CPU 0 panic: IPC 1.92e-05 < 0.01
Simulation CPU 0 panic: IPC 9.84e-05 < 0.01
Simulation CPU 0 warning: IPC 0.024758 < 0.05
Simulation CPU 0 critical: IPC 0.011352 < 0.02
Simulation CPU 0 panic: IPC 0.0062084 < 0.01
Simulation CPU 0 warning: IPC 0.027942 < 0.05
Simulation CPU 0 warning: IPC 0.025469 < 0.05
Simulation CPU 0 critical: IPC 0.011708 < 0.02
Simulation CPU 0 warning: IPC 0.037204 < 0.05
Simulation CPU 0 panic: IPC 0.0055238 < 0.01
Simulation CPU 0 warning: IPC 0.040978 < 0.05
Simulation CPU 0 panic: IPC 0.0092978 < 0.01
Simulation CPU 0 warning: IPC 0.043417 < 0.05
Simulation CPU 0 critical: IPC 0.014659 < 0.02
Simulation CPU 0 critical: IPC 0.010479 < 0.02
Simulation CPU 0 panic: IPC 0.0062035 < 0.01
Simulation CPU 0 warning: IPC 0.049612 < 0.05
Simulation CPU 0 panic: IPC 0.0066738 < 0.01
Simulation CPU 0 panic: IPC 0.0088321 < 0.01
Simulation CPU 0 warning: IPC 0.024806 < 0.05
Simulation CPU 0 warning: IPC 0.044669 < 0.05
Simulation CPU 0 warning: IPC 0.048352 < 0.05
Simulation CPU 0 critical: IPC 0.012416 < 0.02
Simulation CPU 0 panic: IPC 0.0041046 < 0.01
Simulation CPU 0 warning: IPC 0.025281 < 0.05
Heartbeat CPU 0 instructions: 240000047 cycles: 8723732383 heartbeat IPC: 0.02786 cumulative IPC: 0.02751 (Simulation time: 11 hr 22 min 25 sec)
Simulation CPU 0 warning: IPC 0.025131 < 0.05
Simulation CPU 0 warning: IPC 0.037201 < 0.05
Simulation CPU 0 panic: IPC 0.0054607 < 0.01
Simulation CPU 0 warning: IPC 0.031004 < 0.05
Simulation CPU 0 critical: IPC 0.015507 < 0.02
Simulation CPU 0 warning: IPC 0.032864 < 0.05
Simulation CPU 0 warning: IPC 0.035344 < 0.05
Simulation CPU 0 warning: IPC 0.046509 < 0.05
Simulation CPU 0 warning: IPC 0.031009 < 0.05
Simulation CPU 0 warning: IPC 0.030065 < 0.05
Simulation CPU 0 critical: IPC 0.01955 < 0.02
Simulation CPU 0 warning: IPC 0.026013 < 0.05
Simulation CPU 0 critical: IPC 0.014593 < 0.02
Simulation CPU 0 warning: IPC 0.040309 < 0.05
Simulation CPU 0 warning: IPC 0.024827 < 0.05
Simulation CPU 0 panic: IPC 0.006203 < 0.01
Simulation CPU 0 warning: IPC 0.046264 < 0.05
Simulation CPU 0 warning: IPC 0.021967 < 0.05
Simulation CPU 0 warning: IPC 0.031003 < 0.05
Simulation CPU 0 critical: IPC 0.018623 < 0.02
Simulation CPU 0 critical: IPC 0.012405 < 0.02
Simulation CPU 0 warning: IPC 0.024798 < 0.05
Simulation CPU 0 warning: IPC 0.030136 < 0.05
Simulation CPU 0 panic: IPC 0.0070677 < 0.01
Simulation CPU 0 critical: IPC 0.011209 < 0.02
Simulation CPU 0 warning: IPC 0.041502 < 0.05
Simulation CPU 0 warning: IPC 0.032585 < 0.05
Heartbeat CPU 0 instructions: 250000047 cycles: 9036407673 heartbeat IPC: 0.03198 cumulative IPC: 0.02767 (Simulation time: 11 hr 47 min 11 sec)
Simulation CPU 0 panic: IPC 0.004311 < 0.01
Simulation CPU 0 warning: IPC 0.026698 < 0.05
Simulation CPU 0 critical: IPC 0.013317 < 0.02
Simulation CPU 0 panic: IPC 0.006206 < 0.01
Simulation CPU 0 warning: IPC 0.031326 < 0.05
Simulation CPU 0 critical: IPC 0.018605 < 0.02
Simulation CPU 0 panic: IPC 0 < 0.01
Simulation CPU 0 critical: IPC 0.018597 < 0.02
Simulation CPU 0 critical: IPC 0.012415 < 0.02
Simulation CPU 0 panic: IPC 0.0031012 < 0.01
Simulation CPU 0 critical: IPC 0.016143 < 0.02
Simulation CPU 0 warning: IPC 0.028892 < 0.05
Simulation CPU 0 warning: IPC 0.028693 < 0.05
Simulation CPU 0 critical: IPC 0.019262 < 0.02
Simulation CPU 0 warning: IPC 0.037266 < 0.05
Simulation CPU 0 panic: IPC 0.0081045 < 0.01
Simulation CPU 0 warning: IPC 0.028791 < 0.05
Simulation CPU 0 warning: IPC 0.028724 < 0.05
Simulation CPU 0 warning: IPC 0.028417 < 0.05
Simulation CPU 0 warning: IPC 0.029873 < 0.05
Simulation CPU 0 warning: IPC 0.030053 < 0.05
Simulation CPU 0 critical: IPC 0.015005 < 0.02
Simulation CPU 0 warning: IPC 0.031014 < 0.05
Simulation CPU 0 warning: IPC 0.024551 < 0.05
Simulation CPU 0 warning: IPC 0.031277 < 0.05
Simulation CPU 0 warning: IPC 0.027174 < 0.05
Simulation CPU 0 panic: IPC 0.0007056 < 0.01
Simulation CPU 0 panic: IPC 0.0023968 < 0.01
Simulation CPU 0 panic: IPC 0.0084298 < 0.01
Heartbeat CPU 0 instructions: 260000051 cycles: 9381449411 heartbeat IPC: 0.02898 cumulative IPC: 0.02771 (Simulation time: 12 hr 11 min 42 sec)
Simulation CPU 0 critical: IPC 0.012405 < 0.02
Simulation CPU 0 warning: IPC 0.021706 < 0.05
Simulation CPU 0 critical: IPC 0.015516 < 0.02
Simulation CPU 0 warning: IPC 0.027916 < 0.05
Simulation CPU 0 warning: IPC 0.02171 < 0.05
Simulation CPU 0 warning: IPC 0.032315 < 0.05
Simulation CPU 0 warning: IPC 0.02363 < 0.05
Simulation CPU 0 warning: IPC 0.041224 < 0.05
Simulation CPU 0 critical: IPC 0.017601 < 0.02
Simulation CPU 0 warning: IPC 0.028514 < 0.05
Simulation CPU 0 warning: IPC 0.0273 < 0.05
Simulation CPU 0 panic: IPC 0.0015792 < 0.01
Simulation CPU 0 warning: IPC 0.028092 < 0.05
Simulation CPU 0 warning: IPC 0.035623 < 0.05
Simulation CPU 0 warning: IPC 0.028726 < 0.05
Simulation CPU 0 warning: IPC 0.029281 < 0.05
Simulation CPU 0 warning: IPC 0.027331 < 0.05
Simulation CPU 0 warning: IPC 0.030324 < 0.05
Simulation CPU 0 warning: IPC 0.029313 < 0.05
Simulation CPU 0 warning: IPC 0.028932 < 0.05
Simulation CPU 0 warning: IPC 0.02308 < 0.05
Simulation CPU 0 warning: IPC 0.035275 < 0.05
Simulation CPU 0 panic: IPC 0.0031006 < 0.01
Simulation CPU 0 warning: IPC 0.025997 < 0.05
Simulation CPU 0 warning: IPC 0.028826 < 0.05
Simulation CPU 0 warning: IPC 0.02885 < 0.05
Simulation CPU 0 warning: IPC 0.040389 < 0.05
Simulation CPU 0 critical: IPC 0.017613 < 0.02
Simulation CPU 0 critical: IPC 0.010297 < 0.02
Simulation CPU 0 warning: IPC 0.047773 < 0.05
Simulation CPU 0 critical: IPC 0.014264 < 0.02
Simulation CPU 0 warning: IPC 0.043298 < 0.05
Simulation CPU 0 warning: IPC 0.029149 < 0.05
Heartbeat CPU 0 instructions: 270000051 cycles: 9740323989 heartbeat IPC: 0.02786 cumulative IPC: 0.02772 (Simulation time: 12 hr 39 min 34 sec)
Simulation CPU 0 warning: IPC 0.028879 < 0.05
Simulation CPU 0 warning: IPC 0.028882 < 0.05
Simulation CPU 0 warning: IPC 0.029153 < 0.05
Simulation CPU 0 warning: IPC 0.021702 < 0.05
Simulation CPU 0 critical: IPC 0.018609 < 0.02
Simulation CPU 0 critical: IPC 0.018602 < 0.02
Simulation CPU 0 warning: IPC 0.034122 < 0.05
Simulation CPU 0 warning: IPC 0.031906 < 0.05
Simulation CPU 0 warning: IPC 0.033213 < 0.05
Simulation CPU 0 warning: IPC 0.040531 < 0.05
Simulation CPU 0 critical: IPC 0.012866 < 0.02
Simulation CPU 0 warning: IPC 0.03411 < 0.05
Simulation CPU 0 warning: IPC 0.036428 < 0.05
Simulation CPU 0 critical: IPC 0.013173 < 0.02
Simulation CPU 0 critical: IPC 0.010327 < 0.02
Simulation CPU 0 warning: IPC 0.027919 < 0.05
Simulation CPU 0 critical: IPC 0.013777 < 0.02
Simulation CPU 0 warning: IPC 0.026548 < 0.05
Simulation CPU 0 warning: IPC 0.041369 < 0.05
Simulation CPU 0 panic: IPC 0.0038074 < 0.01
Simulation CPU 0 warning: IPC 0.021019 < 0.05
Simulation CPU 0 warning: IPC 0.027759 < 0.05
Simulation CPU 0 critical: IPC 0.012409 < 0.02
Simulation CPU 0 panic: IPC 0.0030999 < 0.01
Heartbeat CPU 0 instructions: 280000052 cycles: 10053006865 heartbeat IPC: 0.03198 cumulative IPC: 0.02785 (Simulation time: 13 hr 03 min 19 sec)
Simulation CPU 0 panic: IPC 0.0093067 < 0.01
Simulation CPU 0 panic: IPC 0.0031006 < 0.01
Simulation CPU 0 warning: IPC 0.048168 < 0.05
Simulation CPU 0 critical: IPC 0.012402 < 0.02
Simulation CPU 0 critical: IPC 0.010544 < 0.02
Simulation CPU 0 panic: IPC 0.0093022 < 0.01
Simulation CPU 0 critical: IPC 0.016489 < 0.02
Simulation CPU 0 warning: IPC 0.039795 < 0.05
Simulation CPU 0 warning: IPC 0.046057 < 0.05
Simulation CPU 0 warning: IPC 0.036892 < 0.05
Simulation CPU 0 warning: IPC 0.037239 < 0.05
Simulation CPU 0 panic: IPC 0.0062005 < 0.01
Simulation CPU 0 panic: IPC 0.0031024 < 0.01
Simulation CPU 0 critical: IPC 0.018621 < 0.02
Simulation CPU 0 panic: IPC 0.0031006 < 0.01
Simulation CPU 0 panic: IPC 0.0031144 < 0.01
Simulation CPU 0 panic: IPC 0.0062078 < 0.01
Simulation CPU 0 critical: IPC 0.01465 < 0.02
Simulation CPU 0 warning: IPC 0.022769 < 0.05
Heartbeat CPU 0 instructions: 290000052 cycles: 10337952367 heartbeat IPC: 0.03509 cumulative IPC: 0.02805 (Simulation time: 13 hr 26 min 22 sec)
Simulation CPU 0 warning: IPC 0.027914 < 0.05
Simulation CPU 0 critical: IPC 0.017446 < 0.02
Simulation CPU 0 panic: IPC 0.0042734 < 0.01
Simulation CPU 0 warning: IPC 0.031002 < 0.05
Simulation CPU 0 warning: IPC 0.026294 < 0.05
Simulation CPU 0 warning: IPC 0.022178 < 0.05
Simulation CPU 0 critical: IPC 0.016244 < 0.02
Simulation CPU 0 warning: IPC 0.029799 < 0.05
Simulation CPU 0 warning: IPC 0.025777 < 0.05
Simulation CPU 0 panic: IPC 0.0058631 < 0.01
Simulation CPU 0 warning: IPC 0.034124 < 0.05
Simulation CPU 0 warning: IPC 0.028653 < 0.05
Simulation CPU 0 warning: IPC 0.024143 < 0.05
Simulation CPU 0 warning: IPC 0.029344 < 0.05
Simulation CPU 0 panic: IPC 0.0085265 < 0.01
Simulation CPU 0 critical: IPC 0.014273 < 0.02
Simulation CPU 0 critical: IPC 0.012975 < 0.02
Simulation CPU 0 warning: IPC 0.044568 < 0.05
Simulation CPU 0 warning: IPC 0.029335 < 0.05
Simulation CPU 0 warning: IPC 0.042412 < 0.05
Simulation CPU 0 critical: IPC 0.015516 < 0.02
Simulation CPU 0 panic: IPC 0.0031174 < 0.01
Simulation CPU 0 panic: IPC 0.003103 < 0.01
Simulation CPU 0 warning: IPC 0.030238 < 0.05
Heartbeat CPU 0 instructions: 300000056 cycles: 10641396372 heartbeat IPC: 0.03296 cumulative IPC: 0.02819 (Simulation time: 13 hr 50 min 34 sec)
Simulation CPU 0 critical: IPC 0.014491 < 0.02
Simulation CPU 0 warning: IPC 0.041331 < 0.05
Simulation CPU 0 panic: IPC 0.0031184 < 0.01
Simulation CPU 0 critical: IPC 0.015503 < 0.02
Simulation CPU 0 warning: IPC 0.023874 < 0.05
Simulation CPU 0 warning: IPC 0.041232 < 0.05
Simulation CPU 0 critical: IPC 0.016996 < 0.02
Simulation CPU 0 critical: IPC 0.014079 < 0.02
Simulation CPU 0 panic: IPC 0.0062198 < 0.01
Simulation CPU 0 critical: IPC 0.012417 < 0.02
Simulation CPU 0 warning: IPC 0.024822 < 0.05
Simulation CPU 0 critical: IPC 0.015517 < 0.02
Simulation CPU 0 panic: IPC 0.006206 < 0.01
Simulation CPU 0 warning: IPC 0.034133 < 0.05
Simulation CPU 0 warning: IPC 0.031048 < 0.05
Simulation CPU 0 warning: IPC 0.026883 < 0.05
Simulation CPU 0 critical: IPC 0.01659 < 0.02
Simulation CPU 0 critical: IPC 0.018449 < 0.02
Simulation CPU 0 warning: IPC 0.039577 < 0.05
Simulation CPU 0 warning: IPC 0.040777 < 0.05
Simulation CPU 0 warning: IPC 0.026823 < 0.05
Simulation CPU 0 warning: IPC 0.020916 < 0.05
Simulation CPU 0 warning: IPC 0.031055 < 0.05
Simulation CPU 0 critical: IPC 0.013199 < 0.02
Simulation CPU 0 critical: IPC 0.016205 < 0.02
Simulation CPU 0 panic: IPC 0.0051695 < 0.01
Heartbeat CPU 0 instructions: 310000056 cycles: 10963309282 heartbeat IPC: 0.03106 cumulative IPC: 0.02828 (Simulation time: 14 hr 17 min 08 sec)
Simulation CPU 0 warning: IPC 0.049652 < 0.05
Simulation CPU 0 critical: IPC 0.018615 < 0.02
Simulation CPU 0 panic: IPC 0.0031119 < 0.01
Simulation CPU 0 warning: IPC 0.031018 < 0.05
Simulation CPU 0 warning: IPC 0.02171 < 0.05
Simulation CPU 0 panic: IPC 0.0031012 < 0.01
Simulation CPU 0 warning: IPC 0.031021 < 0.05
Simulation CPU 0 panic: IPC 0.0093126 < 0.01
Simulation CPU 0 critical: IPC 0.015522 < 0.02
Simulation CPU 0 critical: IPC 0.019436 < 0.02
Simulation CPU 0 warning: IPC 0.034383 < 0.05
Simulation CPU 0 warning: IPC 0.028821 < 0.05
Simulation CPU 0 warning: IPC 0.028846 < 0.05
Simulation CPU 0 warning: IPC 0.027575 < 0.05
Simulation CPU 0 panic: IPC 0.0005063 < 0.01
Simulation CPU 0 warning: IPC 0.0279 < 0.05
Simulation CPU 0 warning: IPC 0.030179 < 0.05
Simulation CPU 0 warning: IPC 0.028868 < 0.05
Simulation CPU 0 panic: IPC 0.0091927 < 0.01
Simulation CPU 0 critical: IPC 0.015534 < 0.02
Simulation CPU 0 warning: IPC 0.040309 < 0.05
Simulation CPU 0 critical: IPC 0.012405 < 0.02
Simulation CPU 0 panic: IPC 0.0093035 < 0.01
Simulation CPU 0 warning: IPC 0.040325 < 0.05
Simulation CPU 0 critical: IPC 0.01343 < 0.02
Simulation CPU 0 warning: IPC 0.039282 < 0.05
Simulation CPU 0 critical: IPC 0.015503 < 0.02
Simulation CPU 0 panic: IPC 0.0099674 < 0.01
Simulation CPU 0 critical: IPC 0.015308 < 0.02
Simulation CPU 0 warning: IPC 0.026457 < 0.05
Simulation CPU 0 warning: IPC 0.035748 < 0.05
Simulation CPU 0 critical: IPC 0.017912 < 0.02
Simulation CPU 0 panic: IPC 0.0070531 < 0.01
Simulation CPU 0 warning: IPC 0.039089 < 0.05
Simulation CPU 0 warning: IPC 0.041541 < 0.05
Heartbeat CPU 0 instructions: 320000059 cycles: 11349875189 heartbeat IPC: 0.02587 cumulative IPC: 0.02819 (Simulation time: 14 hr 43 min 29 sec)
Simulation CPU 0 warning: IPC 0.041508 < 0.05
Simulation CPU 0 warning: IPC 0.030918 < 0.05
Simulation CPU 0 warning: IPC 0.028828 < 0.05
Simulation CPU 0 warning: IPC 0.028851 < 0.05
Simulation CPU 0 warning: IPC 0.030721 < 0.05
Simulation CPU 0 warning: IPC 0.027349 < 0.05
Simulation CPU 0 warning: IPC 0.028924 < 0.05
Simulation CPU 0 warning: IPC 0.036429 < 0.05
Simulation CPU 0 critical: IPC 0.017598 < 0.02
Simulation CPU 0 warning: IPC 0.022717 < 0.05
Simulation CPU 0 warning: IPC 0.043413 < 0.05
Simulation CPU 0 panic: IPC 8e-06 < 0.01
Simulation CPU 0 warning: IPC 0.020125 < 0.05
Simulation CPU 0 warning: IPC 0.044975 < 0.05
Simulation CPU 0 warning: IPC 0.020014 < 0.05
Simulation CPU 0 warning: IPC 0.045093 < 0.05
Simulation CPU 0 critical: IPC 0.013497 < 0.02
Simulation CPU 0 panic: IPC 0.0062005 < 0.01
Simulation CPU 0 critical: IPC 0.015511 < 0.02
Simulation CPU 0 warning: IPC 0.046371 < 0.05
Simulation CPU 0 warning: IPC 0.021705 < 0.05
Simulation CPU 0 panic: IPC 0.0093018 < 0.01
Simulation CPU 0 warning: IPC 0.045363 < 0.05
Simulation CPU 0 warning: IPC 0.032183 < 0.05
Simulation CPU 0 panic: IPC 0.0078857 < 0.01
Simulation CPU 0 critical: IPC 0.010701 < 0.02
Simulation CPU 0 warning: IPC 0.043418 < 0.05
Simulation CPU 0 warning: IPC 0.041584 < 0.05
Heartbeat CPU 0 instructions: 330000059 cycles: 11662552365 heartbeat IPC: 0.03198 cumulative IPC: 0.0283 (Simulation time: 15 hr 09 min 14 sec)
Simulation CPU 0 panic: IPC 0.0026279 < 0.01
Simulation CPU 0 critical: IPC 0.019069 < 0.02
Simulation CPU 0 critical: IPC 0.011933 < 0.02
Simulation CPU 0 warning: IPC 0.037478 < 0.05
Simulation CPU 0 critical: IPC 0.015502 < 0.02
Simulation CPU 0 panic: IPC 0.0093068 < 0.01
Simulation CPU 0 warning: IPC 0.020461 < 0.05
Simulation CPU 0 panic: IPC 7.2e-05 < 0.01
Simulation CPU 0 panic: IPC 0.0016288 < 0.01
Simulation CPU 0 panic: IPC 1.84e-05 < 0.01
Simulation CPU 0 panic: IPC 0.0001312 < 0.01
Simulation CPU 0 panic: IPC 3.2e-06 < 0.01
Simulation CPU 0 panic: IPC 1.36e-05 < 0.01
Simulation CPU 0 panic: IPC 0.0024919 < 0.01
Simulation CPU 0 panic: IPC 0.0047004 < 0.01
Simulation CPU 0 critical: IPC 0.012413 < 0.02
Simulation CPU 0 warning: IPC 0.024817 < 0.05
Simulation CPU 0 critical: IPC 0.015703 < 0.02
Simulation CPU 0 warning: IPC 0.043214 < 0.05
Simulation CPU 0 warning: IPC 0.043807 < 0.05
Simulation CPU 0 warning: IPC 0.046168 < 0.05
Simulation CPU 0 panic: IPC 0.004067 < 0.01
Simulation CPU 0 warning: IPC 0.040332 < 0.05
Simulation CPU 0 warning: IPC 0.046509 < 0.05
Heartbeat CPU 0 instructions: 340000061 cycles: 11993724250 heartbeat IPC: 0.0302 cumulative IPC: 0.02835 (Simulation time: 15 hr 37 min 59 sec)
Simulation CPU 0 warning: IPC 0.029333 < 0.05
Simulation CPU 0 panic: IPC 0.0050973 < 0.01
Simulation CPU 0 warning: IPC 0.037208 < 0.05
Simulation CPU 0 warning: IPC 0.036471 < 0.05
Simulation CPU 0 warning: IPC 0.021722 < 0.05
Simulation CPU 0 critical: IPC 0.012396 < 0.02
Simulation CPU 0 panic: IPC 0.0007865 < 0.01
Simulation CPU 0 warning: IPC 0.035844 < 0.05
Simulation CPU 0 warning: IPC 0.049817 < 0.05
Simulation CPU 0 warning: IPC 0.036642 < 0.05
Simulation CPU 0 warning: IPC 0.021409 < 0.05
Simulation CPU 0 critical: IPC 0.016133 < 0.02
Simulation CPU 0 panic: IPC 0.0031009 < 0.01
Simulation CPU 0 warning: IPC 0.043416 < 0.05
Simulation CPU 0 warning: IPC 0.046522 < 0.05
Simulation CPU 0 panic: IPC 0.003109 < 0.01
Heartbeat CPU 0 instructions: 350000063 cycles: 12241740696 heartbeat IPC: 0.04032 cumulative IPC: 0.02859 (Simulation time: 15 hr 58 min 16 sec)
Simulation CPU 0 warning: IPC 0.048512 < 0.05
Simulation CPU 0 panic: IPC 0.0010976 < 0.01
Simulation CPU 0 warning: IPC 0.021709 < 0.05
Simulation CPU 0 warning: IPC 0.02002 < 0.05
Simulation CPU 0 warning: IPC 0.043431 < 0.05
Simulation CPU 0 critical: IPC 0.015498 < 0.02
Simulation CPU 0 panic: IPC 0.0030999 < 0.01
Simulation CPU 0 panic: IPC 0.0093041 < 0.01
Simulation CPU 0 panic: IPC 0.0093102 < 0.01
Simulation CPU 0 warning: IPC 0.045773 < 0.05
Simulation CPU 0 warning: IPC 0.02817 < 0.05
Simulation CPU 0 panic: IPC 0.009303 < 0.01
Simulation CPU 0 warning: IPC 0.044155 < 0.05
Simulation CPU 0 warning: IPC 0.04031 < 0.05
Simulation CPU 0 warning: IPC 0.027903 < 0.05
Simulation CPU 0 warning: IPC 0.043405 < 0.05
Simulation CPU 0 critical: IPC 0.018596 < 0.02
Simulation CPU 0 panic: IPC 0.0017278 < 0.01
Simulation CPU 0 warning: IPC 0.024677 < 0.05
Simulation CPU 0 panic: IPC 0.0031006 < 0.01
Simulation CPU 0 panic: IPC 0.0031022 < 0.01
Simulation CPU 0 panic: IPC 0.0062024 < 0.01
Simulation CPU 0 panic: IPC 0.0074109 < 0.01
Heartbeat CPU 0 instructions: 360000064 cycles: 12554419119 heartbeat IPC: 0.03198 cumulative IPC: 0.02868 (Simulation time: 16 hr 21 min 39 sec)
Simulation CPU 0 critical: IPC 0.01737 < 0.02
Simulation CPU 0 panic: IPC 0.0062005 < 0.01
Simulation CPU 0 warning: IPC 0.044939 < 0.05
Simulation CPU 0 critical: IPC 0.014318 < 0.02
Simulation CPU 0 warning: IPC 0.034016 < 0.05
Simulation CPU 0 warning: IPC 0.045876 < 0.05
Simulation CPU 0 warning: IPC 0.043901 < 0.05
Simulation CPU 0 warning: IPC 0.038218 < 0.05
Simulation CPU 0 warning: IPC 0.024802 < 0.05
Simulation CPU 0 warning: IPC 0.040305 < 0.05
Simulation CPU 0 warning: IPC 0.031056 < 0.05
Simulation CPU 0 warning: IPC 0.027909 < 0.05
Heartbeat CPU 0 instructions: 370000067 cycles: 12765482677 heartbeat IPC: 0.04738 cumulative IPC: 0.02898 (Simulation time: 16 hr 36 min 33 sec)
Simulation CPU 0 panic: IPC 0.0093047 < 0.01
Simulation CPU 0 panic: IPC 0.0093327 < 0.01
Simulation CPU 0 panic: IPC 0.000472 < 0.01
Simulation CPU 0 panic: IPC 0.0057544 < 0.01
Simulation CPU 0 panic: IPC 0.0062129 < 0.01
Simulation CPU 0 panic: IPC 0.009303 < 0.01
Simulation CPU 0 warning: IPC 0.035923 < 0.05
Simulation CPU 0 panic: IPC 0.0016525 < 0.01
Simulation CPU 0 panic: IPC 0.0093033 < 0.01
Simulation CPU 0 warning: IPC 0.025746 < 0.05
Simulation CPU 0 warning: IPC 0.039368 < 0.05
Simulation CPU 0 critical: IPC 0.018599 < 0.02
Simulation CPU 0 panic: IPC 2.82e-05 < 0.01
Simulation CPU 0 warning: IPC 0.021723 < 0.05
Simulation CPU 0 warning: IPC 0.049612 < 0.05
Simulation CPU 0 panic: IPC 0.0030999 < 0.01
Simulation CPU 0 warning: IPC 0.020419 < 0.05
Simulation CPU 0 warning: IPC 0.047802 < 0.05
Simulation CPU 0 warning: IPC 0.044527 < 0.05
Simulation CPU 0 critical: IPC 0.015529 < 0.02
Simulation CPU 0 critical: IPC 0.018605 < 0.02
Simulation CPU 0 panic: IPC 0.0030999 < 0.01
Simulation CPU 0 warning: IPC 0.046509 < 0.05
Simulation CPU 0 warning: IPC 0.027917 < 0.05
Simulation CPU 0 warning: IPC 0.03721 < 0.05
Simulation CPU 0 warning: IPC 0.037997 < 0.05
Simulation CPU 0 critical: IPC 0.014733 < 0.02
Simulation CPU 0 panic: IPC 8e-06 < 0.01
Simulation CPU 0 warning: IPC 0.037195 < 0.05
Simulation CPU 0 warning: IPC 0.024816 < 0.05
Simulation CPU 0 critical: IPC 0.014741 < 0.02
Simulation CPU 0 warning: IPC 0.029356 < 0.05
Simulation CPU 0 warning: IPC 0.030328 < 0.05
Simulation CPU 0 warning: IPC 0.027663 < 0.05
Simulation CPU 0 critical: IPC 0.01189 < 0.02
Simulation CPU 0 panic: IPC 0.0069728 < 0.01
Simulation CPU 0 warning: IPC 0.043432 < 0.05
Simulation CPU 0 warning: IPC 0.043412 < 0.05
Simulation CPU 0 panic: IPC 0.0030953 < 0.01
Simulation CPU 0 critical: IPC 0.015512 < 0.02
Simulation CPU 0 critical: IPC 0.018611 < 0.02
Simulation CPU 0 panic: IPC 0.0031012 < 0.01
Heartbeat CPU 0 instructions: 380000068 cycles: 13207474316 heartbeat IPC: 0.02262 cumulative IPC: 0.02877 (Simulation time: 17 hr 11 min 08 sec)
Simulation CPU 0 warning: IPC 0.046507 < 0.05
Simulation CPU 0 warning: IPC 0.04342 < 0.05
Simulation CPU 0 panic: IPC 0.0062036 < 0.01
Simulation CPU 0 warning: IPC 0.026012 < 0.05
Simulation CPU 0 warning: IPC 0.029858 < 0.05
Simulation CPU 0 warning: IPC 0.028657 < 0.05
Simulation CPU 0 warning: IPC 0.025561 < 0.05
Simulation CPU 0 warning: IPC 0.032604 < 0.05
Simulation CPU 0 warning: IPC 0.028683 < 0.05
Simulation CPU 0 warning: IPC 0.021448 < 0.05
Simulation CPU 0 warning: IPC 0.033182 < 0.05
Simulation CPU 0 warning: IPC 0.021731 < 0.05
Simulation CPU 0 panic: IPC 0.0062024 < 0.01
Simulation CPU 0 warning: IPC 0.036877 < 0.05
Simulation CPU 0 warning: IPC 0.031352 < 0.05
Simulation CPU 0 warning: IPC 0.027164 < 0.05
Simulation CPU 0 panic: IPC 0.0007462 < 0.01
Simulation CPU 0 warning: IPC 0.027911 < 0.05
Simulation CPU 0 critical: IPC 0.012411 < 0.02
Simulation CPU 0 warning: IPC 0.04033 < 0.05
Simulation CPU 0 critical: IPC 0.012409 < 0.02
Simulation CPU 0 panic: IPC 0.0041076 < 0.01
Simulation CPU 0 critical: IPC 0.011418 < 0.02
Simulation CPU 0 critical: IPC 0.018616 < 0.02
Simulation CPU 0 critical: IPC 0.01861 < 0.02
Simulation CPU 0 panic: IPC 0.0031048 < 0.01
Simulation CPU 0 panic: IPC 0.0062126 < 0.01
Simulation CPU 0 critical: IPC 0.012415 < 0.02
Simulation CPU 0 panic: IPC 0.0031042 < 0.01
Simulation CPU 0 panic: IPC 0.009321 < 0.01
Simulation CPU 0 critical: IPC 0.015963 < 0.02
Simulation CPU 0 panic: IPC 0.0002832 < 0.01
Simulation CPU 0 panic: IPC 0.0008984 < 0.01
Simulation CPU 0 panic: IPC 0.0045696 < 0.01
Simulation CPU 0 warning: IPC 0.040315 < 0.05
Heartbeat CPU 0 instructions: 390000071 cycles: 13603304601 heartbeat IPC: 0.02526 cumulative IPC: 0.02867 (Simulation time: 17 hr 43 min 38 sec)
Simulation CPU 0 critical: IPC 0.014718 < 0.02
Simulation CPU 0 warning: IPC 0.031814 < 0.05
Simulation CPU 0 warning: IPC 0.036148 < 0.05
Simulation CPU 0 critical: IPC 0.019944 < 0.02
Simulation CPU 0 warning: IPC 0.023459 < 0.05
Simulation CPU 0 warning: IPC 0.03102 < 0.05
Simulation CPU 0 panic: IPC 0.0092997 < 0.01
Simulation CPU 0 panic: IPC 8e-06 < 0.01
Simulation CPU 0 panic: IPC 5.68e-05 < 0.01
Simulation CPU 0 warning: IPC 0.021773 < 0.05
Simulation CPU 0 panic: IPC 0.0055141 < 0.01
Simulation CPU 0 warning: IPC 0.034124 < 0.05
Simulation CPU 0 critical: IPC 0.012256 < 0.02
Simulation CPU 0 warning: IPC 0.027422 < 0.05
Simulation CPU 0 warning: IPC 0.022564 < 0.05
Simulation CPU 0 panic: IPC 0.0031006 < 0.01
Simulation CPU 0 warning: IPC 0.035698 < 0.05
Simulation CPU 0 critical: IPC 0.01823 < 0.02
Simulation CPU 0 critical: IPC 0.017428 < 0.02
Simulation CPU 0 warning: IPC 0.031016 < 0.05
Simulation CPU 0 critical: IPC 0.012422 < 0.02
Simulation CPU 0 critical: IPC 0.01861 < 0.02
Simulation CPU 0 critical: IPC 0.015541 < 0.02
Simulation CPU 0 panic: IPC 0.0062015 < 0.01
Simulation CPU 0 critical: IPC 0.012408 < 0.02
Simulation CPU 0 warning: IPC 0.034109 < 0.05
Simulation CPU 0 critical: IPC 0.012444 < 0.02
Simulation CPU 0 critical: IPC 0.0186 < 0.02
Simulation CPU 0 warning: IPC 0.046518 < 0.05
Simulation CPU 0 warning: IPC 0.021736 < 0.05
Simulation CPU 0 warning: IPC 0.027924 < 0.05
Simulation CPU 0 panic: IPC 0.0039776 < 0.01
Simulation CPU 0 panic: IPC 0.0094057 < 0.01
Heartbeat CPU 0 instructions: 400000074 cycles: 13971423885 heartbeat IPC: 0.02717 cumulative IPC: 0.02863 (Simulation time: 18 hr 13 min 03 sec)
Simulation CPU 0 critical: IPC 0.018858 < 0.02
Simulation CPU 0 warning: IPC 0.030789 < 0.05
Simulation CPU 0 critical: IPC 0.018617 < 0.02
Simulation CPU 0 critical: IPC 0.016825 < 0.02
Simulation CPU 0 critical: IPC 0.01241 < 0.02
Simulation CPU 0 panic: IPC 0.0061965 < 0.01
Simulation CPU 0 panic: IPC 0.0003622 < 0.01
Simulation CPU 0 warning: IPC 0.029153 < 0.05
Simulation CPU 0 warning: IPC 0.032532 < 0.05
Simulation CPU 0 warning: IPC 0.025421 < 0.05
Simulation CPU 0 warning: IPC 0.028895 < 0.05
Simulation CPU 0 warning: IPC 0.028775 < 0.05
Simulation CPU 0 warning: IPC 0.042362 < 0.05
Simulation CPU 0 panic: IPC 0.0031084 < 0.01
Simulation CPU 0 warning: IPC 0.027915 < 0.05
Simulation CPU 0 warning: IPC 0.020092 < 0.05
Simulation CPU 0 warning: IPC 0.040289 < 0.05
Simulation CPU 0 critical: IPC 0.012398 < 0.02
Simulation CPU 0 warning: IPC 0.030482 < 0.05
Simulation CPU 0 panic: IPC 0.0098672 < 0.01
Simulation CPU 0 panic: IPC 0.0047852 < 0.01
Simulation CPU 0 warning: IPC 0.040327 < 0.05
Simulation CPU 0 panic: IPC 0.0062005 < 0.01
Simulation CPU 0 panic: IPC 0.0031078 < 0.01
Simulation CPU 0 critical: IPC 0.018669 < 0.02
Simulation CPU 0 warning: IPC 0.035882 < 0.05
Simulation CPU 0 warning: IPC 0.026149 < 0.05
Simulation CPU 0 warning: IPC 0.031551 < 0.05
Simulation CPU 0 warning: IPC 0.02922 < 0.05
Simulation CPU 0 warning: IPC 0.028712 < 0.05
Heartbeat CPU 0 instructions: 410000076 cycles: 14339532559 heartbeat IPC: 0.02717 cumulative IPC: 0.02859 (Simulation time: 18 hr 40 min 49 sec)
Simulation CPU 0 warning: IPC 0.022183 < 0.05
Simulation CPU 0 panic: IPC 0.0062005 < 0.01
Simulation CPU 0 panic: IPC 0.0030996 < 0.01
Simulation CPU 0 panic: IPC 0.0093164 < 0.01
Simulation CPU 0 critical: IPC 0.012411 < 0.02
Simulation CPU 0 critical: IPC 0.012408 < 0.02
Simulation CPU 0 panic: IPC 8e-06 < 0.01
Simulation CPU 0 critical: IPC 0.012403 < 0.02
Simulation CPU 0 warning: IPC 0.027906 < 0.05
Simulation CPU 0 panic: IPC 0.0031114 < 0.01
Simulation CPU 0 warning: IPC 0.037229 < 0.05
Simulation CPU 0 warning: IPC 0.034128 < 0.05
Simulation CPU 0 panic: IPC 0.003084 < 0.01
Simulation CPU 0 panic: IPC 1.59e-05 < 0.01
Simulation CPU 0 critical: IPC 0.015508 < 0.02
Simulation CPU 0 critical: IPC 0.012423 < 0.02
Simulation CPU 0 warning: IPC 0.043385 < 0.05
Simulation CPU 0 critical: IPC 0.018619 < 0.02
Simulation CPU 0 warning: IPC 0.040398 < 0.05
Simulation CPU 0 warning: IPC 0.034016 < 0.05
Simulation CPU 0 warning: IPC 0.040307 < 0.05
Simulation CPU 0 warning: IPC 0.024816 < 0.05
Simulation CPU 0 critical: IPC 0.015561 < 0.02
Simulation CPU 0 warning: IPC 0.034143 < 0.05
Simulation CPU 0 warning: IPC 0.03633 < 0.05
Simulation CPU 0 panic: IPC 0.0070043 < 0.01
Simulation CPU 0 warning: IPC 0.027904 < 0.05
Simulation CPU 0 warning: IPC 0.024812 < 0.05
Simulation CPU 0 warning: IPC 0.020681 < 0.05
Simulation CPU 0 critical: IPC 0.013439 < 0.02
Simulation CPU 0 panic: IPC 0.0013626 < 0.01
Simulation CPU 0 critical: IPC 0.015503 < 0.02
Simulation CPU 0 critical: IPC 0.012403 < 0.02
Simulation CPU 0 panic: IPC 0.0062023 < 0.01
Simulation CPU 0 warning: IPC 0.049613 < 0.05
Heartbeat CPU 0 instructions: 420000076 cycles: 14735342935 heartbeat IPC: 0.02526 cumulative IPC: 0.0285 (Simulation time: 19 hr 09 min 59 sec)
Simulation CPU 0 warning: IPC 0.021708 < 0.05
Simulation CPU 0 warning: IPC 0.046482 < 0.05
Simulation CPU 0 critical: IPC 0.015543 < 0.02
Simulation CPU 0 panic: IPC 0.0031064 < 0.01
Simulation CPU 0 panic: IPC 0.000104 < 0.01
Simulation CPU 0 panic: IPC 0.0092044 < 0.01
Simulation CPU 0 warning: IPC 0.039748 < 0.05
Simulation CPU 0 panic: IPC 0.0062048 < 0.01
Simulation CPU 0 warning: IPC 0.034116 < 0.05
Simulation CPU 0 warning: IPC 0.037214 < 0.05
Simulation CPU 0 critical: IPC 0.018611 < 0.02
Simulation CPU 0 warning: IPC 0.049618 < 0.05
Simulation CPU 0 critical: IPC 0.014143 < 0.02
Simulation CPU 0 panic: IPC 0.0075633 < 0.01
Simulation CPU 0 panic: IPC 0.0017024 < 0.01
Simulation CPU 0 warning: IPC 0.031015 < 0.05
Simulation CPU 0 warning: IPC 0.021714 < 0.05
Simulation CPU 0 critical: IPC 0.018596 < 0.02
Simulation CPU 0 panic: IPC 0.0093017 < 0.01
Simulation CPU 0 warning: IPC 0.020204 < 0.05
Simulation CPU 0 warning: IPC 0.029421 < 0.05
Simulation CPU 0 warning: IPC 0.021712 < 0.05
Simulation CPU 0 critical: IPC 0.012407 < 0.02
Simulation CPU 0 warning: IPC 0.049062 < 0.05
Simulation CPU 0 warning: IPC 0.031577 < 0.05
Simulation CPU 0 critical: IPC 0.015505 < 0.02
Simulation CPU 0 critical: IPC 0.018629 < 0.02
Simulation CPU 0 warning: IPC 0.034101 < 0.05
Simulation CPU 0 warning: IPC 0.021716 < 0.05
Simulation CPU 0 warning: IPC 0.027914 < 0.05
Simulation CPU 0 warning: IPC 0.021709 < 0.05
Simulation CPU 0 critical: IPC 0.014137 < 0.02
Simulation CPU 0 panic: IPC 0.0093023 < 0.01
Heartbeat CPU 0 instructions: 430000076 cycles: 15103424852 heartbeat IPC: 0.02717 cumulative IPC: 0.02847 (Simulation time: 19 hr 36 min 18 sec)
Simulation CPU 0 panic: IPC 0.0072213 < 0.01
Simulation CPU 0 warning: IPC 0.020689 < 0.05
Simulation CPU 0 critical: IPC 0.015489 < 0.02
Simulation CPU 0 warning: IPC 0.040997 < 0.05
Simulation CPU 0 panic: IPC 0.0062046 < 0.01
Simulation CPU 0 panic: IPC 0.0031042 < 0.01
Simulation CPU 0 critical: IPC 0.015376 < 0.02
Simulation CPU 0 warning: IPC 0.028056 < 0.05
Simulation CPU 0 warning: IPC 0.043424 < 0.05
Simulation CPU 0 panic: IPC 0.0061952 < 0.01
Simulation CPU 0 panic: IPC 6.5e-06 < 0.01
Simulation CPU 0 panic: IPC 0.0062072 < 0.01
Simulation CPU 0 warning: IPC 0.046517 < 0.05
Simulation CPU 0 warning: IPC 0.045376 < 0.05
Simulation CPU 0 critical: IPC 0.018606 < 0.02
Simulation CPU 0 warning: IPC 0.031011 < 0.05
Simulation CPU 0 panic: IPC 0.0072144 < 0.01
Simulation CPU 0 warning: IPC 0.03312 < 0.05
Simulation CPU 0 warning: IPC 0.040863 < 0.05
Simulation CPU 0 warning: IPC 0.039821 < 0.05
Simulation CPU 0 panic: IPC 2.6e-06 < 0.01
Simulation CPU 0 panic: IPC 0.005414 < 0.01
Simulation CPU 0 warning: IPC 0.02584 < 0.05
Simulation CPU 0 critical: IPC 0.015503 < 0.02
Simulation CPU 0 warning: IPC 0.043409 < 0.05
Simulation CPU 0 panic: IPC 0.0062015 < 0.01
Simulation CPU 0 warning: IPC 0.029427 < 0.05
Heartbeat CPU 0 instructions: 440000080 cycles: 15434580301 heartbeat IPC: 0.0302 cumulative IPC: 0.02851 (Simulation time: 20 hr 03 min 52 sec)
Simulation CPU 0 warning: IPC 0.027796 < 0.05
Simulation CPU 0 warning: IPC 0.049802 < 0.05
Simulation CPU 0 warning: IPC 0.023213 < 0.05
Simulation CPU 0 warning: IPC 0.04962 < 0.05
Simulation CPU 0 warning: IPC 0.040877 < 0.05
Simulation CPU 0 warning: IPC 0.033284 < 0.05
Simulation CPU 0 warning: IPC 0.029006 < 0.05
Simulation CPU 0 panic: IPC 0.006203 < 0.01
Simulation CPU 0 warning: IPC 0.027915 < 0.05
Simulation CPU 0 panic: IPC 0.0093029 < 0.01
Simulation CPU 0 panic: IPC 0.0031012 < 0.01
Simulation CPU 0 warning: IPC 0.021702 < 0.05
Simulation CPU 0 warning: IPC 0.034128 < 0.05
Simulation CPU 0 panic: IPC 0.0031151 < 0.01
Simulation CPU 0 warning: IPC 0.028689 < 0.05
Simulation CPU 0 warning: IPC 0.020958 < 0.05
Simulation CPU 0 panic: IPC 0.0030986 < 0.01
Simulation CPU 0 critical: IPC 0.018678 < 0.02
Simulation CPU 0 warning: IPC 0.024006 < 0.05
Simulation CPU 0 critical: IPC 0.010108 < 0.02
Simulation CPU 0 warning: IPC 0.046518 < 0.05
Simulation CPU 0 warning: IPC 0.049633 < 0.05
Simulation CPU 0 warning: IPC 0.02793 < 0.05
Simulation CPU 0 warning: IPC 0.031777 < 0.05
Simulation CPU 0 panic: IPC 0 < 0.01
Simulation CPU 0 warning: IPC 0.03027 < 0.05
Simulation CPU 0 panic: IPC 0.0030999 < 0.01
Heartbeat CPU 0 instructions: 450000081 cycles: 15751875395 heartbeat IPC: 0.03152 cumulative IPC: 0.02857 (Simulation time: 20 hr 27 min 50 sec)
Simulation CPU 0 warning: IPC 0.03411 < 0.05
Simulation CPU 0 warning: IPC 0.031004 < 0.05
Simulation CPU 0 critical: IPC 0.018049 < 0.02
Simulation CPU 0 warning: IPC 0.038017 < 0.05
Simulation CPU 0 warning: IPC 0.033012 < 0.05
Simulation CPU 0 panic: IPC 0.0010496 < 0.01
Simulation CPU 0 warning: IPC 0.049375 < 0.05
Simulation CPU 0 warning: IPC 0.039356 < 0.05
Simulation CPU 0 warning: IPC 0.045281 < 0.05
Simulation CPU 0 panic: IPC 0.006206 < 0.01
Simulation CPU 0 warning: IPC 0.021699 < 0.05
Heartbeat CPU 0 instructions: 460000083 cycles: 15953689776 heartbeat IPC: 0.04955 cumulative IPC: 0.02883 (Simulation time: 20 hr 42 min 49 sec)
Simulation CPU 0 panic: IPC 0.0093073 < 0.01
Simulation CPU 0 warning: IPC 0.031778 < 0.05
Simulation CPU 0 critical: IPC 0.019389 < 0.02
Heartbeat CPU 0 instructions: 470000085 cycles: 16109296089 heartbeat IPC: 0.06426 cumulative IPC: 0.02918 (Simulation time: 20 hr 55 min 03 sec)
Simulation CPU 0 warning: IPC 0.04577 < 0.05
Simulation CPU 0 warning: IPC 0.046169 < 0.05
Simulation CPU 0 critical: IPC 0.01758 < 0.02
Simulation CPU 0 panic: IPC 0.0007367 < 0.01
Simulation CPU 0 warning: IPC 0.034254 < 0.05
Simulation CPU 0 warning: IPC 0.045958 < 0.05
Simulation CPU 0 warning: IPC 0.039108 < 0.05
Simulation CPU 0 warning: IPC 0.038182 < 0.05
Heartbeat CPU 0 instructions: 480000086 cycles: 16283400408 heartbeat IPC: 0.05744 cumulative IPC: 0.02948 (Simulation time: 21 hr 08 min 23 sec)
Simulation CPU 0 warning: IPC 0.045766 < 0.05
Simulation CPU 0 warning: IPC 0.035068 < 0.05
Simulation CPU 0 warning: IPC 0.048391 < 0.05
Simulation CPU 0 warning: IPC 0.02886 < 0.05
Simulation CPU 0 critical: IPC 0.016004 < 0.02
Simulation CPU 0 warning: IPC 0.027933 < 0.05
Heartbeat CPU 0 instructions: 490000086 cycles: 16448243100 heartbeat IPC: 0.06066 cumulative IPC: 0.02979 (Simulation time: 21 hr 22 min 05 sec)
Simulation CPU 0 warning: IPC 0.035792 < 0.05
Simulation CPU 0 warning: IPC 0.045196 < 0.05
Simulation CPU 0 warning: IPC 0.024804 < 0.05
Simulation CPU 0 warning: IPC 0.046508 < 0.05
Simulation CPU 0 panic: IPC 0.0093066 < 0.01
Simulation CPU 0 panic: IPC 0.0062005 < 0.01
Simulation CPU 0 warning: IPC 0.038937 < 0.05
Simulation CPU 0 panic: IPC 0.0044773 < 0.01
Simulation CPU 0 panic: IPC 0.00311 < 0.01
Simulation CPU 0 critical: IPC 0.015505 < 0.02
Simulation CPU 0 critical: IPC 0.01241 < 0.02
Simulation CPU 0 warning: IPC 0.0426 < 0.05
Simulation CPU 0 panic: IPC 0.0031031 < 0.01
Simulation CPU 0 warning: IPC 0.034128 < 0.05
Simulation CPU 0 warning: IPC 0.024813 < 0.05
Simulation CPU 0 panic: IPC 0.006206 < 0.01
Simulation CPU 0 warning: IPC 0.027904 < 0.05
Simulation CPU 0 panic: IPC 6.5e-06 < 0.01
Simulation CPU 0 warning: IPC 0.021711 < 0.05
Simulation CPU 0 critical: IPC 0.014741 < 0.02
Simulation CPU 0 warning: IPC 0.031809 < 0.05
Simulation CPU 0 warning: IPC 0.026304 < 0.05
Simulation CPU 0 critical: IPC 0.01094 < 0.02
Simulation CPU 0 critical: IPC 0.018612 < 0.02
Simulation CPU 0 critical: IPC 0.015505 < 0.02
Simulation CPU 0 panic: IPC 0.000472 < 0.01
Simulation CPU 0 warning: IPC 0.036742 < 0.05
Heartbeat CPU 0 instructions: 500000086 cycles: 16797887618 heartbeat IPC: 0.0286 cumulative IPC: 0.02977 (Simulation time: 21 hr 50 min 06 sec)
Simulation CPU 0 warning: IPC 0.025715 < 0.05
Simulation CPU 0 warning: IPC 0.023917 < 0.05
Simulation CPU 0 panic: IPC 0 < 0.01
Simulation CPU 0 warning: IPC 0.021717 < 0.05
Simulation CPU 0 warning: IPC 0.031016 < 0.05
Simulation CPU 0 panic: IPC 0.0031072 < 0.01
Simulation CPU 0 panic: IPC 0.0030873 < 0.01
Simulation CPU 0 panic: IPC 2.58e-05 < 0.01
Simulation CPU 0 warning: IPC 0.02791 < 0.05
Simulation CPU 0 panic: IPC 0.0062088 < 0.01
Simulation CPU 0 warning: IPC 0.049653 < 0.05
Simulation CPU 0 panic: IPC 0.0031018 < 0.01
Simulation CPU 0 warning: IPC 0.029531 < 0.05
Simulation CPU 0 warning: IPC 0.0418 < 0.05
Simulation CPU 0 critical: IPC 0.018623 < 0.02
Simulation CPU 0 warning: IPC 0.044458 < 0.05
Simulation CPU 0 warning: IPC 0.039301 < 0.05
Simulation CPU 0 panic: IPC 0.0062048 < 0.01
Simulation CPU 0 warning: IPC 0.024799 < 0.05
Simulation CPU 0 critical: IPC 0.015534 < 0.02
Simulation CPU 0 warning: IPC 0.040336 < 0.05
Simulation CPU 0 warning: IPC 0.042889 < 0.05
Simulation CPU 0 critical: IPC 0.016063 < 0.02
Simulation CPU 0 warning: IPC 0.028129 < 0.05
Simulation CPU 0 warning: IPC 0.045496 < 0.05
Heartbeat CPU 0 instructions: 510000087 cycles: 17087456430 heartbeat IPC: 0.03453 cumulative IPC: 0.02985 (Simulation time: 22 hr 11 min 14 sec)
Simulation CPU 0 warning: IPC 0.048599 < 0.05
Simulation CPU 0 panic: IPC 0.0083089 < 0.01
Simulation CPU 0 warning: IPC 0.049273 < 0.05
Simulation CPU 0 warning: IPC 0.039926 < 0.05
Simulation CPU 0 critical: IPC 0.019365 < 0.02
Simulation CPU 0 warning: IPC 0.03502 < 0.05
Simulation CPU 0 warning: IPC 0.045702 < 0.05
Simulation CPU 0 warning: IPC 0.02931 < 0.05
Simulation CPU 0 warning: IPC 0.028905 < 0.05
Heartbeat CPU 0 instructions: 520000087 cycles: 17261541550 heartbeat IPC: 0.05744 cumulative IPC: 0.03012 (Simulation time: 22 hr 25 min 39 sec)
Simulation CPU 0 warning: IPC 0.03936 < 0.05
Simulation CPU 0 warning: IPC 0.041378 < 0.05
Simulation CPU 0 warning: IPC 0.028836 < 0.05
Simulation CPU 0 critical: IPC 0.018923 < 0.02
Simulation CPU 0 critical: IPC 0.012418 < 0.02
Simulation CPU 0 warning: IPC 0.037228 < 0.05
Simulation CPU 0 critical: IPC 0.010808 < 0.02
Simulation CPU 0 warning: IPC 0.037229 < 0.05
Simulation CPU 0 panic: IPC 0.0062005 < 0.01
Simulation CPU 0 warning: IPC 0.041528 < 0.05
Simulation CPU 0 warning: IPC 0.045293 < 0.05
Heartbeat CPU 0 instructions: 530000091 cycles: 17463367133 heartbeat IPC: 0.04955 cumulative IPC: 0.03035 (Simulation time: 22 hr 42 min 20 sec)
Simulation CPU 0 warning: IPC 0.041228 < 0.05
Simulation CPU 0 warning: IPC 0.033212 < 0.05
Simulation CPU 0 warning: IPC 0.031023 < 0.05
Simulation CPU 0 panic: IPC 0.0031006 < 0.01
Simulation CPU 0 panic: IPC 2.6e-06 < 0.01
Simulation CPU 0 panic: IPC 0.0031085 < 0.01
Simulation CPU 0 critical: IPC 0.015545 < 0.02
Simulation CPU 0 warning: IPC 0.024851 < 0.05
Simulation CPU 0 critical: IPC 0.018638 < 0.02
Simulation CPU 0 critical: IPC 0.010807 < 0.02
Simulation CPU 0 critical: IPC 0.010916 < 0.02
Simulation CPU 0 critical: IPC 0.014942 < 0.02
Simulation CPU 0 warning: IPC 0.029397 < 0.05
Simulation CPU 0 critical: IPC 0.011506 < 0.02
Simulation CPU 0 warning: IPC 0.03239 < 0.05
Simulation CPU 0 warning: IPC 0.043123 < 0.05
Simulation CPU 0 warning: IPC 0.028928 < 0.05
Simulation CPU 0 warning: IPC 0.035158 < 0.05
Simulation CPU 0 warning: IPC 0.022859 < 0.05
Simulation CPU 0 warning: IPC 0.042313 < 0.05
Simulation CPU 0 critical: IPC 0.018611 < 0.02
Simulation CPU 0 warning: IPC 0.040398 < 0.05
Simulation CPU 0 critical: IPC 0.01446 < 0.02
Simulation CPU 0 warning: IPC 0.031132 < 0.05
Simulation CPU 0 warning: IPC 0.047565 < 0.05
Simulation CPU 0 warning: IPC 0.037259 < 0.05
Simulation CPU 0 warning: IPC 0.037231 < 0.05
Simulation CPU 0 panic: IPC 0.0031012 < 0.01
Simulation CPU 0 panic: IPC 0.008757 < 0.01
Simulation CPU 0 panic: IPC 0.0079102 < 0.01
Simulation CPU 0 critical: IPC 0.0133 < 0.02
Simulation CPU 0 warning: IPC 0.02085 < 0.05
Simulation CPU 0 warning: IPC 0.031037 < 0.05
Simulation CPU 0 critical: IPC 0.018528 < 0.02
Simulation CPU 0 panic: IPC 0.0063449 < 0.01
Simulation CPU 0 panic: IPC 0.0093065 < 0.01
Simulation CPU 0 critical: IPC 0.012414 < 0.02
Heartbeat CPU 0 instructions: 540000093 cycles: 17868433772 heartbeat IPC: 0.02469 cumulative IPC: 0.03022 (Simulation time: 23 hr 14 min 39 sec)
Simulation CPU 0 warning: IPC 0.028818 < 0.05
Simulation CPU 0 warning: IPC 0.032734 < 0.05
Simulation CPU 0 warning: IPC 0.02548 < 0.05
Simulation CPU 0 warning: IPC 0.02262 < 0.05
Simulation CPU 0 critical: IPC 0.012407 < 0.02
Simulation CPU 0 warning: IPC 0.027921 < 0.05
Simulation CPU 0 panic: IPC 0.0031054 < 0.01
Simulation CPU 0 warning: IPC 0.031014 < 0.05
Simulation CPU 0 warning: IPC 0.031042 < 0.05
Simulation CPU 0 panic: IPC 0.0031036 < 0.01
Simulation CPU 0 warning: IPC 0.021338 < 0.05
Simulation CPU 0 warning: IPC 0.037792 < 0.05
Simulation CPU 0 warning: IPC 0.034118 < 0.05
Simulation CPU 0 panic: IPC 0.0031018 < 0.01
Simulation CPU 0 warning: IPC 0.030572 < 0.05
Simulation CPU 0 critical: IPC 0.015792 < 0.02
Simulation CPU 0 warning: IPC 0.029289 < 0.05
Simulation CPU 0 warning: IPC 0.03101 < 0.05
Simulation CPU 0 critical: IPC 0.012412 < 0.02
Simulation CPU 0 critical: IPC 0.01753 < 0.02
Simulation CPU 0 panic: IPC 1.6e-06 < 0.01
Simulation CPU 0 panic: IPC 1.04e-05 < 0.01
Simulation CPU 0 critical: IPC 0.010383 < 0.02
Simulation CPU 0 critical: IPC 0.0186 < 0.02
Simulation CPU 0 critical: IPC 0.014204 < 0.02
Simulation CPU 0 panic: IPC 0.0098168 < 0.01
Simulation CPU 0 panic: IPC 0.0070036 < 0.01
Simulation CPU 0 warning: IPC 0.040309 < 0.05
Simulation CPU 0 panic: IPC 0.0093072 < 0.01
Heartbeat CPU 0 instructions: 550000093 cycles: 18227255866 heartbeat IPC: 0.02787 cumulative IPC: 0.03017 (Simulation time: 23 hr 40 min 26 sec)
Simulation CPU 0 panic: IPC 0.0031018 < 0.01
Simulation CPU 0 warning: IPC 0.02032 < 0.05
Simulation CPU 0 panic: IPC 0.0075916 < 0.01
Simulation CPU 0 warning: IPC 0.027342 < 0.05
Simulation CPU 0 warning: IPC 0.037775 < 0.05
Simulation CPU 0 warning: IPC 0.031011 < 0.05
Simulation CPU 0 panic: IPC 0.00505 < 0.01
Simulation CPU 0 panic: IPC 0.002004 < 0.01
Simulation CPU 0 critical: IPC 0.0135 < 0.02
Simulation CPU 0 warning: IPC 0.023439 < 0.05
Simulation CPU 0 panic: IPC 0.0001552 < 0.01
Simulation CPU 0 panic: IPC 8e-06 < 0.01
Simulation CPU 0 panic: IPC 2.56e-05 < 0.01
Simulation CPU 0 panic: IPC 1.76e-05 < 0.01
Simulation CPU 0 panic: IPC 8e-06 < 0.01
Simulation CPU 0 panic: IPC 1.6e-06 < 0.01
Simulation CPU 0 panic: IPC 2.72e-05 < 0.01
Simulation CPU 0 panic: IPC 1.6e-06 < 0.01
Simulation CPU 0 panic: IPC 2.88e-05 < 0.01
Simulation CPU 0 panic: IPC 8e-07 < 0.01
Simulation CPU 0 panic: IPC 9.6e-06 < 0.01
Simulation CPU 0 warning: IPC 0.038304 < 0.05
Simulation CPU 0 panic: IPC 0.0031078 < 0.01
Simulation CPU 0 panic: IPC 0.0093042 < 0.01
Simulation CPU 0 warning: IPC 0.031016 < 0.05
Simulation CPU 0 critical: IPC 0.018606 < 0.02
Simulation CPU 0 warning: IPC 0.034129 < 0.05
Simulation CPU 0 critical: IPC 0.019582 < 0.02
Simulation CPU 0 critical: IPC 0.017626 < 0.02
Simulation CPU 0 warning: IPC 0.024822 < 0.05
Simulation CPU 0 critical: IPC 0.018644 < 0.02
Simulation CPU 0 warning: IPC 0.022429 < 0.05
Simulation CPU 0 panic: IPC 0.0053654 < 0.01
Simulation CPU 0 warning: IPC 0.044244 < 0.05
Heartbeat CPU 0 instructions: 560000095 cycles: 18660011944 heartbeat IPC: 0.02311 cumulative IPC: 0.03001 (Simulation time: 00 hr 14 min 06 sec)
Simulation CPU 0 warning: IPC 0.029258 < 0.05
Simulation CPU 0 warning: IPC 0.028838 < 0.05
Simulation CPU 0 warning: IPC 0.028692 < 0.05
Simulation CPU 0 warning: IPC 0.029356 < 0.05
Simulation CPU 0 warning: IPC 0.036544 < 0.05
Simulation CPU 0 warning: IPC 0.021477 < 0.05
Simulation CPU 0 warning: IPC 0.023961 < 0.05
Simulation CPU 0 warning: IPC 0.029795 < 0.05
Simulation CPU 0 panic: IPC 0.0040626 < 0.01
Simulation CPU 0 critical: IPC 0.011457 < 0.02
Simulation CPU 0 panic: IPC 0.0030999 < 0.01
Simulation CPU 0 warning: IPC 0.025184 < 0.05
Simulation CPU 0 warning: IPC 0.040334 < 0.05
Simulation CPU 0 critical: IPC 0.018624 < 0.02
Simulation CPU 0 critical: IPC 0.018629 < 0.02
Simulation CPU 0 warning: IPC 0.02173 < 0.05
Simulation CPU 0 panic: IPC 0.0031028 < 0.01
Heartbeat CPU 0 instructions: 570000095 cycles: 18917262464 heartbeat IPC: 0.03887 cumulative IPC: 0.03013 (Simulation time: 00 hr 34 min 54 sec)
Simulation CPU 0 critical: IPC 0.0162 < 0.02
Simulation CPU 0 warning: IPC 0.045828 < 0.05
Simulation CPU 0 warning: IPC 0.046522 < 0.05
Simulation CPU 0 critical: IPC 0.01241 < 0.02
Simulation CPU 0 warning: IPC 0.042622 < 0.05
Simulation CPU 0 critical: IPC 0.016311 < 0.02
Simulation CPU 0 critical: IPC 0.013447 < 0.02
Simulation CPU 0 warning: IPC 0.027932 < 0.05
Simulation CPU 0 critical: IPC 0.015512 < 0.02
Simulation CPU 0 warning: IPC 0.049671 < 0.05
Simulation CPU 0 warning: IPC 0.028222 < 0.05
Simulation CPU 0 panic: IPC 0.0089979 < 0.01
Simulation CPU 0 warning: IPC 0.02519 < 0.05
Simulation CPU 0 panic: IPC 0.0031018 < 0.01
Simulation CPU 0 warning: IPC 0.03101 < 0.05
Simulation CPU 0 critical: IPC 0.018613 < 0.02
Simulation CPU 0 warning: IPC 0.034114 < 0.05
Simulation CPU 0 warning: IPC 0.045323 < 0.05
Simulation CPU 0 warning: IPC 0.032198 < 0.05
Simulation CPU 0 panic: IPC 0.0047814 < 0.01
Simulation CPU 0 warning: IPC 0.026225 < 0.05
Simulation CPU 0 warning: IPC 0.024812 < 0.05
Simulation CPU 0 critical: IPC 0.016821 < 0.02
Simulation CPU 0 warning: IPC 0.020414 < 0.05
Simulation CPU 0 panic: IPC 0.0093193 < 0.01
Simulation CPU 0 warning: IPC 0.040324 < 0.05
Simulation CPU 0 warning: IPC 0.040301 < 0.05
Heartbeat CPU 0 instructions: 580000099 cycles: 19248400427 heartbeat IPC: 0.0302 cumulative IPC: 0.03013 (Simulation time: 01 hr 00 min 58 sec)
Simulation CPU 0 critical: IPC 0.012149 < 0.02
Simulation CPU 0 critical: IPC 0.016247 < 0.02
Simulation CPU 0 warning: IPC 0.034102 < 0.05
Simulation CPU 0 warning: IPC 0.036539 < 0.05
Simulation CPU 0 warning: IPC 0.040056 < 0.05
Simulation CPU 0 warning: IPC 0.038712 < 0.05
Simulation CPU 0 warning: IPC 0.024827 < 0.05
Simulation CPU 0 critical: IPC 0.015511 < 0.02
Simulation CPU 0 panic: IPC 0.0062017 < 0.01
Simulation CPU 0 panic: IPC 0.0093239 < 0.01
Simulation CPU 0 critical: IPC 0.015516 < 0.02
Simulation CPU 0 panic: IPC 0.0056565 < 0.01
[...]
Simulation CPU 0 critical: IPC 0.012406 < 0.02
Simulation CPU 0 critical: IPC 0.012386 < 0.02
Simulation CPU 0 warning: IPC 0.027932 < 0.05
Simulation CPU 0 critical: IPC 0.012408 < 0.02
Simulation CPU 0 warning: IPC 0.042489 < 0.05
Simulation CPU 0 warning: IPC 0.025733 < 0.05
Simulation CPU 0 warning: IPC 0.021719 < 0.05
Simulation CPU 0 warning: IPC 0.024811 < 0.05
Simulation CPU 0 panic: IPC 0.003111 < 0.01
Heartbeat CPU 0 instructions: 1320000190 cycles: 37903245402 heartbeat IPC: 0.02716 cumulative IPC: 0.03483 (Simulation time: 02 hr 41 min 04 sec)
Simulation CPU 0 panic: IPC 0.0093193 < 0.01
Simulation CPU 0 panic: IPC 0.0062054 < 0.01
Simulation CPU 0 critical: IPC 0.018628 < 0.02
Simulation CPU 0 critical: IPC 0.015508 < 0.02
Simulation CPU 0 warning: IPC 0.043411 < 0.05
Simulation CPU 0 panic: IPC 0.0067031 < 0.01
Simulation CPU 0 warning: IPC 0.030518 < 0.05
Simulation CPU 0 panic: IPC 0.0062102 < 0.01
Simulation CPU 0 critical: IPC 0.018607 < 0.02
Simulation CPU 0 critical: IPC 0.011416 < 0.02
Simulation CPU 0 warning: IPC 0.029226 < 0.05
Simulation CPU 0 warning: IPC 0.027636 < 0.05
Simulation CPU 0 critical: IPC 0.012407 < 0.02
Simulation CPU 0 warning: IPC 0.03413 < 0.05
Simulation CPU 0 panic: IPC 0.0093066 < 0.01
Simulation CPU 0 warning: IPC 0.043421 < 0.05
Simulation CPU 0 panic: IPC 0.0093346 < 0.01
Simulation CPU 0 panic: IPC 0.0062275 < 0.01
Simulation CPU 0 panic: IPC 0.0031006 < 0.01
Simulation CPU 0 warning: IPC 0.027911 < 0.05
Simulation CPU 0 warning: IPC 0.039553 < 0.05
Simulation CPU 0 warning: IPC 0.034873 < 0.05
Simulation CPU 0 warning: IPC 0.026931 < 0.05
Simulation CPU 0 critical: IPC 0.010301 < 0.02
Simulation CPU 0 warning: IPC 0.034131 < 0.05
Simulation CPU 0 warning: IPC 0.049611 < 0.05
Simulation CPU 0 warning: IPC 0.020107 < 0.05
Simulation CPU 0 panic: IPC 0.0016013 < 0.01
Simulation CPU 0 panic: IPC 0.0062276 < 0.01
Simulation CPU 0 panic: IPC 0.0062148 < 0.01
Simulation CPU 0 warning: IPC 0.030684 < 0.05
Simulation CPU 0 panic: IPC 0.0093029 < 0.01
Simulation CPU 0 warning: IPC 0.036873 < 0.05
Simulation CPU 0 warning: IPC 0.028245 < 0.05
Simulation CPU 0 warning: IPC 0.048867 < 0.05
Simulation CPU 0 warning: IPC 0.044154 < 0.05
Simulation CPU 0 critical: IPC 0.015504 < 0.02
Simulation CPU 0 critical: IPC 0.018611 < 0.02
Simulation CPU 0 panic: IPC 0.0031018 < 0.01
Simulation CPU 0 panic: IPC 0.009301 < 0.01
Simulation CPU 0 warning: IPC 0.046535 < 0.05
Heartbeat CPU 0 instructions: 1330000190 cycles: 38326748051 heartbeat IPC: 0.02361 cumulative IPC: 0.0347 (Simulation time: 03 hr 15 min 34 sec)
Simulation CPU 0 warning: IPC 0.03101 < 0.05
Simulation CPU 0 critical: IPC 0.015524 < 0.02
Simulation CPU 0 warning: IPC 0.027906 < 0.05
Simulation CPU 0 critical: IPC 0.011191 < 0.02
Simulation CPU 0 warning: IPC 0.027911 < 0.05
Simulation CPU 0 warning: IPC 0.027922 < 0.05
Simulation CPU 0 warning: IPC 0.03018 < 0.05
Simulation CPU 0 warning: IPC 0.029036 < 0.05
Simulation CPU 0 warning: IPC 0.045642 < 0.05
Simulation CPU 0 warning: IPC 0.031924 < 0.05
Simulation CPU 0 warning: IPC 0.048599 < 0.05
Simulation CPU 0 warning: IPC 0.038215 < 0.05
Simulation CPU 0 warning: IPC 0.034161 < 0.05
Simulation CPU 0 critical: IPC 0.012024 < 0.02
Simulation CPU 0 panic: IPC 0.0069541 < 0.01
Simulation CPU 0 warning: IPC 0.045547 < 0.05
Heartbeat CPU 0 instructions: 1340000190 cycles: 38556261984 heartbeat IPC: 0.04357 cumulative IPC: 0.03475 (Simulation time: 03 hr 31 min 58 sec)
Simulation CPU 0 warning: IPC 0.028836 < 0.05
Simulation CPU 0 warning: IPC 0.034139 < 0.05
Simulation CPU 0 critical: IPC 0.018613 < 0.02
Simulation CPU 0 warning: IPC 0.02795 < 0.05
Simulation CPU 0 warning: IPC 0.024829 < 0.05
Heartbeat CPU 0 instructions: 1350000192 cycles: 38739561925 heartbeat IPC: 0.05456 cumulative IPC: 0.03485 (Simulation time: 03 hr 45 min 31 sec)
Simulation CPU 0 warning: IPC 0.045372 < 0.05
Simulation CPU 0 warning: IPC 0.026902 < 0.05
Simulation CPU 0 warning: IPC 0.031294 < 0.05
Simulation CPU 0 warning: IPC 0.028883 < 0.05
Simulation CPU 0 warning: IPC 0.03815 < 0.05
Simulation CPU 0 warning: IPC 0.037224 < 0.05
Simulation CPU 0 warning: IPC 0.036378 < 0.05
Simulation CPU 0 warning: IPC 0.045819 < 0.05
Simulation CPU 0 warning: IPC 0.046563 < 0.05
Simulation CPU 0 panic: IPC 0.0093023 < 0.01
Simulation CPU 0 critical: IPC 0.012418 < 0.02
Simulation CPU 0 warning: IPC 0.046572 < 0.05
Simulation CPU 0 warning: IPC 0.028757 < 0.05
Heartbeat CPU 0 instructions: 1360000193 cycles: 38932096951 heartbeat IPC: 0.05194 cumulative IPC: 0.03493 (Simulation time: 04 hr 01 min 46 sec)
Simulation CPU 0 critical: IPC 0.018865 < 0.02
Simulation CPU 0 warning: IPC 0.031019 < 0.05
Simulation CPU 0 warning: IPC 0.043429 < 0.05
Simulation CPU 0 panic: IPC 0.0093361 < 0.01
Simulation CPU 0 panic: IPC 0.0031184 < 0.01
Simulation CPU 0 warning: IPC 0.038421 < 0.05
Simulation CPU 0 warning: IPC 0.030752 < 0.05
Simulation CPU 0 warning: IPC 0.020805 < 0.05
Simulation CPU 0 critical: IPC 0.015545 < 0.02
Simulation CPU 0 warning: IPC 0.034195 < 0.05
Simulation CPU 0 warning: IPC 0.031169 < 0.05
Simulation CPU 0 warning: IPC 0.048571 < 0.05
Simulation CPU 0 warning: IPC 0.04312 < 0.05
Simulation CPU 0 panic: IPC 0.007562 < 0.01
Simulation CPU 0 warning: IPC 0.038633 < 0.05
Simulation CPU 0 warning: IPC 0.03275 < 0.05
Simulation CPU 0 panic: IPC 0.006203 < 0.01
Heartbeat CPU 0 instructions: 1370000194 cycles: 39189362498 heartbeat IPC: 0.03887 cumulative IPC: 0.03496 (Simulation time: 04 hr 21 min 30 sec)
Simulation CPU 0 critical: IPC 0.010378 < 0.02
Simulation CPU 0 panic: IPC 0.0062132 < 0.01
Simulation CPU 0 warning: IPC 0.040318 < 0.05
Simulation CPU 0 critical: IPC 0.015503 < 0.02
Simulation CPU 0 warning: IPC 0.048917 < 0.05
Simulation CPU 0 panic: IPC 0.0031006 < 0.01
Simulation CPU 0 warning: IPC 0.043289 < 0.05
Simulation CPU 0 warning: IPC 0.034152 < 0.05
Simulation CPU 0 panic: IPC 0.0062238 < 0.01
Simulation CPU 0 critical: IPC 0.015524 < 0.02
Simulation CPU 0 critical: IPC 0.018624 < 0.02
Simulation CPU 0 warning: IPC 0.02173 < 0.05
Simulation CPU 0 panic: IPC 0.0062258 < 0.01
Simulation CPU 0 warning: IPC 0.049637 < 0.05
Simulation CPU 0 warning: IPC 0.024117 < 0.05
Heartbeat CPU 0 instructions: 1380000197 cycles: 39418904406 heartbeat IPC: 0.04357 cumulative IPC: 0.03501 (Simulation time: 04 hr 40 min 07 sec)
Simulation CPU 0 warning: IPC 0.02877 < 0.05
Simulation CPU 0 warning: IPC 0.02361 < 0.05
Simulation CPU 0 warning: IPC 0.028842 < 0.05
Simulation CPU 0 warning: IPC 0.034669 < 0.05
Simulation CPU 0 warning: IPC 0.028803 < 0.05
Heartbeat CPU 0 instructions: 1390000201 cycles: 39574526773 heartbeat IPC: 0.06426 cumulative IPC: 0.03512 (Simulation time: 04 hr 54 min 01 sec)
Simulation CPU 0 critical: IPC 0.014197 < 0.02
Simulation CPU 0 warning: IPC 0.041349 < 0.05
Simulation CPU 0 warning: IPC 0.039996 < 0.05
Simulation CPU 0 warning: IPC 0.034655 < 0.05
Simulation CPU 0 warning: IPC 0.028839 < 0.05
Simulation CPU 0 warning: IPC 0.038038 < 0.05
Simulation CPU 0 warning: IPC 0.043439 < 0.05
Simulation CPU 0 warning: IPC 0.046212 < 0.05
Heartbeat CPU 0 instructions: 1400000204 cycles: 39757862955 heartbeat IPC: 0.05454 cumulative IPC: 0.03521 (Simulation time: 05 hr 09 min 24 sec)
Simulation CPU 0 warning: IPC 0.045585 < 0.05
Simulation CPU 0 warning: IPC 0.029068 < 0.05
Simulation CPU 0 warning: IPC 0.021118 < 0.05
Simulation CPU 0 critical: IPC 0.015926 < 0.02
Simulation CPU 0 panic: IPC 0.0031162 < 0.01
Simulation CPU 0 warning: IPC 0.028968 < 0.05
Simulation CPU 0 warning: IPC 0.029959 < 0.05
Simulation CPU 0 warning: IPC 0.04038 < 0.05
Simulation CPU 0 warning: IPC 0.040342 < 0.05
Simulation CPU 0 warning: IPC 0.049641 < 0.05
Simulation CPU 0 warning: IPC 0.020646 < 0.05
Simulation CPU 0 warning: IPC 0.028995 < 0.05
Simulation CPU 0 warning: IPC 0.03241 < 0.05
Simulation CPU 0 warning: IPC 0.026562 < 0.05
Simulation CPU 0 warning: IPC 0.02485 < 0.05
Simulation CPU 0 panic: IPC 0.0031049 < 0.01
Heartbeat CPU 0 instructions: 1410000206 cycles: 40005885283 heartbeat IPC: 0.04032 cumulative IPC: 0.03524 (Simulation time: 05 hr 29 min 47 sec)
Simulation CPU 0 critical: IPC 0.015542 < 0.02
Simulation CPU 0 warning: IPC 0.037287 < 0.05
Simulation CPU 0 warning: IPC 0.021723 < 0.05
Simulation CPU 0 critical: IPC 0.012417 < 0.02
Simulation CPU 0 warning: IPC 0.021717 < 0.05
Simulation CPU 0 warning: IPC 0.03413 < 0.05
Simulation CPU 0 warning: IPC 0.04032 < 0.05
Simulation CPU 0 warning: IPC 0.034117 < 0.05
Simulation CPU 0 panic: IPC 0.002583 < 0.01
Simulation CPU 0 warning: IPC 0.043427 < 0.05
Simulation CPU 0 warning: IPC 0.031041 < 0.05
Simulation CPU 0 warning: IPC 0.043426 < 0.05
Simulation CPU 0 warning: IPC 0.040404 < 0.05
Simulation CPU 0 critical: IPC 0.015522 < 0.02
Simulation CPU 0 critical: IPC 0.012443 < 0.02
Simulation CPU 0 panic: IPC 0.00933 < 0.01
Simulation CPU 0 panic: IPC 0.0062096 < 0.01
Simulation CPU 0 panic: IPC 0.0031108 < 0.01
Simulation CPU 0 critical: IPC 0.018629 < 0.02
Simulation CPU 0 warning: IPC 0.021741 < 0.05
Simulation CPU 0 panic: IPC 0.0031144 < 0.01
Simulation CPU 0 critical: IPC 0.018626 < 0.02
Simulation CPU 0 panic: IPC 0.0062133 < 0.01
Simulation CPU 0 warning: IPC 0.049605 < 0.05
Simulation CPU 0 warning: IPC 0.044865 < 0.05
Simulation CPU 0 warning: IPC 0.026501 < 0.05
Simulation CPU 0 critical: IPC 0.012416 < 0.02
Simulation CPU 0 warning: IPC 0.049628 < 0.05
Simulation CPU 0 warning: IPC 0.034141 < 0.05
Simulation CPU 0 critical: IPC 0.018633 < 0.02
Simulation CPU 0 warning: IPC 0.024083 < 0.05
Simulation CPU 0 critical: IPC 0.019382 < 0.02
Simulation CPU 0 critical: IPC 0.01243 < 0.02
Simulation CPU 0 critical: IPC 0.012417 < 0.02
Simulation CPU 0 critical: IPC 0.015535 < 0.02
Simulation CPU 0 panic: IPC 0.0031069 < 0.01
Simulation CPU 0 critical: IPC 0.018622 < 0.02
Heartbeat CPU 0 instructions: 1420000206 cycles: 40401803650 heartbeat IPC: 0.02526 cumulative IPC: 0.03515 (Simulation time: 05 hr 59 min 55 sec)
Simulation CPU 0 critical: IPC 0.015522 < 0.02
Simulation CPU 0 critical: IPC 0.012223 < 0.02
Simulation CPU 0 critical: IPC 0.015511 < 0.02
Simulation CPU 0 panic: IPC 0.0031006 < 0.01
Simulation CPU 0 critical: IPC 0.012423 < 0.02
Simulation CPU 0 critical: IPC 0.012413 < 0.02
Simulation CPU 0 critical: IPC 0.012425 < 0.02
Simulation CPU 0 critical: IPC 0.018674 < 0.02
Simulation CPU 0 panic: IPC 0.0062136 < 0.01
Simulation CPU 0 warning: IPC 0.02175 < 0.05
Simulation CPU 0 panic: IPC 0.006215 < 0.01
Simulation CPU 0 critical: IPC 0.01241 < 0.02
Simulation CPU 0 warning: IPC 0.03026 < 0.05
Simulation CPU 0 critical: IPC 0.019401 < 0.02
Simulation CPU 0 warning: IPC 0.02694 < 0.05
Simulation CPU 0 critical: IPC 0.0196 < 0.02
Simulation CPU 0 panic: IPC 4.8e-05 < 0.01
Simulation CPU 0 panic: IPC 0.0030439 < 0.01
Simulation CPU 0 panic: IPC 0.000472 < 0.01
Simulation CPU 0 panic: IPC 0.0028932 < 0.01
Simulation CPU 0 critical: IPC 0.012194 < 0.02
Simulation CPU 0 panic: IPC 0.0031136 < 0.01
Simulation CPU 0 critical: IPC 0.012414 < 0.02
Simulation CPU 0 warning: IPC 0.021744 < 0.05
Simulation CPU 0 panic: IPC 0.0031025 < 0.01
Simulation CPU 0 warning: IPC 0.021713 < 0.05
Simulation CPU 0 critical: IPC 0.015521 < 0.02
Simulation CPU 0 panic: IPC 0.0031091 < 0.01
Simulation CPU 0 warning: IPC 0.020119 < 0.05
Simulation CPU 0 critical: IPC 0.017132 < 0.02
Simulation CPU 0 critical: IPC 0.01864 < 0.02
Simulation CPU 0 panic: IPC 0.0053678 < 0.01
Simulation CPU 0 panic: IPC 0.0008489 < 0.01
Simulation CPU 0 panic: IPC 0.0062336 < 0.01
Simulation CPU 0 critical: IPC 0.016962 < 0.02
Simulation CPU 0 warning: IPC 0.027921 < 0.05
Simulation CPU 0 warning: IPC 0.024836 < 0.05
Simulation CPU 0 panic: IPC 0.0093223 < 0.01
Simulation CPU 0 panic: IPC 0.0062246 < 0.01
Simulation CPU 0 panic: IPC 0.0062066 < 0.01
Simulation CPU 0 critical: IPC 0.018615 < 0.02
Simulation CPU 0 critical: IPC 0.012438 < 0.02
Simulation CPU 0 panic: IPC 0.0031166 < 0.01
Simulation CPU 0 panic: IPC 0.0031208 < 0.01
Simulation CPU 0 warning: IPC 0.02004 < 0.05
Simulation CPU 0 critical: IPC 0.010963 < 0.02
Simulation CPU 0 panic: IPC 0.0031072 < 0.01
Simulation CPU 0 critical: IPC 0.015524 < 0.02
Simulation CPU 0 panic: IPC 0.0031108 < 0.01
Simulation CPU 0 warning: IPC 0.037164 < 0.05
Simulation CPU 0 warning: IPC 0.024278 < 0.05
Simulation CPU 0 warning: IPC 0.022312 < 0.05
Simulation CPU 0 critical: IPC 0.012411 < 0.02
Simulation CPU 0 critical: IPC 0.012403 < 0.02
Simulation CPU 0 warning: IPC 0.025423 < 0.05
Simulation CPU 0 warning: IPC 0.036607 < 0.05
Simulation CPU 0 critical: IPC 0.01862 < 0.02
Heartbeat CPU 0 instructions: 1430000209 cycles: 41000970129 heartbeat IPC: 0.01669 cumulative IPC: 0.03488 (Simulation time: 06 hr 46 min 30 sec)
Simulation CPU 0 warning: IPC 0.046192 < 0.05
Simulation CPU 0 warning: IPC 0.034431 < 0.05
Simulation CPU 0 warning: IPC 0.042458 < 0.05
Simulation CPU 0 warning: IPC 0.041263 < 0.05
Simulation CPU 0 warning: IPC 0.024837 < 0.05
Simulation CPU 0 panic: IPC 0.0031006 < 0.01
Simulation CPU 0 critical: IPC 0.012431 < 0.02
Simulation CPU 0 panic: IPC 0.0062238 < 0.01
Simulation CPU 0 panic: IPC 0.0062067 < 0.01
Simulation CPU 0 critical: IPC 0.018612 < 0.02
Simulation CPU 0 panic: IPC 0.0093282 < 0.01
Simulation CPU 0 panic: IPC 0.000472 < 0.01
Simulation CPU 0 panic: IPC 0.0026454 < 0.01
Simulation CPU 0 warning: IPC 0.021713 < 0.05
Simulation CPU 0 panic: IPC 0.0043988 < 0.01
Simulation CPU 0 warning: IPC 0.045258 < 0.05
Simulation CPU 0 panic: IPC 0.0093066 < 0.01
Simulation CPU 0 panic: IPC 0.0031114 < 0.01
Simulation CPU 0 panic: IPC 0.0062124 < 0.01
Simulation CPU 0 warning: IPC 0.039638 < 0.05
Simulation CPU 0 warning: IPC 0.02554 < 0.05
Simulation CPU 0 panic: IPC 0.0093346 < 0.01
Simulation CPU 0 panic: IPC 0.0093324 < 0.01
Simulation CPU 0 panic: IPC 0.0031227 < 0.01
Simulation CPU 0 panic: IPC 0.0062073 < 0.01
Simulation CPU 0 panic: IPC 0.0030999 < 0.01
Simulation CPU 0 warning: IPC 0.027965 < 0.05
Simulation CPU 0 warning: IPC 0.034132 < 0.05
Simulation CPU 0 panic: IPC 0.0031036 < 0.01
Simulation CPU 0 critical: IPC 0.012404 < 0.02
Simulation CPU 0 critical: IPC 0.015556 < 0.02
Simulation CPU 0 critical: IPC 0.015535 < 0.02
Simulation CPU 0 panic: IPC 0.0031102 < 0.01
Simulation CPU 0 warning: IPC 0.04346 < 0.05
Simulation CPU 0 panic: IPC 0.0093036 < 0.01
Simulation CPU 0 warning: IPC 0.027935 < 0.05
Simulation CPU 0 warning: IPC 0.034133 < 0.05
Simulation CPU 0 panic: IPC 0.0062036 < 0.01
Simulation CPU 0 critical: IPC 0.012433 < 0.02
Simulation CPU 0 panic: IPC 0.0093132 < 0.01
Simulation CPU 0 panic: IPC 0.0062036 < 0.01
Simulation CPU 0 warning: IPC 0.024821 < 0.05
Simulation CPU 0 panic: IPC 0.006214 < 0.01
Simulation CPU 0 panic: IPC 8.5e-06 < 0.01
Simulation CPU 0 panic: IPC 1.7e-06 < 0.01
Simulation CPU 0 panic: IPC 4.5e-06 < 0.01
Simulation CPU 0 panic: IPC 2e-07 < 0.01
Simulation CPU 0 panic: IPC 0.0003641 < 0.01
Simulation CPU 0 critical: IPC 0.017813 < 0.02
Simulation CPU 0 panic: IPC 7.4e-06 < 0.01
Simulation CPU 0 panic: IPC 0.0001002 < 0.01
Simulation CPU 0 panic: IPC 0.0002544 < 0.01
Simulation CPU 0 panic: IPC 0.0005271 < 0.01
Simulation CPU 0 panic: IPC 0.0002088 < 0.01
Simulation CPU 0 panic: IPC 0.0004464 < 0.01
Simulation CPU 0 panic: IPC 6.69e-05 < 0.01
Simulation CPU 0 panic: IPC 2.1e-06 < 0.01
Simulation CPU 0 panic: IPC 0.0008102 < 0.01
Simulation CPU 0 panic: IPC 2.1e-06 < 0.01
Simulation CPU 0 panic: IPC 0.000817 < 0.01
Simulation CPU 0 warning: IPC 0.041393 < 0.05
Simulation CPU 0 panic: IPC 0.0025227 < 0.01
Simulation CPU 0 critical: IPC 0.01707 < 0.02
Simulation CPU 0 panic: IPC 0.0062171 < 0.01
Simulation CPU 0 panic: IPC 0.0031513 < 0.01
Simulation CPU 0 panic: IPC 2.1e-06 < 0.01
Simulation CPU 0 critical: IPC 0.012454 < 0.02
Simulation CPU 0 panic: IPC 2.1e-06 < 0.01
Simulation CPU 0 critical: IPC 0.015606 < 0.02
Simulation CPU 0 panic: IPC 0.0093959 < 0.01
Simulation CPU 0 critical: IPC 0.01248 < 0.02
Simulation CPU 0 panic: IPC 0.0093737 < 0.01
Simulation CPU 0 panic: IPC 0.0031198 < 0.01
Simulation CPU 0 panic: IPC 2.1e-06 < 0.01
Simulation CPU 0 warning: IPC 0.031116 < 0.05
Simulation CPU 0 critical: IPC 0.018628 < 0.02
Simulation CPU 0 panic: IPC 2.6e-06 < 0.01
Simulation CPU 0 critical: IPC 0.018615 < 0.02
Simulation CPU 0 critical: IPC 0.01241 < 0.02
Simulation CPU 0 panic: IPC 0.0093077 < 0.01
Heartbeat CPU 0 instructions: 1440000211 cycles: 41804987404 heartbeat IPC: 0.01244 cumulative IPC: 0.03445 (Simulation time: 07 hr 48 min 24 sec)
Simulation CPU 0 warning: IPC 0.037235 < 0.05
Simulation CPU 0 warning: IPC 0.021727 < 0.05
Simulation CPU 0 panic: IPC 0.0031157 < 0.01
Simulation CPU 0 critical: IPC 0.015502 < 0.02
Simulation CPU 0 panic: IPC 0.0093162 < 0.01
Simulation CPU 0 warning: IPC 0.029798 < 0.05
Simulation CPU 0 warning: IPC 0.031012 < 0.05
Simulation CPU 0 warning: IPC 0.024807 < 0.05
Simulation CPU 0 warning: IPC 0.04031 < 0.05
Simulation CPU 0 warning: IPC 0.039106 < 0.05
Simulation CPU 0 panic: IPC 0.0061965 < 0.01
Simulation CPU 0 panic: IPC 0.0093194 < 0.01
Heartbeat CPU 0 instructions: 1450000214 cycles: 42034248065 heartbeat IPC: 0.04362 cumulative IPC: 0.0345 (Simulation time: 08 hr 07 min 10 sec)
Simulation CPU 0 warning: IPC 0.02481 < 0.05
Simulation CPU 0 warning: IPC 0.021715 < 0.05
Simulation CPU 0 warning: IPC 0.02793 < 0.05
Simulation CPU 0 panic: IPC 0.0061995 < 0.01
Simulation CPU 0 panic: IPC 0.0093047 < 0.01
Simulation CPU 0 warning: IPC 0.049619 < 0.05
Simulation CPU 0 warning: IPC 0.027934 < 0.05
Simulation CPU 0 panic: IPC 0.009309 < 0.01
Simulation CPU 0 critical: IPC 0.015501 < 0.02
Simulation CPU 0 panic: IPC 0.0093138 < 0.01
Simulation CPU 0 panic: IPC 0.0062148 < 0.01
Simulation CPU 0 panic: IPC 0.0030999 < 0.01
Simulation CPU 0 panic: IPC 0.0093078 < 0.01
Simulation CPU 0 panic: IPC 0.0031277 < 0.01
Simulation CPU 0 critical: IPC 0.01863 < 0.02
Simulation CPU 0 panic: IPC 0.0062023 < 0.01
Simulation CPU 0 warning: IPC 0.040322 < 0.05
Simulation CPU 0 critical: IPC 0.012442 < 0.02
Simulation CPU 0 critical: IPC 0.012408 < 0.02
Simulation CPU 0 critical: IPC 0.018697 < 0.02
Simulation CPU 0 critical: IPC 0.015558 < 0.02
Simulation CPU 0 warning: IPC 0.043444 < 0.05
Simulation CPU 0 warning: IPC 0.024819 < 0.05
Simulation CPU 0 panic: IPC 0.0031018 < 0.01
Simulation CPU 0 warning: IPC 0.037241 < 0.05
Simulation CPU 0 panic: IPC 0.006209 < 0.01
Simulation CPU 0 warning: IPC 0.031039 < 0.05
Simulation CPU 0 warning: IPC 0.024819 < 0.05
Simulation CPU 0 warning: IPC 0.021732 < 0.05
Heartbeat CPU 0 instructions: 1460000214 cycles: 42383826829 heartbeat IPC: 0.02861 cumulative IPC: 0.03445 (Simulation time: 08 hr 33 min 20 sec)
Simulation CPU 0 warning: IPC 0.037207 < 0.05
Simulation CPU 0 critical: IPC 0.015512 < 0.02
Simulation CPU 0 critical: IPC 0.015513 < 0.02
Simulation CPU 0 critical: IPC 0.012418 < 0.02
Simulation CPU 0 panic: IPC 0.0062166 < 0.01
Simulation CPU 0 warning: IPC 0.037202 < 0.05
Simulation CPU 0 warning: IPC 0.021713 < 0.05
Simulation CPU 0 panic: IPC 0.0031066 < 0.01
Simulation CPU 0 warning: IPC 0.047301 < 0.05
Simulation CPU 0 warning: IPC 0.021735 < 0.05
Simulation CPU 0 warning: IPC 0.024832 < 0.05
Simulation CPU 0 warning: IPC 0.02487 < 0.05
Simulation CPU 0 panic: IPC 0.0062054 < 0.01
Simulation CPU 0 panic: IPC 0.004307 < 0.01
Simulation CPU 0 warning: IPC 0.020517 < 0.05
Simulation CPU 0 warning: IPC 0.043463 < 0.05
Simulation CPU 0 warning: IPC 0.031019 < 0.05
Simulation CPU 0 critical: IPC 0.012409 < 0.02
Simulation CPU 0 warning: IPC 0.021497 < 0.05
Simulation CPU 0 critical: IPC 0.018847 < 0.02
Simulation CPU 0 panic: IPC 0.0010842 < 0.01
Simulation CPU 0 panic: IPC 0.0062012 < 0.01
Simulation CPU 0 panic: IPC 0.0093042 < 0.01
Simulation CPU 0 panic: IPC 0.0093342 < 0.01
Simulation CPU 0 critical: IPC 0.015526 < 0.02
Simulation CPU 0 warning: IPC 0.046059 < 0.05
Heartbeat CPU 0 instructions: 1470000214 cycles: 42714958924 heartbeat IPC: 0.0302 cumulative IPC: 0.03441 (Simul