
*** ChampSim Multicore Out-of-Order Simulator ***
Warmup Instructions: 0
Simulation Instructions: 9223372036854775807
Number of CPUs: 1
Page size: 1048576

Off-chip DRAM Size: 32 GiB Channels: 2 Width: 32-bit Data Rate: 4807 MT/s
[ERROR_PAGE_MANAGER] Error latency: 2459910500 
[ERROR_PAGE_MANAGER] Random seed: 54321 (fixed for preload reproducibility)
[ERROR_PAGE_MANAGER] Cycle-based error modeling enabled
[ERROR_PAGE_MANAGER] Errors per interval: 1
[ERROR_PAGE_MANAGER] Error cycle interval: 70532401 cycles

=== ERROR PAGE STATISTICS ===
Mode: CYCLE
Error Cycle Interval: 70532401 CPU cycles
Total Error Accesses: 0
==============================
Warmup finished CPU 0 instructions: 0 cycles: 1 cumulative IPC: 0 (Simulation time: 00 hr 00 min 00 sec)
Warmup complete CPU 0 instructions: 0 cycles: 1 cumulative IPC: 0 (Simulation time: 00 hr 00 min 00 sec)
Simulation CPU 0 panic: IPC 0 < 0.01
Simulation CPU 0 panic: IPC 0 < 0.01
Simulation CPU 0 panic: IPC 0 < 0.01
Simulation CPU 0 panic: IPC 5e-07 < 0.01
Simulation CPU 0 panic: IPC 1.1e-06 < 0.01
Simulation CPU 0 panic: IPC 0 < 0.01
Simulation CPU 0 panic: IPC 8e-06 < 0.01
[ERROR_CYCLE] Error added at CPU cycle 70532402, interval 1, pending count: 1
[DRAM_CYCLE_ERROR] Cycle-based error applied! address=0x537c0e488 additional_latency=2459910500 cycles
Simulation CPU 0 panic: IPC 0 < 0.01
Simulation CPU 0 panic: IPC 4.54e-05 < 0.01
Simulation CPU 0 panic: IPC 0.0001128 < 0.01
Simulation CPU 0 panic: IPC 0.0001051 < 0.01
Simulation CPU 0 panic: IPC 0.0026152 < 0.01
Simulation CPU 0 panic: IPC 3.34e-05 < 0.01
Simulation CPU 0 panic: IPC 0.0010197 < 0.01
[ERROR_CYCLE] Error added at CPU cycle 141064802, interval 2, pending count: 1
[DRAM_CYCLE_ERROR] Cycle-based error applied! address=0x4b08e2390 additional_latency=2459910500 cycles
Simulation CPU 0 panic: IPC 0 < 0.01
Simulation CPU 0 panic: IPC 1.35e-05 < 0.01
Simulation CPU 0 panic: IPC 2.05e-05 < 0.01
Simulation CPU 0 panic: IPC 1.14e-05 < 0.01
Simulation CPU 0 panic: IPC 2.72e-05 < 0.01
Simulation CPU 0 panic: IPC 0.00025 < 0.01
Simulation CPU 0 panic: IPC 0.0001349 < 0.01
[ERROR_CYCLE] Error added at CPU cycle 211597203, interval 3, pending count: 1
[DRAM_CYCLE_ERROR] Cycle-based error applied! address=0x537c1d758 additional_latency=2459910500 cycles
Simulation CPU 0 panic: IPC 0 < 0.01
Simulation CPU 0 panic: IPC 0 < 0.01
Simulation CPU 0 panic: IPC 0.0004092 < 0.01
Simulation CPU 0 panic: IPC 0.000361 < 0.01
Simulation CPU 0 panic: IPC 0.0001798 < 0.01
Simulation CPU 0 panic: IPC 0.0005803 < 0.01
Simulation CPU 0 warning: IPC 0.026295 < 0.05
[ERROR_CYCLE] Error added at CPU cycle 282129604, interval 4, pending count: 1
[DRAM_CYCLE_ERROR] Cycle-based error applied! address=0x537c247b8 additional_latency=2459910500 cycles
Simulation CPU 0 panic: IPC 2e-07 < 0.01
Simulation CPU 0 panic: IPC 4.7e-06 < 0.01
Simulation CPU 0 panic: IPC 4.4e-06 < 0.01
Simulation CPU 0 panic: IPC 1.52e-05 < 0.01
Simulation CPU 0 panic: IPC 7.6e-06 < 0.01
Simulation CPU 0 panic: IPC 7.1e-06 < 0.01
Simulation CPU 0 panic: IPC 1.75e-05 < 0.01
[ERROR_CYCLE] Error added at CPU cycle 352662006, interval 5, pending count: 1
[DRAM_CYCLE_ERROR] Cycle-based error applied! address=0x46b1e41d8 additional_latency=2459910500 cycles
Simulation CPU 0 panic: IPC 5.4e-06 < 0.01
Simulation CPU 0 panic: IPC 8.9e-06 < 0.01
Simulation CPU 0 panic: IPC 9.6e-06 < 0.01
Simulation CPU 0 panic: IPC 2.45e-05 < 0.01
Simulation CPU 0 panic: IPC 2.44e-05 < 0.01
Simulation CPU 0 panic: IPC 2.39e-05 < 0.01
Simulation CPU 0 panic: IPC 4.6e-06 < 0.01
[ERROR_CYCLE] Error added at CPU cycle 423194407, interval 6, pending count: 1
[DRAM_CYCLE_ERROR] Cycle-based error applied! address=0x537c3e750 additional_latency=2459910500 cycles
Simulation CPU 0 panic: IPC 0 < 0.01
Simulation CPU 0 panic: IPC 1.42e-05 < 0.01
Simulation CPU 0 panic: IPC 1.24e-05 < 0.01
Simulation CPU 0 panic: IPC 3e-05 < 0.01
Simulation CPU 0 panic: IPC 5.34e-05 < 0.01
Simulation CPU 0 panic: IPC 3.88e-05 < 0.01
Simulation CPU 0 panic: IPC 2.17e-05 < 0.01
[ERROR_CYCLE] Error added at CPU cycle 493726807, interval 7, pending count: 1
[DRAM_CYCLE_ERROR] Cycle-based error applied! address=0x537c477a8 additional_latency=2459910500 cycles
Simulation CPU 0 panic: IPC 3.42e-05 < 0.01
Simulation CPU 0 panic: IPC 0 < 0.01
Simulation CPU 0 panic: IPC 6.8e-06 < 0.01
Simulation CPU 0 panic: IPC 4.24e-05 < 0.01
Simulation CPU 0 panic: IPC 3.17e-05 < 0.01
Simulation CPU 0 panic: IPC 6.63e-05 < 0.01
Simulation CPU 0 panic: IPC 1.71e-05 < 0.01
[ERROR_CYCLE] Error added at CPU cycle 564259208, interval 8, pending count: 1
[DRAM_CYCLE_ERROR] Cycle-based error applied! address=0x625e92dd8 additional_latency=2459910500 cycles
Simulation CPU 0 panic: IPC 4e-07 < 0.01
Simulation CPU 0 panic: IPC 1.39e-05 < 0.01
Simulation CPU 0 panic: IPC 5.89e-05 < 0.01
Simulation CPU 0 panic: IPC 6.6e-06 < 0.01
Simulation CPU 0 panic: IPC 1.53e-05 < 0.01
Simulation CPU 0 panic: IPC 1.18e-05 < 0.01
Simulation CPU 0 panic: IPC 0.0001261 < 0.01
[ERROR_CYCLE] Error added at CPU cycle 634791609, interval 9, pending count: 1
[DRAM_CYCLE_ERROR] Cycle-based error applied! address=0x537c577a0 additional_latency=2459910500 cycles
Simulation CPU 0 panic: IPC 2.42e-05 < 0.01
Simulation CPU 0 panic: IPC 0 < 0.01
Simulation CPU 0 panic: IPC 0.0001872 < 0.01
Simulation CPU 0 panic: IPC 7.6e-06 < 0.01
Simulation CPU 0 panic: IPC 5.06e-05 < 0.01
Simulation CPU 0 panic: IPC 0.0001728 < 0.01
Simulation CPU 0 panic: IPC 0.0001305 < 0.01
[ERROR_CYCLE] Error added at CPU cycle 705324011, interval 10, pending count: 1
[DRAM_CYCLE_ERROR] Cycle-based error applied! address=0xd96ca238 additional_latency=2459910500 cycles
Simulation CPU 0 panic: IPC 4e-07 < 0.01
Simulation CPU 0 panic: IPC 6.89e-05 < 0.01
Simulation CPU 0 panic: IPC 8.56e-05 < 0.01
Simulation CPU 0 panic: IPC 0 < 0.01
Simulation CPU 0 panic: IPC 0.0001422 < 0.01
Simulation CPU 0 panic: IPC 0.0002701 < 0.01
Simulation CPU 0 panic: IPC 9.4e-06 < 0.01
[ERROR_CYCLE] Error added at CPU cycle 775856412, interval 11, pending count: 1
[DRAM_CYCLE_ERROR] Cycle-based error applied! address=0x6bcbfb200 additional_latency=2459910500 cycles
Simulation CPU 0 panic: IPC 0 < 0.01
Simulation CPU 0 panic: IPC 4.54e-05 < 0.01
Simulation CPU 0 panic: IPC 7.23e-05 < 0.01
Simulation CPU 0 panic: IPC 2.85e-05 < 0.01
Simulation CPU 0 panic: IPC 3.84e-05 < 0.01
Simulation CPU 0 panic: IPC 1.47e-05 < 0.01
Simulation CPU 0 panic: IPC 0.0002031 < 0.01
[ERROR_CYCLE] Error added at CPU cycle 846388812, interval 12, pending count: 1
[DRAM_CYCLE_ERROR] Cycle-based error applied! address=0x537c6d8a8 additional_latency=2459910500 cycles
Simulation CPU 0 panic: IPC 0.0001284 < 0.01
Simulation CPU 0 panic: IPC 0 < 0.01
Simulation CPU 0 panic: IPC 0.0002105 < 0.01
Simulation CPU 0 panic: IPC 0.0007568 < 0.01
Simulation CPU 0 panic: IPC 0.0002041 < 0.01
Simulation CPU 0 panic: IPC 0.0001673 < 0.01
Simulation CPU 0 panic: IPC 9.35e-05 < 0.01
[ERROR_CYCLE] Error added at CPU cycle 916921213, interval 13, pending count: 1
[DRAM_CYCLE_ERROR] Cycle-based error applied! address=0x7287c4f28 additional_latency=2459910500 cycles
Simulation CPU 0 panic: IPC 4e-07 < 0.01
Simulation CPU 0 panic: IPC 0.0002398 < 0.01
Simulation CPU 0 panic: IPC 7.99e-05 < 0.01
Simulation CPU 0 panic: IPC 8.3e-05 < 0.01
Simulation CPU 0 panic: IPC 0.0001353 < 0.01
Simulation CPU 0 panic: IPC 0.0005871 < 0.01
Simulation CPU 0 panic: IPC 1.46e-05 < 0.01
[ERROR_CYCLE] Error added at CPU cycle 987453615, interval 14, pending count: 1
[DRAM_CYCLE_ERROR] Cycle-based error applied! address=0x537c7b918 additional_latency=2459910500 cycles
Simulation CPU 0 panic: IPC 0.0003208 < 0.01
Simulation CPU 0 panic: IPC 0 < 0.01
Simulation CPU 0 panic: IPC 0.0003422 < 0.01
Simulation CPU 0 panic: IPC 0.0001082 < 0.01
Simulation CPU 0 panic: IPC 8.87e-05 < 0.01
Simulation CPU 0 panic: IPC 0.0001112 < 0.01
Simulation CPU 0 panic: IPC 0.0006171 < 0.01
[ERROR_CYCLE] Error added at CPU cycle 1057986016, interval 15, pending count: 1
Simulation CPU 0 panic: IPC 0.0001232 < 0.01
[DRAM_CYCLE_ERROR] Cycle-based error applied! address=0x537c828b8 additional_latency=2459910500 cycles
Simulation CPU 0 panic: IPC 0 < 0.01
Simulation CPU 0 panic: IPC 0.0010295 < 0.01
Simulation CPU 0 panic: IPC 0.0008541 < 0.01
Simulation CPU 0 panic: IPC 0.0006314 < 0.01
Simulation CPU 0 panic: IPC 0.0001833 < 0.01
Simulation CPU 0 panic: IPC 0.0001434 < 0.01
[ERROR_CYCLE] Error added at CPU cycle 1128518416, interval 16, pending count: 1
Simulation CPU 0 panic: IPC 4.77e-05 < 0.01
[DRAM_CYCLE_ERROR] Cycle-based error applied! address=0x460e5fa90 additional_latency=2459910500 cycles
Simulation CPU 0 panic: IPC 0 < 0.01
Simulation CPU 0 panic: IPC 0.0008204 < 0.01
Simulation CPU 0 panic: IPC 1.22e-05 < 0.01
Simulation CPU 0 panic: IPC 0.0002967 < 0.01
Simulation CPU 0 panic: IPC 0.0002737 < 0.01
Simulation CPU 0 panic: IPC 0.0006529 < 0.01
[ERROR_CYCLE] Error added at CPU cycle 1199050817, interval 17, pending count: 1
Simulation CPU 0 panic: IPC 0.0004779 < 0.01
[DRAM_CYCLE_ERROR] Cycle-based error applied! address=0x537c8f7f0 additional_latency=2459910500 cycles
Simulation CPU 0 panic: IPC 0 < 0.01
Simulation CPU 0 panic: IPC 0.0005578 < 0.01
Simulation CPU 0 panic: IPC 7.93e-05 < 0.01
Simulation CPU 0 panic: IPC 0.000243 < 0.01
Simulation CPU 0 panic: IPC 0.0002813 < 0.01
Simulation CPU 0 panic: IPC 5.3e-06 < 0.01
[ERROR_CYCLE] Error added at CPU cycle 1269583218, interval 18, pending count: 1
Simulation CPU 0 panic: IPC 0.0004785 < 0.01
[DRAM_CYCLE_ERROR] Cycle-based error applied! address=0x600be5288 additional_latency=2459910500 cycles
Simulation CPU 0 panic: IPC 4e-07 < 0.01
Simulation CPU 0 panic: IPC 0.0005444 < 0.01
Simulation CPU 0 panic: IPC 0.0004207 < 0.01
Simulation CPU 0 panic: IPC 0.0008273 < 0.01
Simulation CPU 0 panic: IPC 0.0009171 < 0.01
Simulation CPU 0 panic: IPC 7.1e-06 < 0.01
Simulation CPU 0 panic: IPC 0.0010043 < 0.01
[ERROR_CYCLE] Error added at CPU cycle 1340115620, interval 19, pending count: 1
[DRAM_CYCLE_ERROR] Cycle-based error applied! address=0x537c9c7d0 additional_latency=2459910500 cycles
Simulation CPU 0 panic: IPC 0 < 0.01
Simulation CPU 0 panic: IPC 0.0001551 < 0.01
Simulation CPU 0 panic: IPC 0.0002527 < 0.01
Simulation CPU 0 panic: IPC 0.0006688 < 0.01
Simulation CPU 0 panic: IPC 4.36e-05 < 0.01
Simulation CPU 0 panic: IPC 0.0008939 < 0.01
[ERROR_CYCLE] Error added at CPU cycle 1410648021, interval 20, pending count: 1
[DRAM_CYCLE_ERROR] Cycle-based error applied! address=0x537ca5078 additional_latency=2459910500 cycles
Simulation CPU 0 panic: IPC 2e-07 < 0.01
Simulation CPU 0 panic: IPC 4.9e-06 < 0.01
Simulation CPU 0 panic: IPC 6.3e-06 < 0.01
Simulation CPU 0 panic: IPC 2.01e-05 < 0.01
Simulation CPU 0 panic: IPC 7.1e-06 < 0.01
Simulation CPU 0 panic: IPC 5.1e-06 < 0.01
Simulation CPU 0 panic: IPC 6.6e-06 < 0.01
[ERROR_CYCLE] Error added at CPU cycle 1481180421, interval 21, pending count: 1
[DRAM_CYCLE_ERROR] Cycle-based error applied! address=0x4108377a8 additional_latency=2459910500 cycles
Simulation CPU 0 panic: IPC 4e-07 < 0.01
Simulation CPU 0 panic: IPC 4.2e-06 < 0.01
Simulation CPU 0 panic: IPC 9.2e-06 < 0.01
Simulation CPU 0 panic: IPC 7.4e-06 < 0.01
Simulation CPU 0 panic: IPC 9.4e-06 < 0.01
Simulation CPU 0 panic: IPC 7.1e-06 < 0.01
Simulation CPU 0 panic: IPC 9.1e-06 < 0.01
[ERROR_CYCLE] Error added at CPU cycle 1551712822, interval 22, pending count: 1
[DRAM_CYCLE_ERROR] Cycle-based error applied! address=0x537cbd0a8 additional_latency=2459910500 cycles
Simulation CPU 0 panic: IPC 0 < 0.01
Simulation CPU 0 panic: IPC 1.22e-05 < 0.01
Simulation CPU 0 panic: IPC 9.6e-06 < 0.01
Simulation CPU 0 panic: IPC 1.14e-05 < 0.01
Simulation CPU 0 panic: IPC 2.3e-06 < 0.01
Simulation CPU 0 panic: IPC 9.4e-06 < 0.01
Simulation CPU 0 panic: IPC 1.63e-05 < 0.01
[ERROR_CYCLE] Error added at CPU cycle 1622245223, interval 23, pending count: 1
[DRAM_CYCLE_ERROR] Cycle-based error applied! address=0x47b3faa08 additional_latency=2459910500 cycles
Simulation CPU 0 panic: IPC 4e-07 < 0.01
Simulation CPU 0 panic: IPC 2.53e-05 < 0.01
Simulation CPU 0 panic: IPC 9.4e-06 < 0.01
Simulation CPU 0 panic: IPC 2.8e-06 < 0.01
Simulation CPU 0 panic: IPC 6.6e-06 < 0.01
Simulation CPU 0 panic: IPC 3.58e-05 < 0.01
Simulation CPU 0 panic: IPC 8.9e-06 < 0.01
[ERROR_CYCLE] Error added at CPU cycle 1692777625, interval 24, pending count: 1
[DRAM_CYCLE_ERROR] Cycle-based error applied! address=0x537cd2c20 additional_latency=2459910500 cycles
Simulation CPU 0 panic: IPC 0 < 0.01
Simulation CPU 0 panic: IPC 3.79e-05 < 0.01
Simulation CPU 0 panic: IPC 1.4e-05 < 0.01
Simulation CPU 0 panic: IPC 1.65e-05 < 0.01
Simulation CPU 0 panic: IPC 1.19e-05 < 0.01
Simulation CPU 0 panic: IPC 4.65e-05 < 0.01
Simulation CPU 0 panic: IPC 9.7e-06 < 0.01
[ERROR_CYCLE] Error added at CPU cycle 1763310025, interval 25, pending count: 1
[DRAM_CYCLE_ERROR] Cycle-based error applied! address=0x6f0b5ce88 additional_latency=2459910500 cycles
Simulation CPU 0 panic: IPC 4e-07 < 0.01
Simulation CPU 0 panic: IPC 2.3e-05 < 0.01
Simulation CPU 0 panic: IPC 9.1e-06 < 0.01
Simulation CPU 0 panic: IPC 4.75e-05 < 0.01
Simulation CPU 0 panic: IPC 7.1e-06 < 0.01
Simulation CPU 0 panic: IPC 7.49e-05 < 0.01
Simulation CPU 0 panic: IPC 2.85e-05 < 0.01
[ERROR_CYCLE] Error added at CPU cycle 1833842426, interval 26, pending count: 1
[DRAM_CYCLE_ERROR] Cycle-based error applied! address=0x4955de718 additional_latency=2459910500 cycles
Simulation CPU 0 panic: IPC 4e-07 < 0.01
Simulation CPU 0 panic: IPC 1.81e-05 < 0.01
Simulation CPU 0 panic: IPC 7.4e-06 < 0.01
Simulation CPU 0 panic: IPC 1.81e-05 < 0.01
Simulation CPU 0 panic: IPC 2.8e-06 < 0.01
Simulation CPU 0 panic: IPC 1.65e-05 < 0.01
Simulation CPU 0 panic: IPC 1.65e-05 < 0.01
[ERROR_CYCLE] Error added at CPU cycle 1904374827, interval 27, pending count: 1
[DRAM_CYCLE_ERROR] Cycle-based error applied! address=0x537cebf58 additional_latency=2459910500 cycles
Simulation CPU 0 panic: IPC 4.94e-05 < 0.01
Simulation CPU 0 panic: IPC 0 < 0.01
Simulation CPU 0 panic: IPC 4.72e-05 < 0.01
Simulation CPU 0 panic: IPC 5.42e-05 < 0.01
Simulation CPU 0 panic: IPC 7e-05 < 0.01
Simulation CPU 0 panic: IPC 0.0001541 < 0.01
Simulation CPU 0 panic: IPC 1.2e-05 < 0.01
[ERROR_CYCLE] Error added at CPU cycle 1974907229, interval 28, pending count: 1
[DRAM_CYCLE_ERROR] Cycle-based error applied! address=0x6cef9da8 additional_latency=2459910500 cycles
Simulation CPU 0 panic: IPC 0 < 0.01
Simulation CPU 0 panic: IPC 1.6e-05 < 0.01
Simulation CPU 0 panic: IPC 3.72e-05 < 0.01
Simulation CPU 0 panic: IPC 5.39e-05 < 0.01
Simulation CPU 0 panic: IPC 5.83e-05 < 0.01
Simulation CPU 0 panic: IPC 7.4e-06 < 0.01
Simulation CPU 0 panic: IPC 9.64e-05 < 0.01
[ERROR_CYCLE] Error added at CPU cycle 2045439630, interval 29, pending count: 1
[DRAM_CYCLE_ERROR] Cycle-based error applied! address=0x537cfa020 additional_latency=2459910500 cycles
Simulation CPU 0 panic: IPC 3.93e-05 < 0.01
Simulation CPU 0 panic: IPC 0 < 0.01
Simulation CPU 0 panic: IPC 4.01e-05 < 0.01
Simulation CPU 0 panic: IPC 5.43e-05 < 0.01
Simulation CPU 0 panic: IPC 3.28e-05 < 0.01
Simulation CPU 0 panic: IPC 0.0002079 < 0.01
Simulation CPU 0 panic: IPC 5.18e-05 < 0.01
[ERROR_CYCLE] Error added at CPU cycle 2115972030, interval 30, pending count: 1
[DRAM_CYCLE_ERROR] Cycle-based error applied! address=0xd0ae5bb0 additional_latency=2459910500 cycles
Simulation CPU 0 panic: IPC 4e-07 < 0.01
Simulation CPU 0 panic: IPC 1.11e-05 < 0.01
Simulation CPU 0 panic: IPC 9.68e-05 < 0.01
Simulation CPU 0 panic: IPC 0.0001309 < 0.01
Simulation CPU 0 panic: IPC 0.0001174 < 0.01
Simulation CPU 0 panic: IPC 0.0001295 < 0.01
Simulation CPU 0 panic: IPC 1.22e-05 < 0.01
[ERROR_CYCLE] Error added at CPU cycle 2186504431, interval 31, pending count: 1
[DRAM_CYCLE_ERROR] Cycle-based error applied! address=0x7d7209bc0 additional_latency=2459910500 cycles
Simulation CPU 0 panic: IPC 0.0001157 < 0.01
Simulation CPU 0 panic: IPC 0 < 0.01
Simulation CPU 0 panic: IPC 0.0001207 < 0.01
Simulation CPU 0 panic: IPC 8.65e-05 < 0.01
Simulation CPU 0 panic: IPC 0.0004993 < 0.01
Simulation CPU 0 panic: IPC 3.03e-05 < 0.01
Simulation CPU 0 panic: IPC 7.25e-05 < 0.01
[ERROR_CYCLE] Error added at CPU cycle 2257036832, interval 32, pending count: 1
[DRAM_CYCLE_ERROR] Cycle-based error applied! address=0x6d7657db0 additional_latency=2459910500 cycles
Simulation CPU 0 panic: IPC 4e-07 < 0.01
Simulation CPU 0 panic: IPC 6.08e-05 < 0.01
Simulation CPU 0 panic: IPC 1.4e-05 < 0.01
Simulation CPU 0 panic: IPC 5.14e-05 < 0.01
Simulation CPU 0 panic: IPC 3.01e-05 < 0.01
Simulation CPU 0 panic: IPC 8.75e-05 < 0.01
Simulation CPU 0 panic: IPC 0.0002192 < 0.01
[ERROR_CYCLE] Error added at CPU cycle 2327569234, interval 33, pending count: 1
Simulation CPU 0 panic: IPC 5.18e-05 < 0.01
[DRAM_CYCLE_ERROR] Cycle-based error applied! address=0x37b8dd4b0 additional_latency=2459910500 cycles
Simulation CPU 0 panic: IPC 0 < 0.01
Simulation CPU 0 panic: IPC 0.0001361 < 0.01
Simulation CPU 0 panic: IPC 9.2e-06 < 0.01
Simulation CPU 0 panic: IPC 6.82e-05 < 0.01
Simulation CPU 0 panic: IPC 0.0001211 < 0.01
Simulation CPU 0 panic: IPC 7.1e-06 < 0.01
[ERROR_CYCLE] Error added at CPU cycle 2398101635, interval 34, pending count: 1
Simulation CPU 0 panic: IPC 2.11e-05 < 0.01
[DRAM_CYCLE_ERROR] Cycle-based error applied! address=0x7d721d910 additional_latency=2459910500 cycles
Simulation CPU 0 panic: IPC 0 < 0.01
Simulation CPU 0 panic: IPC 7.08e-05 < 0.01
Simulation CPU 0 panic: IPC 2.57e-05 < 0.01
Simulation CPU 0 panic: IPC 0.0001952 < 0.01
Simulation CPU 0 panic: IPC 5.38e-05 < 0.01
Simulation CPU 0 panic: IPC 0.0003188 < 0.01
[ERROR_CYCLE] Error added at CPU cycle 2468634035, interval 35, pending count: 1
Simulation CPU 0 panic: IPC 8.4e-05 < 0.01
[DRAM_CYCLE_ERROR] Cycle-based error applied! address=0xc44efd90 additional_latency=2459910500 cycles
Simulation CPU 0 panic: IPC 4e-07 < 0.01
Simulation CPU 0 panic: IPC 5.58e-05 < 0.01
Simulation CPU 0 panic: IPC 0.0001369 < 0.01
Simulation CPU 0 panic: IPC 2.29e-05 < 0.01
Simulation CPU 0 panic: IPC 3.56e-05 < 0.01
Simulation CPU 0 panic: IPC 0.0001177 < 0.01
[ERROR_CYCLE] Error added at CPU cycle 2539166436, interval 36, pending count: 1
Simulation CPU 0 panic: IPC 5.19e-05 < 0.01
[DRAM_CYCLE_ERROR] Cycle-based error applied! address=0x7d722a070 additional_latency=2459910500 cycles
Simulation CPU 0 panic: IPC 0 < 0.01
Simulation CPU 0 panic: IPC 0.00012 < 0.01
Simulation CPU 0 panic: IPC 5.91e-05 < 0.01
Simulation CPU 0 panic: IPC 0.0002348 < 0.01
Simulation CPU 0 panic: IPC 1.17e-05 < 0.01
Simulation CPU 0 panic: IPC 0.0001456 < 0.01
[ERROR_CYCLE] Error added at CPU cycle 2609698838, interval 37, pending count: 1
Simulation CPU 0 panic: IPC 7e-05 < 0.01
[DRAM_CYCLE_ERROR] Cycle-based error applied! address=0x51382dc88 additional_latency=2459910500 cycles
Simulation CPU 0 panic: IPC 4e-07 < 0.01
Simulation CPU 0 panic: IPC 7.03e-05 < 0.01
Simulation CPU 0 panic: IPC 0.0001799 < 0.01
Simulation CPU 0 panic: IPC 0.0003372 < 0.01
Simulation CPU 0 panic: IPC 2.09e-05 < 0.01
Simulation CPU 0 panic: IPC 0.0001618 < 0.01
Simulation CPU 0 panic: IPC 2.83e-05 < 0.01
[ERROR_CYCLE] Error added at CPU cycle 2680231239, interval 38, pending count: 1
[DRAM_CYCLE_ERROR] Cycle-based error applied! address=0x7d7237d58 additional_latency=2459910500 cycles
Simulation CPU 0 panic: IPC 0 < 0.01
Simulation CPU 0 panic: IPC 0.0003213 < 0.01
Simulation CPU 0 panic: IPC 9.9e-06 < 0.01
Simulation CPU 0 panic: IPC 0.0001744 < 0.01
Simulation CPU 0 panic: IPC 0.0002223 < 0.01
Simulation CPU 0 panic: IPC 5.1e-06 < 0.01
Simulation CPU 0 panic: IPC 5e-05 < 0.01
[ERROR_CYCLE] Error added at CPU cycle 2750763639, interval 39, pending count: 1
[DRAM_CYCLE_ERROR] Cycle-based error applied! address=0x63d70d590 additional_latency=2459910500 cycles
Simulation CPU 0 panic: IPC 0 < 0.01
Simulation CPU 0 panic: IPC 3.24e-05 < 0.01
Simulation CPU 0 panic: IPC 0.0002134 < 0.01
Simulation CPU 0 panic: IPC 0.0001715 < 0.01
Simulation CPU 0 panic: IPC 4.89e-05 < 0.01
Simulation CPU 0 panic: IPC 2.37e-05 < 0.01
Simulation CPU 0 panic: IPC 4.61e-05 < 0.01
[ERROR_CYCLE] Error added at CPU cycle 2821296040, interval 40, pending count: 1
[DRAM_CYCLE_ERROR] Cycle-based error applied! address=0x7d7244a90 additional_latency=2459910500 cycles
Simulation CPU 0 panic: IPC 0 < 0.01
Simulation CPU 0 panic: IPC 4.7e-05 < 0.01
Simulation CPU 0 panic: IPC 0.0001473 < 0.01
Simulation CPU 0 panic: IPC 0.0001005 < 0.01
Simulation CPU 0 panic: IPC 2.82e-05 < 0.01
Simulation CPU 0 panic: IPC 0.0003203 < 0.01
Simulation CPU 0 panic: IPC 0.0002769 < 0.01
[ERROR_CYCLE] Error added at CPU cycle 2891828441, interval 41, pending count: 1
[DRAM_CYCLE_ERROR] Cycle-based error applied! address=0x7d724cd48 additional_latency=2459910500 cycles
Simulation CPU 0 panic: IPC 0.0005878 < 0.01
Simulation CPU 0 panic: IPC 0 < 0.01
Simulation CPU 0 panic: IPC 0.0002719 < 0.01
Simulation CPU 0 panic: IPC 1.66e-05 < 0.01
Simulation CPU 0 panic: IPC 0.0002559 < 0.01
Simulation CPU 0 panic: IPC 0.0002372 < 0.01
Simulation CPU 0 panic: IPC 3.95e-05 < 0.01
[ERROR_CYCLE] Error added at CPU cycle 2962360843, interval 42, pending count: 1
[DRAM_CYCLE_ERROR] Cycle-based error applied! address=0x58b38dbb0 additional_latency=2459910500 cycles
Simulation CPU 0 panic: IPC 0 < 0.01
Simulation CPU 0 panic: IPC 0.0001235 < 0.01
Simulation CPU 0 panic: IPC 3.95e-05 < 0.01
Simulation CPU 0 panic: IPC 0.0001676 < 0.01
Simulation CPU 0 panic: IPC 0.0002414 < 0.01
Simulation CPU 0 panic: IPC 4.16e-05 < 0.01
Simulation CPU 0 panic: IPC 3.72e-05 < 0.01
[ERROR_CYCLE] Error added at CPU cycle 3032893244, interval 43, pending count: 1
[DRAM_CYCLE_ERROR] Cycle-based error applied! address=0x7d725aa18 additional_latency=2459910500 cycles
Simulation CPU 0 panic: IPC 0.0001227 < 0.01
Simulation CPU 0 panic: IPC 0 < 0.01
Simulation CPU 0 panic: IPC 0.0004434 < 0.01
Simulation CPU 0 panic: IPC 0.0003686 < 0.01
Simulation CPU 0 panic: IPC 0.0001047 < 0.01
Simulation CPU 0 panic: IPC 0.0001047 < 0.01
Simulation CPU 0 panic: IPC 7.88e-05 < 0.01
[ERROR_CYCLE] Error added at CPU cycle 3103425644, interval 44, pending count: 1
[DRAM_CYCLE_ERROR] Cycle-based error applied! address=0xd64e27b8 additional_latency=2459910500 cycles
Simulation CPU 0 panic: IPC 0 < 0.01
Simulation CPU 0 panic: IPC 0.000428 < 0.01
Simulation CPU 0 panic: IPC 0.0003141 < 0.01
Simulation CPU 0 panic: IPC 7.1e-06 < 0.01
Simulation CPU 0 panic: IPC 4.22e-05 < 0.01
Simulation CPU 0 panic: IPC 3.03e-05 < 0.01
Simulation CPU 0 panic: IPC 0.0006245 < 0.01
[ERROR_CYCLE] Error added at CPU cycle 3173958045, interval 45, pending count: 1
[DRAM_CYCLE_ERROR] Cycle-based error applied! address=0x7d7268b78 additional_latency=2459910500 cycles
Simulation CPU 0 panic: IPC 3.49e-05 < 0.01
Simulation CPU 0 panic: IPC 0 < 0.01
Simulation CPU 0 panic: IPC 0.0003561 < 0.01
Simulation CPU 0 panic: IPC 0.0002666 < 0.01
Simulation CPU 0 panic: IPC 0.0003522 < 0.01
Simulation CPU 0 panic: IPC 0.0005807 < 0.01
Simulation CPU 0 panic: IPC 0.0004421 < 0.01
[ERROR_CYCLE] Error added at CPU cycle 3244490446, interval 46, pending count: 1
[DRAM_CYCLE_ERROR] Cycle-based error applied! address=0x5517b6d50 additional_latency=2459910500 cycles
Simulation CPU 0 panic: IPC 4e-07 < 0.01
Simulation CPU 0 panic: IPC 0.0003176 < 0.01
Simulation CPU 0 panic: IPC 6.37e-05 < 0.01
Simulation CPU 0 panic: IPC 0.0001007 < 0.01
Simulation CPU 0 panic: IPC 2.53e-05 < 0.01
Simulation CPU 0 panic: IPC 0.0003332 < 0.01
Simulation CPU 0 panic: IPC 7.25e-05 < 0.01
[ERROR_CYCLE] Error added at CPU cycle 3315022848, interval 47, pending count: 1
[DRAM_CYCLE_ERROR] Cycle-based error applied! address=0x7d7275c98 additional_latency=2459910500 cycles
Simulation CPU 0 panic: IPC 2.8e-06 < 0.01
Simulation CPU 0 panic: IPC 0 < 0.01
Simulation CPU 0 panic: IPC 0.0004528 < 0.01
Simulation CPU 0 panic: IPC 0.0004946 < 0.01
Simulation CPU 0 panic: IPC 0.0003261 < 0.01
Simulation CPU 0 panic: IPC 0.0004985 < 0.01
Simulation CPU 0 panic: IPC 0.0001152 < 0.01
[ERROR_CYCLE] Error added at CPU cycle 3385555249, interval 48, pending count: 1
[DRAM_CYCLE_ERROR] Cycle-based error applied! address=0x42cdeece0 additional_latency=2459910500 cycles
Simulation CPU 0 panic: IPC 4e-07 < 0.01
Simulation CPU 0 panic: IPC 0.0009509 < 0.01
Simulation CPU 0 panic: IPC 0.0009612 < 0.01
Simulation CPU 0 panic: IPC 6.69e-05 < 0.01
Simulation CPU 0 panic: IPC 1.63e-05 < 0.01
Simulation CPU 0 panic: IPC 0.0004864 < 0.01
Simulation CPU 0 panic: IPC 8.65e-05 < 0.01
[ERROR_CYCLE] Error added at CPU cycle 3456087649, interval 49, pending count: 1
Simulation CPU 0 panic: IPC 0.0007665 < 0.01
[DRAM_CYCLE_ERROR] Cycle-based error applied! address=0x103b20e70 additional_latency=2459910500 cycles
Simulation CPU 0 panic: IPC 0 < 0.01
Simulation CPU 0 panic: IPC 0.0008041 < 0.01
Simulation CPU 0 panic: IPC 0.0001647 < 0.01
Simulation CPU 0 panic: IPC 3.01e-05 < 0.01
Simulation CPU 0 panic: IPC 0.000104 < 0.01
Simulation CPU 0 panic: IPC 6.9e-06 < 0.01
[ERROR_CYCLE] Error added at CPU cycle 3526620050, interval 50, pending count: 1
Simulation CPU 0 panic: IPC 4.2e-05 < 0.01
[DRAM_CYCLE_ERROR] Cycle-based error applied! address=0x7d72899f0 additional_latency=2459910500 cycles
Simulation CPU 0 panic: IPC 0 < 0.01
Simulation CPU 0 panic: IPC 0.0002971 < 0.01
Simulation CPU 0 panic: IPC 0.0007079 < 0.01
Simulation CPU 0 panic: IPC 0.000117 < 0.01
Simulation CPU 0 panic: IPC 4.2e-05 < 0.01
Simulation CPU 0 panic: IPC 7.98e-05 < 0.01
[ERROR_CYCLE] Error added at CPU cycle 3597152452, interval 51, pending count: 1
Simulation CPU 0 panic: IPC 0.0001563 < 0.01
[DRAM_CYCLE_ERROR] Cycle-based error applied! address=0x5fb5ffe60 additional_latency=2459910500 cycles
Simulation CPU 0 panic: IPC 0.0002212 < 0.01
Simulation CPU 0 panic: IPC 0.0002193 < 0.01
Simulation CPU 0 panic: IPC 0.0001872 < 0.01
Simulation CPU 0 panic: IPC 0.0014846 < 0.01
Simulation CPU 0 panic: IPC 0.0002043 < 0.01
Simulation CPU 0 panic: IPC 0.0003212 < 0.01
[ERROR_CYCLE] Error added at CPU cycle 3667684853, interval 52, pending count: 1
Simulation CPU 0 panic: IPC 0.0006029 < 0.01
[DRAM_CYCLE_ERROR] Cycle-based error applied! address=0x7d7296e18 additional_latency=2459910500 cycles
Simulation CPU 0 panic: IPC 0 < 0.01
Simulation CPU 0 panic: IPC 0.0002415 < 0.01
Simulation CPU 0 panic: IPC 0.0003871 < 0.01
Simulation CPU 0 panic: IPC 0.0014964 < 0.01
Simulation CPU 0 panic: IPC 0.000788 < 0.01
Simulation CPU 0 panic: IPC 6.58e-05 < 0.01
[ERROR_CYCLE] Error added at CPU cycle 3738217253, interval 53, pending count: 1
Simulation CPU 0 panic: IPC 0.000169 < 0.01
[DRAM_CYCLE_ERROR] Cycle-based error applied! address=0x2cd3697c0 additional_latency=2459910500 cycles
Simulation CPU 0 panic: IPC 0.0044621 < 0.01
Simulation CPU 0 panic: IPC 0.0023131 < 0.01
Simulation CPU 0 panic: IPC 7.95e-05 < 0.01
Simulation CPU 0 panic: IPC 0.000563 < 0.01
Simulation CPU 0 panic: IPC 6.52e-05 < 0.01
Simulation CPU 0 panic: IPC 0.0007563 < 0.01
[ERROR_CYCLE] Error added at CPU cycle 3808749654, interval 54, pending count: 1
Simulation CPU 0 panic: IPC 0.0006593 < 0.01
[DRAM_CYCLE_ERROR] Cycle-based error applied! address=0x7d72a49b0 additional_latency=2459910500 cycles
Simulation CPU 0 panic: IPC 0 < 0.01
Simulation CPU 0 panic: IPC 0.0006741 < 0.01
Simulation CPU 0 panic: IPC 0.0005227 < 0.01
Simulation CPU 0 panic: IPC 0.0001061 < 0.01
Simulation CPU 0 panic: IPC 0.0033912 < 0.01
Heartbeat CPU 0 instructions: 10000001 cycles: 3866649906 heartbeat IPC: 0.002586 cumulative IPC: 0.002586 (Simulation time: 05 hr 45 min 34 sec)
[ERROR_CYCLE] Error added at CPU cycle 3879282055, interval 55, pending count: 1
Simulation CPU 0 panic: IPC 7e-06 < 0.01
[DRAM_CYCLE_ERROR] Cycle-based error applied! address=0x7d72ac6b0 additional_latency=2459910500 cycles
Simulation CPU 0 panic: IPC 2e-07 < 0.01
Simulation CPU 0 panic: IPC 4.2e-06 < 0.01
Simulation CPU 0 panic: IPC 1.3e-05 < 0.01
Simulation CPU 0 panic: IPC 9.6e-06 < 0.01
Simulation CPU 0 panic: IPC 2.3e-06 < 0.01
Simulation CPU 0 panic: IPC 2.3e-06 < 0.01
[ERROR_CYCLE] Error added at CPU cycle 3949814457, interval 56, pending count: 1
Simulation CPU 0 panic: IPC 5.3e-06 < 0.01
[DRAM_CYCLE_ERROR] Cycle-based error applied! address=0x26b727a70 additional_latency=2459910500 cycles
Simulation CPU 0 panic: IPC 0 < 0.01
Simulation CPU 0 panic: IPC 1.14e-05 < 0.01
Simulation CPU 0 panic: IPC 9.7e-06 < 0.01
Simulation CPU 0 panic: IPC 4.3e-06 < 0.01
Simulation CPU 0 panic: IPC 5.1e-06 < 0.01
Simulation CPU 0 panic: IPC 7.1e-06 < 0.01
Simulation CPU 0 panic: IPC 9.4e-06 < 0.01
[ERROR_CYCLE] Error added at CPU cycle 4020346858, interval 57, pending count: 1
[DRAM_CYCLE_ERROR] Cycle-based error applied! address=0x7d72c5428 additional_latency=2459910500 cycles
Simulation CPU 0 panic: IPC 0 < 0.01
Simulation CPU 0 panic: IPC 1.42e-05 < 0.01
Simulation CPU 0 panic: IPC 6.6e-06 < 0.01
Simulation CPU 0 panic: IPC 2.3e-06 < 0.01
Simulation CPU 0 panic: IPC 5.1e-06 < 0.01
Simulation CPU 0 panic: IPC 7.1e-06 < 0.01
Simulation CPU 0 panic: IPC 3.32e-05 < 0.01
[ERROR_CYCLE] Error added at CPU cycle 4090879258, interval 58, pending count: 1
[DRAM_CYCLE_ERROR] Cycle-based error applied! address=0x7d72d15c8 additional_latency=2459910500 cycles
Simulation CPU 0 panic: IPC 2.12e-05 < 0.01
Simulation CPU 0 panic: IPC 9.6e-06 < 0.01
Simulation CPU 0 panic: IPC 1.24e-05 < 0.01
Simulation CPU 0 panic: IPC 1.14e-05 < 0.01
Simulation CPU 0 panic: IPC 6.9e-06 < 0.01
Simulation CPU 0 panic: IPC 2.8e-06 < 0.01
Simulation CPU 0 panic: IPC 7.1e-06 < 0.01
[ERROR_CYCLE] Error added at CPU cycle 4161411659, interval 59, pending count: 1
[DRAM_CYCLE_ERROR] Cycle-based error applied! address=0x77480efc0 additional_latency=2459910500 cycles
Simulation CPU 0 panic: IPC 0 < 0.01
Simulation CPU 0 panic: IPC 2.5e-06 < 0.01
Simulation CPU 0 panic: IPC 9.6e-06 < 0.01
Simulation CPU 0 panic: IPC 1.19e-05 < 0.01
Simulation CPU 0 panic: IPC 1.39e-05 < 0.01
Simulation CPU 0 panic: IPC 2.13e-05 < 0.01
Simulation CPU 0 panic: IPC 5.3e-06 < 0.01
[ERROR_CYCLE] Error added at CPU cycle 4231944060, interval 60, pending count: 1
[DRAM_CYCLE_ERROR] Cycle-based error applied! address=0x7d72e46b8 additional_latency=2459910500 cycles
Simulation CPU 0 panic: IPC 9.6e-06 < 0.01
Simulation CPU 0 panic: IPC 1.25e-05 < 0.01
Simulation CPU 0 panic: IPC 9.6e-06 < 0.01
Simulation CPU 0 panic: IPC 2.37e-05 < 0.01
Simulation CPU 0 panic: IPC 5.1e-06 < 0.01
Simulation CPU 0 panic: IPC 1.85e-05 < 0.01
Simulation CPU 0 panic: IPC 2.3e-06 < 0.01
[ERROR_CYCLE] Error added at CPU cycle 4302476462, interval 61, pending count: 1
[DRAM_CYCLE_ERROR] Cycle-based error applied! address=0x1ec468df0 additional_latency=2459910500 cycles
Simulation CPU 0 panic: IPC 4e-07 < 0.01
Simulation CPU 0 panic: IPC 1.9e-06 < 0.01
Simulation CPU 0 panic: IPC 5.3e-06 < 0.01
Simulation CPU 0 panic: IPC 2.58e-05 < 0.01
Simulation CPU 0 panic: IPC 2.18e-05 < 0.01
Simulation CPU 0 panic: IPC 2.33e-05 < 0.01
Simulation CPU 0 panic: IPC 3.81e-05 < 0.01
[ERROR_CYCLE] Error added at CPU cycle 4373008862, interval 62, pending count: 1
[DRAM_CYCLE_ERROR] Cycle-based error applied! address=0x7d72f16c0 additional_latency=2459910500 cycles
Simulation CPU 0 panic: IPC 4.3e-06 < 0.01
Simulation CPU 0 panic: IPC 3.33e-05 < 0.01
Simulation CPU 0 panic: IPC 9.6e-06 < 0.01
Simulation CPU 0 panic: IPC 9.6e-06 < 0.01
Simulation CPU 0 panic: IPC 9.4e-06 < 0.01
Simulation CPU 0 panic: IPC 1.67e-05 < 0.01
Simulation CPU 0 panic: IPC 1.64e-05 < 0.01
[ERROR_CYCLE] Error added at CPU cycle 4443541263, interval 63, pending count: 1
[DRAM_CYCLE_ERROR] Cycle-based error applied! address=0x1471e3048 additional_latency=2459910500 cycles
Simulation CPU 0 panic: IPC 4e-07 < 0.01
Simulation CPU 0 panic: IPC 3.09e-05 < 0.01
Simulation CPU 0 panic: IPC 2.36e-05 < 0.01
Simulation CPU 0 panic: IPC 9.9e-06 < 0.01
Simulation CPU 0 panic: IPC 2.13e-05 < 0.01
Simulation CPU 0 panic: IPC 7.1e-06 < 0.01
Simulation CPU 0 panic: IPC 7.63e-05 < 0.01
[ERROR_CYCLE] Error added at CPU cycle 4514073664, interval 64, pending count: 1
[DRAM_CYCLE_ERROR] Cycle-based error applied! address=0x57cf02280 additional_latency=2459910500 cycles
Simulation CPU 0 panic: IPC 0 < 0.01
Simulation CPU 0 panic: IPC 2.3e-06 < 0.01
Simulation CPU 0 panic: IPC 1.7e-05 < 0.01
Simulation CPU 0 panic: IPC 3.25e-05 < 0.01
Simulation CPU 0 panic: IPC 2.91e-05 < 0.01
Simulation CPU 0 panic: IPC 4.96e-05 < 0.01
Simulation CPU 0 panic: IPC 8.05e-05 < 0.01
[ERROR_CYCLE] Error added at CPU cycle 4584606066, interval 65, pending count: 1
[DRAM_CYCLE_ERROR] Cycle-based error applied! address=0x57cf0a348 additional_latency=2459910500 cycles
Simulation CPU 0 panic: IPC 3.07e-05 < 0.01
Simulation CPU 0 panic: IPC 0 < 0.01
Simulation CPU 0 panic: IPC 7.36e-05 < 0.01
Simulation CPU 0 panic: IPC 0.0001648 < 0.01
Simulation CPU 0 panic: IPC 0.0001135 < 0.01
Simulation CPU 0 panic: IPC 2.43e-05 < 0.01
Simulation CPU 0 panic: IPC 5.01e-05 < 0.01
[ERROR_CYCLE] Error added at CPU cycle 4655138467, interval 66, pending count: 1
[DRAM_CYCLE_ERROR] Cycle-based error applied! address=0x414aaea90 additional_latency=2459910500 cycles
Simulation CPU 0 panic: IPC 4e-07 < 0.01
Simulation CPU 0 panic: IPC 3.08e-05 < 0.01
Simulation CPU 0 panic: IPC 0.0001283 < 0.01
Simulation CPU 0 panic: IPC 2.5e-06 < 0.01
Simulation CPU 0 panic: IPC 1.83e-05 < 0.01
Simulation CPU 0 panic: IPC 1.63e-05 < 0.01
Simulation CPU 0 panic: IPC 5.45e-05 < 0.01
[ERROR_CYCLE] Error added at CPU cycle 4725670867, interval 67, pending count: 1
[DRAM_CYCLE_ERROR] Cycle-based error applied! address=0x57cf17248 additional_latency=2459910500 cycles
Simulation CPU 0 panic: IPC 1.74e-05 < 0.01
Simulation CPU 0 panic: IPC 0 < 0.01
Simulation CPU 0 panic: IPC 3.55e-05 < 0.01
Simulation CPU 0 panic: IPC 1.12e-05 < 0.01
Simulation CPU 0 panic: IPC 9.96e-05 < 0.01
Simulation CPU 0 panic: IPC 3.51e-05 < 0.01
Simulation CPU 0 panic: IPC 5.23e-05 < 0.01
[ERROR_CYCLE] Error added at CPU cycle 4796203268, interval 68, pending count: 1
[DRAM_CYCLE_ERROR] Cycle-based error applied! address=0x208320d30 additional_latency=2459910500 cycles
Simulation CPU 0 panic: IPC 4e-07 < 0.01
Simulation CPU 0 panic: IPC 0.0002009 < 0.01
Simulation CPU 0 panic: IPC 7.34e-05 < 0.01
Simulation CPU 0 panic: IPC 1.88e-05 < 0.01
Simulation CPU 0 panic: IPC 5.3e-06 < 0.01
Simulation CPU 0 panic: IPC 4.03e-05 < 0.01
Simulation CPU 0 panic: IPC 1.6e-05 < 0.01
[ERROR_CYCLE] Error added at CPU cycle 4866735669, interval 69, pending count: 1
[DRAM_CYCLE_ERROR] Cycle-based error applied! address=0x57cf240b0 additional_latency=2459910500 cycles
Simulation CPU 0 panic: IPC 2.85e-05 < 0.01
Simulation CPU 0 panic: IPC 0 < 0.01
Simulation CPU 0 panic: IPC 4.93e-05 < 0.01
Simulation CPU 0 panic: IPC 4.85e-05 < 0.01
Simulation CPU 0 panic: IPC 8.54e-05 < 0.01
Simulation CPU 0 panic: IPC 0.0001072 < 0.01
Simulation CPU 0 panic: IPC 4e-05 < 0.01
[ERROR_CYCLE] Error added at CPU cycle 4937268071, interval 70, pending count: 1
[DRAM_CYCLE_ERROR] Cycle-based error applied! address=0x5de2226c0 additional_latency=2459910500 cycles
Simulation CPU 0 panic: IPC 0 < 0.01
Simulation CPU 0 panic: IPC 7.85e-05 < 0.01
Simulation CPU 0 panic: IPC 3.83e-05 < 0.01
Simulation CPU 0 panic: IPC 2.5e-06 < 0.01
Simulation CPU 0 panic: IPC 0.0001909 < 0.01
Simulation CPU 0 panic: IPC 9.9e-06 < 0.01
Simulation CPU 0 panic: IPC 0.0001807 < 0.01
[ERROR_CYCLE] Error added at CPU cycle 5007800472, interval 71, pending count: 1
[DRAM_CYCLE_ERROR] Cycle-based error applied! address=0x57cf316a0 additional_latency=2459910500 cycles
Simulation CPU 0 panic: IPC 0.0001314 < 0.01
Simulation CPU 0 panic: IPC 0 < 0.01
Simulation CPU 0 panic: IPC 0.0001063 < 0.01
Simulation CPU 0 panic: IPC 0.0001095 < 0.01
Simulation CPU 0 panic: IPC 7.85e-05 < 0.01
Simulation CPU 0 panic: IPC 0.0002963 < 0.01
Simulation CPU 0 panic: IPC 0.0001679 < 0.01
[ERROR_CYCLE] Error added at CPU cycle 5078332872, interval 72, pending count: 1
Simulation CPU 0 panic: IPC 5.89e-05 < 0.01
[DRAM_CYCLE_ERROR] Cycle-based error applied! address=0x57cf38cd8 additional_latency=2459910500 cycles
Simulation CPU 0 panic: IPC 0 < 0.01
Simulation CPU 0 panic: IPC 0.0001449 < 0.01
Simulation CPU 0 panic: IPC 3.41e-05 < 0.01
Simulation CPU 0 panic: IPC 0.0004179 < 0.01
Simulation CPU 0 panic: IPC 0.0002767 < 0.01
Simulation CPU 0 panic: IPC 0.0002127 < 0.01
[ERROR_CYCLE] Error added at CPU cycle 5148865273, interval 73, pending count: 1
Simulation CPU 0 panic: IPC 0.0009855 < 0.01
[DRAM_CYCLE_ERROR] Cycle-based error applied! address=0x37d574980 additional_latency=2459910500 cycles
Simulation CPU 0 panic: IPC 0 < 0.01
Simulation CPU 0 panic: IPC 0.0002115 < 0.01
Simulation CPU 0 panic: IPC 5.75e-05 < 0.01
Simulation CPU 0 panic: IPC 0.0001402 < 0.01
Simulation CPU 0 panic: IPC 0.0006657 < 0.01
Simulation CPU 0 panic: IPC 0.0002484 < 0.01
[ERROR_CYCLE] Error added at CPU cycle 5219397675, interval 74, pending count: 1
Simulation CPU 0 panic: IPC 0.0001168 < 0.01
[DRAM_CYCLE_ERROR] Cycle-based error applied! address=0x57cf476c8 additional_latency=2459910500 cycles
Simulation CPU 0 panic: IPC 0 < 0.01
Simulation CPU 0 panic: IPC 1.62e-05 < 0.01
Simulation CPU 0 panic: IPC 2.41e-05 < 0.01
Simulation CPU 0 panic: IPC 3.78e-05 < 0.01
Simulation CPU 0 panic: IPC 5.17e-05 < 0.01
Simulation CPU 0 panic: IPC 4.95e-05 < 0.01
[ERROR_CYCLE] Error added at CPU cycle 5289930076, interval 75, pending count: 1
Simulation CPU 0 panic: IPC 0.0002053 < 0.01
[DRAM_CYCLE_ERROR] Cycle-based error applied! address=0x4b3a2cba8 additional_latency=2459910500 cycles
Simulation CPU 0 panic: IPC 4e-07 < 0.01
Simulation CPU 0 panic: IPC 0.0003812 < 0.01
Simulation CPU 0 panic: IPC 0.0003535 < 0.01
Simulation CPU 0 panic: IPC 0.0001455 < 0.01
Simulation CPU 0 panic: IPC 0.0007877 < 0.01
Simulation CPU 0 panic: IPC 3.96e-05 < 0.01
Simulation CPU 0 panic: IPC 0.0001518 < 0.01
[ERROR_CYCLE] Error added at CPU cycle 5360462476, interval 76, pending count: 1
[DRAM_CYCLE_ERROR] Cycle-based error applied! address=0x57cf542b8 additional_latency=2459910500 cycles
Simulation CPU 0 panic: IPC 0 < 0.01
Simulation CPU 0 panic: IPC 0.0003459 < 0.01
Simulation CPU 0 panic: IPC 1.39e-05 < 0.01
Simulation CPU 0 panic: IPC 0.0004057 < 0.01
Simulation CPU 0 panic: IPC 3.12e-05 < 0.01
Simulation CPU 0 panic: IPC 1.88e-05 < 0.01
Simulation CPU 0 panic: IPC 1.14e-05 < 0.01
[ERROR_CYCLE] Error added at CPU cycle 5430994877, interval 77, pending count: 1
[DRAM_CYCLE_ERROR] Cycle-based error applied! address=0x668032648 additional_latency=2459910500 cycles
Simulation CPU 0 panic: IPC 4e-07 < 0.01
Simulation CPU 0 panic: IPC 0.0002736 < 0.01
Simulation CPU 0 panic: IPC 9.67e-05 < 0.01
Simulation CPU 0 panic: IPC 0.0001446 < 0.01
Simulation CPU 0 panic: IPC 0.0004042 < 0.01
Simulation CPU 0 panic: IPC 0.0008982 < 0.01
Simulation CPU 0 panic: IPC 0.0002563 < 0.01
[ERROR_CYCLE] Error added at CPU cycle 5501527278, interval 78, pending count: 1
[DRAM_CYCLE_ERROR] Cycle-based error applied! address=0x57cf622d0 additional_latency=2459910500 cycles
Simulation CPU 0 panic: IPC 0 < 0.01
Simulation CPU 0 panic: IPC 0.000161 < 0.01
Simulation CPU 0 panic: IPC 0.0001234 < 0.01
Simulation CPU 0 panic: IPC 0.0001119 < 0.01
Simulation CPU 0 panic: IPC 7.83e-05 < 0.01
Simulation CPU 0 panic: IPC 0.0006044 < 0.01
Simulation CPU 0 panic: IPC 1.49e-05 < 0.01
[ERROR_CYCLE] Error added at CPU cycle 5572059680, interval 79, pending count: 1
[DRAM_CYCLE_ERROR] Cycle-based error applied! address=0x4706f81c8 additional_latency=2459910500 cycles
Simulation CPU 0 panic: IPC 4e-07 < 0.01
Simulation CPU 0 panic: IPC 0.0003008 < 0.01
Simulation CPU 0 panic: IPC 0.0002754 < 0.01
Simulation CPU 0 panic: IPC 5.3e-06 < 0.01
Simulation CPU 0 panic: IPC 0.0005412 < 0.01
Simulation CPU 0 panic: IPC 0.0002292 < 0.01
Simulation CPU 0 panic: IPC 0.0006179 < 0.01
[ERROR_CYCLE] Error added at CPU cycle 5642592081, interval 80, pending count: 1
[DRAM_CYCLE_ERROR] Cycle-based error applied! address=0x382d814f8 additional_latency=2459910500 cycles
Simulation CPU 0 panic: IPC 0 < 0.01
Simulation CPU 0 panic: IPC 1.62e-05 < 0.01
Simulation CPU 0 panic: IPC 0.000624 < 0.01
Simulation CPU 0 panic: IPC 0.0004406 < 0.01
Simulation CPU 0 panic: IPC 0.0002682 < 0.01
Simulation CPU 0 panic: IPC 0.0004035 < 0.01
Simulation CPU 0 panic: IPC 0.0007626 < 0.01
[ERROR_CYCLE] Error added at CPU cycle 5713124481, interval 81, pending count: 1
[DRAM_CYCLE_ERROR] Cycle-based error applied! address=0x57cf76210 additional_latency=2459910500 cycles
Simulation CPU 0 panic: IPC 0.0001954 < 0.01
Simulation CPU 0 panic: IPC 0 < 0.01
Simulation CPU 0 panic: IPC 4.92e-05 < 0.01
Simulation CPU 0 panic: IPC 0.0002524 < 0.01
Simulation CPU 0 panic: IPC 0.0003848 < 0.01
Simulation CPU 0 panic: IPC 0.0001417 < 0.01
Simulation CPU 0 panic: IPC 0.0002578 < 0.01
[ERROR_CYCLE] Error added at CPU cycle 5783656882, interval 82, pending count: 1
[DRAM_CYCLE_ERROR] Cycle-based error applied! address=0xd250ee38 additional_latency=2459910500 cycles
Simulation CPU 0 panic: IPC 4e-07 < 0.01
Simulation CPU 0 panic: IPC 0.0002688 < 0.01
Simulation CPU 0 panic: IPC 5.2e-05 < 0.01
Simulation CPU 0 panic: IPC 2.56e-05 < 0.01
Simulation CPU 0 panic: IPC 0.0006772 < 0.01
Simulation CPU 0 panic: IPC 6.41e-05 < 0.01
Simulation CPU 0 panic: IPC 7.36e-05 < 0.01
[ERROR_CYCLE] Error added at CPU cycle 5854189283, interval 83, pending count: 1
[DRAM_CYCLE_ERROR] Cycle-based error applied! address=0x57cf83e40 additional_latency=2459910500 cycles
Simulation CPU 0 panic: IPC 0.0001944 < 0.01
Simulation CPU 0 panic: IPC 0 < 0.01
Simulation CPU 0 panic: IPC 7.32e-05 < 0.01
Simulation CPU 0 panic: IPC 0.0014217 < 0.01
Simulation CPU 0 panic: IPC 0.0010271 < 0.01
Simulation CPU 0 panic: IPC 0.0006471 < 0.01
Simulation CPU 0 panic: IPC 0.0002276 < 0.01
[ERROR_CYCLE] Error added at CPU cycle 5924721685, interval 84, pending count: 1
[DRAM_CYCLE_ERROR] Cycle-based error applied! address=0x1111d1d50 additional_latency=2459910500 cycles
Simulation CPU 0 panic: IPC 0 < 0.01
Simulation CPU 0 panic: IPC 0.0006109 < 0.01
Simulation CPU 0 panic: IPC 0.0003269 < 0.01
Simulation CPU 0 panic: IPC 0.0001231 < 0.01
Simulation CPU 0 panic: IPC 5.91e-05 < 0.01
Simulation CPU 0 panic: IPC 0.0001871 < 0.01
Simulation CPU 0 panic: IPC 0.0003582 < 0.01
[ERROR_CYCLE] Error added at CPU cycle 5995254086, interval 85, pending count: 1
[DRAM_CYCLE_ERROR] Cycle-based error applied! address=0x57cf90db8 additional_latency=2459910500 cycles
Simulation CPU 0 panic: IPC 2.36e-05 < 0.01
Simulation CPU 0 panic: IPC 0 < 0.01
Simulation CPU 0 panic: IPC 0.0008499 < 0.01
Simulation CPU 0 panic: IPC 9.8e-05 < 0.01
Simulation CPU 0 panic: IPC 0.0001566 < 0.01
Simulation CPU 0 panic: IPC 0.0006001 < 0.01
Simulation CPU 0 panic: IPC 5.69e-05 < 0.01
[ERROR_CYCLE] Error added at CPU cycle 6065786486, interval 86, pending count: 1
[DRAM_CYCLE_ERROR] Cycle-based error applied! address=0x63a7e3588 additional_latency=2459910500 cycles
Simulation CPU 0 panic: IPC 4e-07 < 0.01
Simulation CPU 0 panic: IPC 8.97e-05 < 0.01
Simulation CPU 0 panic: IPC 0.0001665 < 0.01
Simulation CPU 0 panic: IPC 0.0002031 < 0.01
Simulation CPU 0 panic: IPC 0.0001226 < 0.01
Simulation CPU 0 panic: IPC 0.0004496 < 0.01
Simulation CPU 0 panic: IPC 2.38e-05 < 0.01
[ERROR_CYCLE] Error added at CPU cycle 6136318887, interval 87, pending count: 1
[DRAM_CYCLE_ERROR] Cycle-based error applied! address=0x57cf9d558 additional_latency=2459910500 cycles
Simulation CPU 0 panic: IPC 0.0011129 < 0.01
Simulation CPU 0 panic: IPC 0 < 0.01
Simulation CPU 0 panic: IPC 0.000271 < 0.01
Simulation CPU 0 panic: IPC 0.0004184 < 0.01
Simulation CPU 0 panic: IPC 0.0006581 < 0.01
Simulation CPU 0 panic: IPC 0.0004635 < 0.01
Simulation CPU 0 panic: IPC 1.21e-05 < 0.01
[ERROR_CYCLE] Error added at CPU cycle 6206851289, interval 88, pending count: 1
Simulation CPU 0 panic: IPC 0.0017167 < 0.01
[DRAM_CYCLE_ERROR] Cycle-based error applied! address=0x57cfa4538 additional_latency=2459910500 cycles
Simulation CPU 0 panic: IPC 0 < 0.01
Simulation CPU 0 panic: IPC 0.0001702 < 0.01
Simulation CPU 0 panic: IPC 0.0010633 < 0.01
Simulation CPU 0 panic: IPC 9.7e-05 < 0.01
Simulation CPU 0 panic: IPC 0.0004995 < 0.01
Simulation CPU 0 panic: IPC 4.22e-05 < 0.01
[ERROR_CYCLE] Error added at CPU cycle 6277383690, interval 89, pending count: 1
Simulation CPU 0 panic: IPC 0.0020236 < 0.01
[DRAM_CYCLE_ERROR] Cycle-based error applied! address=0x32522c690 additional_latency=2459910500 cycles
Simulation CPU 0 panic: IPC 0 < 0.01
Simulation CPU 0 panic: IPC 0.0004137 < 0.01
Simulation CPU 0 panic: IPC 0.0037942 < 0.01
Simulation CPU 0 panic: IPC 0.0005776 < 0.01
Simulation CPU 0 panic: IPC 0.0008909 < 0.01
Simulation CPU 0 panic: IPC 0.0007025 < 0.01
[ERROR_CYCLE] Error added at CPU cycle 6347916090, interval 90, pending count: 1
Simulation CPU 0 panic: IPC 0.0002011 < 0.01
[DRAM_CYCLE_ERROR] Cycle-based error applied! address=0x57cfb1d20 additional_latency=2459910500 cycles
Simulation CPU 0 panic: IPC 0 < 0.01
Simulation CPU 0 panic: IPC 8.12e-05 < 0.01
Simulation CPU 0 panic: IPC 0.0003724 < 0.01
Simulation CPU 0 panic: IPC 0.0004801 < 0.01
Simulation CPU 0 panic: IPC 0.0005158 < 0.01
Simulation CPU 0 panic: IPC 6.88e-05 < 0.01
[ERROR_CYCLE] Error added at CPU cycle 6418448491, interval 91, pending count: 1
Simulation CPU 0 panic: IPC 0.0004272 < 0.01
[DRAM_CYCLE_ERROR] Cycle-based error applied! address=0x3ff7c7370 additional_latency=2459910500 cycles
Simulation CPU 0 panic: IPC 4e-07 < 0.01
Simulation CPU 0 panic: IPC 4.94e-05 < 0.01
Simulation CPU 0 panic: IPC 0.002543 < 0.01
Simulation CPU 0 panic: IPC 0.0011745 < 0.01
Simulation CPU 0 panic: IPC 7.53e-05 < 0.01
Simulation CPU 0 panic: IPC 0.000909 < 0.01
[ERROR_CYCLE] Error added at CPU cycle 6488980892, interval 92, pending count: 1
Simulation CPU 0 panic: IPC 0.0023565 < 0.01
[DRAM_CYCLE_ERROR] Cycle-based error applied! address=0x57cfbedd0 additional_latency=2459910500 cycles
Simulation CPU 0 panic: IPC 0 < 0.01
Simulation CPU 0 panic: IPC 2.31e-05 < 0.01
Simulation CPU 0 panic: IPC 0.0017323 < 0.01
Simulation CPU 0 panic: IPC 0.0008731 < 0.01
Simulation CPU 0 panic: IPC 0.0003639 < 0.01
Simulation CPU 0 panic: IPC 0.0002037 < 0.01
[ERROR_CYCLE] Error added at CPU cycle 6559513294, interval 93, pending count: 1
Simulation CPU 0 panic: IPC 0.0004434 < 0.01
[DRAM_CYCLE_ERROR] Cycle-based error applied! address=0x40693c270 additional_latency=2459910500 cycles
Simulation CPU 0 panic: IPC 0 < 0.01
Simulation CPU 0 panic: IPC 0.0003872 < 0.01
Simulation CPU 0 panic: IPC 0.0010376 < 0.01
Simulation CPU 0 panic: IPC 0.0005251 < 0.01
Simulation CPU 0 panic: IPC 0.001792 < 0.01
Simulation CPU 0 panic: IPC 0.0015962 < 0.01
Simulation CPU 0 panic: IPC 0.000826 < 0.01
[ERROR_CYCLE] Error added at CPU cycle 6630045695, interval 94, pending count: 1
[DRAM_CYCLE_ERROR] Cycle-based error applied! address=0x57cfcbcf0 additional_latency=2459910500 cycles
Simulation CPU 0 panic: IPC 0 < 0.01
Simulation CPU 0 panic: IPC 0.0010144 < 0.01
Simulation CPU 0 panic: IPC 0.0014461 < 0.01
Simulation CPU 0 panic: IPC 0.0032179 < 0.01
Simulation CPU 0 panic: IPC 0.0002517 < 0.01
Simulation CPU 0 panic: IPC 0.0011276 < 0.01
Simulation CPU 0 panic: IPC 0.0011061 < 0.01
[ERROR_CYCLE] Error added at CPU cycle 6700578095, interval 95, pending count: 1
[DRAM_CYCLE_ERROR] Cycle-based error applied! address=0x32e447940 additional_latency=2459910500 cycles
Simulation CPU 0 panic: IPC 0 < 0.01
Simulation CPU 0 panic: IPC 0.0001502 < 0.01
Simulation CPU 0 panic: IPC 0.0002236 < 0.01
Simulation CPU 0 panic: IPC 0.005502 < 0.01
Simulation CPU 0 warning: IPC 0.037337 < 0.05
Heartbeat CPU 0 instructions: 20000002 cycles: 6756836434 heartbeat IPC: 0.00346 cumulative IPC: 0.00296 (Simulation time: 09 hr 51 min 28 sec)
Simulation CPU 0 panic: IPC 2e-07 < 0.01
[ERROR_CYCLE] Error added at CPU cycle 6771110496, interval 96, pending count: 1
[DRAM_CYCLE_ERROR] Cycle-based error applied! address=0x57cfd7d88 additional_latency=2459910500 cycles
Simulation CPU 0 panic: IPC 0 < 0.01
Simulation CPU 0 panic: IPC 1.3e-06 < 0.01
Simulation CPU 0 panic: IPC 4.3e-06 < 0.01
Simulation CPU 0 panic: IPC 2e-07 < 0.01
Simulation CPU 0 panic: IPC 1.2e-06 < 0.01
Simulation CPU 0 panic: IPC 2.5e-06 < 0.01
Simulation CPU 0 panic: IPC 1.2e-05 < 0.01
[ERROR_CYCLE] Error added at CPU cycle 6841642897, interval 97, pending count: 1
[DRAM_CYCLE_ERROR] Cycle-based error applied! address=0xf3950c18 additional_latency=2459910500 cycles
Simulation CPU 0 panic: IPC 0 < 0.01
Simulation CPU 0 panic: IPC 1.1e-05 < 0.01
Simulation CPU 0 panic: IPC 4.6e-06 < 0.01
Simulation CPU 0 panic: IPC 5.1e-06 < 0.01
Simulation CPU 0 panic: IPC 6.8e-06 < 0.01
Simulation CPU 0 panic: IPC 1.99e-05 < 0.01
Simulation CPU 0 panic: IPC 1.8e-06 < 0.01
[ERROR_CYCLE] Error added at CPU cycle 6912175299, interval 98, pending count: 1
[DRAM_CYCLE_ERROR] Cycle-based error applied! address=0x57cfe6000 additional_latency=2459910500 cycles
Simulation CPU 0 panic: IPC 0 < 0.01
Simulation CPU 0 panic: IPC 1.66e-05 < 0.01
Simulation CPU 0 panic: IPC 6.6e-06 < 0.01
Simulation CPU 0 panic: IPC 2.1e-06 < 0.01
Simulation CPU 0 panic: IPC 4.3e-06 < 0.01
Simulation CPU 0 panic: IPC 1.51e-05 < 0.01
Simulation CPU 0 panic: IPC 1.39e-05 < 0.01
[ERROR_CYCLE] Error added at CPU cycle 6982707699, interval 99, pending count: 1
[DRAM_CYCLE_ERROR] Cycle-based error applied! address=0xfada8c0 additional_latency=2459910500 cycles
Simulation CPU 0 panic: IPC 0 < 0.01
Simulation CPU 0 panic: IPC 1.93e-05 < 0.01
Simulation CPU 0 panic: IPC 2.33e-05 < 0.01
Simulation CPU 0 panic: IPC 7.1e-06 < 0.01
Simulation CPU 0 panic: IPC 3.09e-05 < 0.01
Simulation CPU 0 panic: IPC 5.66e-05 < 0.01
Simulation CPU 0 panic: IPC 6.8e-06 < 0.01
[ERROR_CYCLE] Error added at CPU cycle 7053240100, interval 100, pending count: 1
[DRAM_CYCLE_ERROR] Cycle-based error applied! address=0x57cff8d48 additional_latency=2459910500 cycles
Simulation CPU 0 panic: IPC 0 < 0.01
Simulation CPU 0 panic: IPC 3.27e-05 < 0.01
Simulation CPU 0 panic: IPC 4.3e-06 < 0.01
Simulation CPU 0 panic: IPC 2.14e-05 < 0.01
Simulation CPU 0 panic: IPC 4.3e-06 < 0.01
Simulation CPU 0 panic: IPC 2.76e-05 < 0.01
Simulation CPU 0 panic: IPC 7.9e-05 < 0.01
[ERROR_CYCLE] Error added at CPU cycle 7123772501, interval 101, pending count: 1
[DRAM_CYCLE_ERROR] Cycle-based error applied! address=0x13c600fc8 additional_latency=2459910500 cycles
Simulation CPU 0 panic: IPC 4.05e-05 < 0.01
Simulation CPU 0 panic: IPC 0 < 0.01
Simulation CPU 0 panic: IPC 7.17e-05 < 0.01
Simulation CPU 0 panic: IPC 3.55e-05 < 0.01
Simulation CPU 0 panic: IPC 5.04e-05 < 0.01
Simulation CPU 0 panic: IPC 4.6e-05 < 0.01
Simulation CPU 0 panic: IPC 2.94e-05 < 0.01
[ERROR_CYCLE] Error added at CPU cycle 7194304903, interval 102, pending count: 1
[DRAM_CYCLE_ERROR] Cycle-based error applied! address=0x7459b15c0 additional_latency=2459910500 cycles
Simulation CPU 0 panic: IPC 0 < 0.01
Simulation CPU 0 panic: IPC 3.97e-05 < 0.01
Simulation CPU 0 panic: IPC 2.45e-05 < 0.01
Simulation CPU 0 panic: IPC 0.0001005 < 0.01
Simulation CPU 0 panic: IPC 1.17e-05 < 0.01
Simulation CPU 0 panic: IPC 3.17e-05 < 0.01
Simulation CPU 0 panic: IPC 0.0001939 < 0.01
[ERROR_CYCLE] Error added at CPU cycle 7264837304, interval 103, pending count: 1
[DRAM_CYCLE_ERROR] Cycle-based error applied! address=0x13c60e2a8 additional_latency=2459910500 cycles
Simulation CPU 0 panic: IPC 4.3e-06 < 0.01
Simulation CPU 0 panic: IPC 0 < 0.01
Simulation CPU 0 panic: IPC 0.0001068 < 0.01
Simulation CPU 0 panic: IPC 4.11e-05 < 0.01
Simulation CPU 0 panic: IPC 0.000391 < 0.01
Simulation CPU 0 panic: IPC 4.13e-05 < 0.01
Simulation CPU 0 panic: IPC 7.77e-05 < 0.01
[ERROR_CYCLE] Error added at CPU cycle 7335369704, interval 104, pending count: 1
[DRAM_CYCLE_ERROR] Cycle-based error applied! address=0x3c8c9f658 additional_latency=2459910500 cycles
Simulation CPU 0 panic: IPC 4e-07 < 0.01
Simulation CPU 0 panic: IPC 8.1e-05 < 0.01
Simulation CPU 0 panic: IPC 3.89e-05 < 0.01
Simulation CPU 0 panic: IPC 5.57e-05 < 0.01
Simulation CPU 0 panic: IPC 0.0001569 < 0.01
Simulation CPU 0 panic: IPC 1.96e-05 < 0.01
Simulation CPU 0 panic: IPC 0.0001126 < 0.01
[ERROR_CYCLE] Error added at CPU cycle 7405902105, interval 105, pending count: 1
[DRAM_CYCLE_ERROR] Cycle-based error applied! address=0x13c61b1a8 additional_latency=2459910500 cycles
Simulation CPU 0 panic: IPC 0.0001277 < 0.01
Simulation CPU 0 panic: IPC 0 < 0.01
Simulation CPU 0 panic: IPC 8.51e-05 < 0.01
Simulation CPU 0 panic: IPC 0.0001768 < 0.01
Simulation CPU 0 panic: IPC 0.000209 < 0.01
Simulation CPU 0 panic: IPC 0.0001111 < 0.01
Simulation CPU 0 panic: IPC 4.78e-05 < 0.01
[ERROR_CYCLE] Error added at CPU cycle 7476434506, interval 106, pending count: 1
[DRAM_CYCLE_ERROR] Cycle-based error applied! address=0x2b0dffcf8 additional_latency=2459910500 cycles
Simulation CPU 0 panic: IPC 0 < 0.01
Simulation CPU 0 panic: IPC 0.0001252 < 0.01
Simulation CPU 0 panic: IPC 0.0006067 < 0.01
Simulation CPU 0 panic: IPC 0.00024 < 0.01
Simulation CPU 0 panic: IPC 2.17e-05 < 0.01
Simulation CPU 0 panic: IPC 1.62e-05 < 0.01
Simulation CPU 0 panic: IPC 7.3e-05 < 0.01
[ERROR_CYCLE] Error added at CPU cycle 7546966908, interval 107, pending count: 1
[DRAM_CYCLE_ERROR] Cycle-based error applied! address=0x13c6282f8 additional_latency=2459910500 cycles
Simulation CPU 0 panic: IPC 0.0002533 < 0.01
Simulation CPU 0 panic: IPC 0 < 0.01
Simulation CPU 0 panic: IPC 0.0002499 < 0.01
Simulation CPU 0 panic: IPC 2.04e-05 < 0.01
Simulation CPU 0 panic: IPC 0.0001781 < 0.01
Simulation CPU 0 panic: IPC 7.92e-05 < 0.01
Simulation CPU 0 panic: IPC 8.1e-05 < 0.01
[ERROR_CYCLE] Error added at CPU cycle 7617499309, interval 108, pending count: 1
Simulation CPU 0 panic: IPC 2.71e-05 < 0.01
[DRAM_CYCLE_ERROR] Cycle-based error applied! address=0x13c62f108 additional_latency=2459910500 cycles
Simulation CPU 0 panic: IPC 0 < 0.01
Simulation CPU 0 panic: IPC 0.0001261 < 0.01
Simulation CPU 0 panic: IPC 2.67e-05 < 0.01
Simulation CPU 0 panic: IPC 6.01e-05 < 0.01
Simulation CPU 0 panic: IPC 1.54e-05 < 0.01
Simulation CPU 0 panic: IPC 2.63e-05 < 0.01
[ERROR_CYCLE] Error added at CPU cycle 7688031709, interval 109, pending count: 1
Simulation CPU 0 panic: IPC 5.7e-06 < 0.01
[DRAM_CYCLE_ERROR] Cycle-based error applied! address=0x1a8504f58 additional_latency=2459910500 cycles
Simulation CPU 0 panic: IPC 0 < 0.01
Simulation CPU 0 panic: IPC 0.0001868 < 0.01
Simulation CPU 0 panic: IPC 2.55e-05 < 0.01
Simulation CPU 0 panic: IPC 0.0004136 < 0.01
Simulation CPU 0 panic: IPC 0.0001294 < 0.01
Simulation CPU 0 panic: IPC 7.55e-05 < 0.01
[ERROR_CYCLE] Error added at CPU cycle 7758564110, interval 110, pending count: 1
Simulation CPU 0 panic: IPC 0.00038 < 0.01
[DRAM_CYCLE_ERROR] Cycle-based error applied! address=0x13c63cb00 additional_latency=2459910500 cycles
Simulation CPU 0 panic: IPC 0 < 0.01
Simulation CPU 0 panic: IPC 5.57e-05 < 0.01
Simulation CPU 0 panic: IPC 0.0001482 < 0.01
Simulation CPU 0 panic: IPC 4.92e-05 < 0.01
Simulation CPU 0 panic: IPC 0.0005786 < 0.01
Simulation CPU 0 panic: IPC 9.4e-06 < 0.01
[ERROR_CYCLE] Error added at CPU cycle 7829096512, interval 111, pending count: 1
Simulation CPU 0 panic: IPC 1.19e-05 < 0.01
[DRAM_CYCLE_ERROR] Cycle-based error applied! address=0x7334e0498 additional_latency=2459910500 cycles
Simulation CPU 0 panic: IPC 0 < 0.01
Simulation CPU 0 panic: IPC 0.0002427 < 0.01
Simulation CPU 0 panic: IPC 0.0002509 < 0.01
Simulation CPU 0 panic: IPC 0.0002262 < 0.01
Simulation CPU 0 panic: IPC 4.04e-05 < 0.01
Simulation CPU 0 panic: IPC 0.0001518 < 0.01
[ERROR_CYCLE] Error added at CPU cycle 7899628913, interval 112, pending count: 1
Simulation CPU 0 panic: IPC 0.0001326 < 0.01
[DRAM_CYCLE_ERROR] Cycle-based error applied! address=0x13c64ae30 additional_latency=2459910500 cycles
Simulation CPU 0 panic: IPC 0 < 0.01
Simulation CPU 0 panic: IPC 6.49e-05 < 0.01
Simulation CPU 0 panic: IPC 0.0001179 < 0.01
Simulation CPU 0 panic: IPC 7.61e-05 < 0.01
Simulation CPU 0 panic: IPC 3.4e-05 < 0.01
Simulation CPU 0 panic: IPC 0.0005928 < 0.01
Simulation CPU 0 panic: IPC 0.0001694 < 0.01
[ERROR_CYCLE] Error added at CPU cycle 7970161313, interval 113, pending count: 1
[DRAM_CYCLE_ERROR] Cycle-based error applied! address=0x5c2100108 additional_latency=2459910500 cycles
Simulation CPU 0 panic: IPC 0 < 0.01
Simulation CPU 0 panic: IPC 4.8e-05 < 0.01
Simulation CPU 0 panic: IPC 0.0001112 < 0.01
Simulation CPU 0 panic: IPC 0.0001716 < 0.01
Simulation CPU 0 panic: IPC 0.0001 < 0.01
Simulation CPU 0 panic: IPC 0.0001861 < 0.01
Simulation CPU 0 panic: IPC 0.0001314 < 0.01
[ERROR_CYCLE] Error added at CPU cycle 8040693714, interval 114, pending count: 1
[DRAM_CYCLE_ERROR] Cycle-based error applied! address=0x13c657c68 additional_latency=2459910500 cycles
Simulation CPU 0 panic: IPC 0 < 0.01
Simulation CPU 0 panic: IPC 0.0002772 < 0.01
Simulation CPU 0 panic: IPC 0.0006393 < 0.01
Simulation CPU 0 panic: IPC 9.4e-06 < 0.01
Simulation CPU 0 panic: IPC 8.56e-05 < 0.01
Simulation CPU 0 panic: IPC 8.57e-05 < 0.01
Simulation CPU 0 panic: IPC 8.17e-05 < 0.01
[ERROR_CYCLE] Error added at CPU cycle 8111226115, interval 115, pending count: 1
[DRAM_CYCLE_ERROR] Cycle-based error applied! address=0x70ae40fc8 additional_latency=2459910500 cycles
Simulation CPU 0 panic: IPC 0 < 0.01
Simulation CPU 0 panic: IPC 2.9e-05 < 0.01
Simulation CPU 0 panic: IPC 0.0002158 < 0.01
Simulation CPU 0 panic: IPC 1.86e-05 < 0.01
Simulation CPU 0 panic: IPC 3.14e-05 < 0.01
Simulation CPU 0 panic: IPC 8.29e-05 < 0.01
Simulation CPU 0 panic: IPC 0.0003039 < 0.01
[ERROR_CYCLE] Error added at CPU cycle 8181758517, interval 116, pending count: 1
[DRAM_CYCLE_ERROR] Cycle-based error applied! address=0xd24002c0 additional_latency=2459910500 cycles
Simulation CPU 0 panic: IPC 0 < 0.01
Simulation CPU 0 panic: IPC 4.3e-05 < 0.01
Simulation CPU 0 panic: IPC 0.000116 < 0.01
Simulation CPU 0 panic: IPC 0.0002337 < 0.01
Simulation CPU 0 panic: IPC 0.0002626 < 0.01
Simulation CPU 0 panic: IPC 0.0002498 < 0.01
Simulation CPU 0 panic: IPC 0.000109 < 0.01
[ERROR_CYCLE] Error added at CPU cycle 8252290918, interval 117, pending count: 1
[DRAM_CYCLE_ERROR] Cycle-based error applied! address=0x13c66b2a0 additional_latency=2459910500 cycles
Simulation CPU 0 panic: IPC 0.0005098 < 0.01
Simulation CPU 0 panic: IPC 0 < 0.01
Simulation CPU 0 panic: IPC 0.0002153 < 0.01
Simulation CPU 0 panic: IPC 5.89e-05 < 0.01
Simulation CPU 0 panic: IPC 0.0003568 < 0.01
Simulation CPU 0 panic: IPC 0.0001968 < 0.01
Simulation CPU 0 panic: IPC 0.0003042 < 0.01
[ERROR_CYCLE] Error added at CPU cycle 8322823318, interval 118, pending count: 1
[DRAM_CYCLE_ERROR] Cycle-based error applied! address=0x7fd1d1880 additional_latency=2459910500 cycles
Simulation CPU 0 panic: IPC 0 < 0.01
Simulation CPU 0 panic: IPC 0.0001578 < 0.01
Simulation CPU 0 panic: IPC 1.3e-05 < 0.01
Simulation CPU 0 panic: IPC 0.0002553 < 0.01
Simulation CPU 0 panic: IPC 0.000135 < 0.01
Simulation CPU 0 panic: IPC 8.39e-05 < 0.01
Simulation CPU 0 panic: IPC 0.0003554 < 0.01
[ERROR_CYCLE] Error added at CPU cycle 8393355719, interval 119, pending count: 1
[DRAM_CYCLE_ERROR] Cycle-based error applied! address=0x13c678090 additional_latency=2459910500 cycles
Simulation CPU 0 panic: IPC 0.0011507 < 0.01
Simulation CPU 0 panic: IPC 0 < 0.01
Simulation CPU 0 panic: IPC 0.000496 < 0.01
Simulation CPU 0 panic: IPC 0.0002468 < 0.01
Simulation CPU 0 panic: IPC 0.000304 < 0.01
Simulation CPU 0 panic: IPC 1.71e-05 < 0.01
Simulation CPU 0 panic: IPC 5.51e-05 < 0.01
[ERROR_CYCLE] Error added at CPU cycle 8463888120, interval 120, pending count: 1
[DRAM_CYCLE_ERROR] Cycle-based error applied! address=0x51c4028b0 additional_latency=2459910500 cycles
Simulation CPU 0 panic: IPC 0 < 0.01
Simulation CPU 0 panic: IPC 2.9e-05 < 0.01
Simulation CPU 0 panic: IPC 0.0002507 < 0.01
Simulation CPU 0 panic: IPC 0.0004052 < 0.01
Simulation CPU 0 panic: IPC 0.0001712 < 0.01
Simulation CPU 0 panic: IPC 1.04e-05 < 0.01
Simulation CPU 0 panic: IPC 3.87e-05 < 0.01
[ERROR_CYCLE] Error added at CPU cycle 8534420522, interval 121, pending count: 1
[DRAM_CYCLE_ERROR] Cycle-based error applied! address=0x13c685268 additional_latency=2459910500 cycles
Simulation CPU 0 panic: IPC 0.00014 < 0.01
Simulation CPU 0 panic: IPC 0 < 0.01
Simulation CPU 0 panic: IPC 0.0011603 < 0.01
Simulation CPU 0 panic: IPC 0.0002521 < 0.01
Simulation CPU 0 panic: IPC 0.0003425 < 0.01
Simulation CPU 0 panic: IPC 4.42e-05 < 0.01
Simulation CPU 0 panic: IPC 9.35e-05 < 0.01
[ERROR_CYCLE] Error added at CPU cycle 8604952923, interval 122, pending count: 1
[DRAM_CYCLE_ERROR] Cycle-based error applied! address=0x2ac5d38f0 additional_latency=2459910500 cycles
Simulation CPU 0 panic: IPC 0 < 0.01
Simulation CPU 0 panic: IPC 6.83e-05 < 0.01
Simulation CPU 0 panic: IPC 0.0001484 < 0.01
Simulation CPU 0 panic: IPC 0.0001386 < 0.01
Simulation CPU 0 panic: IPC 0.0001403 < 0.01
Simulation CPU 0 panic: IPC 0.0001228 < 0.01
Simulation CPU 0 panic: IPC 1.46e-05 < 0.01
[ERROR_CYCLE] Error added at CPU cycle 8675485323, interval 123, pending count: 1
[DRAM_CYCLE_ERROR] Cycle-based error applied! address=0x13c692c80 additional_latency=2459910500 cycles
Simulation CPU 0 panic: IPC 0.0001518 < 0.01
Simulation CPU 0 panic: IPC 0 < 0.01
Simulation CPU 0 panic: IPC 0.0003358 < 0.01
Simulation CPU 0 panic: IPC 0.0003224 < 0.01
Simulation CPU 0 panic: IPC 9.1e-06 < 0.01
Simulation CPU 0 panic: IPC 4.28e-05 < 0.01
Simulation CPU 0 panic: IPC 0.0004744 < 0.01
[ERROR_CYCLE] Error added at CPU cycle 8746017724, interval 124, pending count: 1
Simulation CPU 0 panic: IPC 0.0006959 < 0.01
[DRAM_CYCLE_ERROR] Cycle-based error applied! address=0x13c699e90 additional_latency=2459910500 cycles
Simulation CPU 0 panic: IPC 0 < 0.01
Simulation CPU 0 panic: IPC 0.0001137 < 0.01
Simulation CPU 0 panic: IPC 0.0002421 < 0.01
Simulation CPU 0 panic: IPC 0.0005323 < 0.01
Simulation CPU 0 panic: IPC 1.05e-05 < 0.01
Simulation CPU 0 panic: IPC 0.0007276 < 0.01
[ERROR_CYCLE] Error added at CPU cycle 8816550126, interval 125, pending count: 1
Simulation CPU 0 panic: IPC 4.4e-06 < 0.01
[DRAM_CYCLE_ERROR] Cycle-based error applied! address=0x4674349a0 additional_latency=2459910500 cycles
Simulation CPU 0 panic: IPC 4e-07 < 0.01
Simulation CPU 0 panic: IPC 0.000566 < 0.01
Simulation CPU 0 panic: IPC 0.0004702 < 0.01
Simulation CPU 0 panic: IPC 9.84e-05 < 0.01
Simulation CPU 0 panic: IPC 0.0002854 < 0.01
Simulation CPU 0 panic: IPC 0.0001352 < 0.01
[ERROR_CYCLE] Error added at CPU cycle 8887082527, interval 126, pending count: 1
Simulation CPU 0 panic: IPC 1.11e-05 < 0.01
[DRAM_CYCLE_ERROR] Cycle-based error applied! address=0x13c6a6588 additional_latency=2459910500 cycles
Simulation CPU 0 panic: IPC 0 < 0.01
Simulation CPU 0 panic: IPC 0.000379 < 0.01
Simulation CPU 0 panic: IPC 8.5e-06 < 0.01
Simulation CPU 0 panic: IPC 0.0002053 < 0.01
Simulation CPU 0 panic: IPC 0.0001095 < 0.01
Simulation CPU 0 panic: IPC 0.0003887 < 0.01
[ERROR_CYCLE] Error added at CPU cycle 8957614927, interval 127, pending count: 1
Simulation CPU 0 panic: IPC 0.0003474 < 0.01
[DRAM_CYCLE_ERROR] Cycle-based error applied! address=0x3cdd0f198 additional_latency=2459910500 cycles
Simulation CPU 0 panic: IPC 0 < 0.01
Simulation CPU 0 panic: IPC 0.0002273 < 0.01
Simulation CPU 0 panic: IPC 5.58e-05 < 0.01
Simulation CPU 0 panic: IPC 0.0001658 < 0.01
Simulation CPU 0 panic: IPC 0.0001228 < 0.01
Simulation CPU 0 panic: IPC 0.0006092 < 0.01
[ERROR_CYCLE] Error added at CPU cycle 9028147328, interval 128, pending count: 1
Simulation CPU 0 panic: IPC 0.0006614 < 0.01
[DRAM_CYCLE_ERROR] Cycle-based error applied! address=0x13c6b30c8 additional_latency=2459910500 cycles
Simulation CPU 0 panic: IPC 0 < 0.01
Simulation CPU 0 panic: IPC 5.65e-05 < 0.01
Simulation CPU 0 panic: IPC 9.89e-05 < 0.01
Simulation CPU 0 panic: IPC 0.0003663 < 0.01
Simulation CPU 0 panic: IPC 0.0001168 < 0.01
Simulation CPU 0 panic: IPC 2.11e-05 < 0.01
[ERROR_CYCLE] Error added at CPU cycle 9098679729, interval 129, pending count: 1
Simulation CPU 0 panic: IPC 0.000197 < 0.01
[DRAM_CYCLE_ERROR] Cycle-based error applied! address=0x12f3c960 additional_latency=2459910500 cycles
Simulation CPU 0 panic: IPC 0 < 0.01
Simulation CPU 0 panic: IPC 0.0008388 < 0.01
Simulation CPU 0 panic: IPC 0.0008844 < 0.01
Simulation CPU 0 panic: IPC 0.0001471 < 0.01
Simulation CPU 0 panic: IPC 8.91e-05 < 0.01
Simulation CPU 0 panic: IPC 6.78e-05 < 0.01
[ERROR_CYCLE] Error added at CPU cycle 9169212131, interval 130, pending count: 1
Simulation CPU 0 panic: IPC 0.000334 < 0.01
[DRAM_CYCLE_ERROR] Cycle-based error applied! address=0x13c6c0328 additional_latency=2459910500 cycles
Simulation CPU 0 panic: IPC 0 < 0.01
Simulation CPU 0 panic: IPC 0.0002733 < 0.01
Simulation CPU 0 panic: IPC 0.000229 < 0.01
Simulation CPU 0 panic: IPC 0.0001019 < 0.01
Simulation CPU 0 panic: IPC 6.2e-05 < 0.01
Simulation CPU 0 panic: IPC 1.53e-05 < 0.01
[ERROR_CYCLE] Error added at CPU cycle 9239744532, interval 131, pending count: 1
Simulation CPU 0 panic: IPC 3.57e-05 < 0.01
[DRAM_CYCLE_ERROR] Cycle-based error applied! address=0x6eea09510 additional_latency=2459910500 cycles
Simulation CPU 0 panic: IPC 0 < 0.01
Simulation CPU 0 panic: IPC 0.0001709 < 0.01
Simulation CPU 0 panic: IPC 7.77e-05 < 0.01
Simulation CPU 0 panic: IPC 6.23e-05 < 0.01
Simulation CPU 0 panic: IPC 0.0004393 < 0.01
Simulation CPU 0 panic: IPC 5.1e-06 < 0.01
Simulation CPU 0 panic: IPC 8.9e-05 < 0.01
[ERROR_CYCLE] Error added at CPU cycle 9310276932, interval 132, pending count: 1
[DRAM_CYCLE_ERROR] Cycle-based error applied! address=0x3b76d8880 additional_latency=2459910500 cycles
Simulation CPU 0 panic: IPC 0 < 0.01
Simulation CPU 0 panic: IPC 0.0002086 < 0.01
Simulation CPU 0 panic: IPC 0.00029 < 0.01
Simulation CPU 0 panic: IPC 1.76e-05 < 0.01
Simulation CPU 0 panic: IPC 0.0002009 < 0.01
Simulation CPU 0 panic: IPC 0.0001885 < 0.01
Simulation CPU 0 panic: IPC 4.15e-05 < 0.01
[ERROR_CYCLE] Error added at CPU cycle 9380809333, interval 133, pending count: 1
[DRAM_CYCLE_ERROR] Cycle-based error applied! address=0x13c6d4a50 additional_latency=2459910500 cycles
Simulation CPU 0 panic: IPC 8.53e-05 < 0.01
Simulation CPU 0 panic: IPC 1.94e-05 < 0.01
Simulation CPU 0 panic: IPC 7.81e-05 < 0.01
Simulation CPU 0 panic: IPC 0.0001928 < 0.01
Simulation CPU 0 panic: IPC 4.21e-05 < 0.01
Simulation CPU 0 panic: IPC 1.76e-05 < 0.01
Simulation CPU 0 panic: IPC 1.07e-05 < 0.01
[ERROR_CYCLE] Error added at CPU cycle 9451341734, interval 134, pending count: 1
[DRAM_CYCLE_ERROR] Cycle-based error applied! address=0x3ed00400 additional_latency=2459910500 cycles
Simulation CPU 0 panic: IPC 0 < 0.01
Simulation CPU 0 panic: IPC 4.17e-05 < 0.01
Simulation CPU 0 panic: IPC 1.53e-05 < 0.01
Simulation CPU 0 panic: IPC 0.0003122 < 0.01
Simulation CPU 0 panic: IPC 0.0001441 < 0.01
Simulation CPU 0 panic: IPC 5.79e-05 < 0.01
Simulation CPU 0 panic: IPC 6.89e-05 < 0.01
[ERROR_CYCLE] Error added at CPU cycle 9521874136, interval 135, pending count: 1
[DRAM_CYCLE_ERROR] Cycle-based error applied! address=0x13c6e1188 additional_latency=2459910500 cycles
Simulation CPU 0 panic: IPC 0 < 0.01
Simulation CPU 0 panic: IPC 0.0004373 < 0.01
Simulation CPU 0 panic: IPC 0.0001486 < 0.01
Simulation CPU 0 panic: IPC 0.0002091 < 0.01
Simulation CPU 0 panic: IPC 0.0001072 < 0.01
Simulation CPU 0 panic: IPC 0.0001429 < 0.01
Simulation CPU 0 panic: IPC 8.17e-05 < 0.01
[ERROR_CYCLE] Error added at CPU cycle 9592406536, interval 136, pending count: 1
[DRAM_CYCLE_ERROR] Cycle-based error applied! address=0x84270048 additional_latency=2459910500 cycles
Simulation CPU 0 panic: IPC 4e-07 < 0.01
Simulation CPU 0 panic: IPC 2.06e-05 < 0.01
Simulation CPU 0 panic: IPC 0.0003139 < 0.01
Simulation CPU 0 panic: IPC 0.0001264 < 0.01
Simulation CPU 0 panic: IPC 0.0003599 < 0.01
Simulation CPU 0 panic: IPC 0.000285 < 0.01
Simulation CPU 0 panic: IPC 0.000237 < 0.01
[ERROR_CYCLE] Error added at CPU cycle 9662938937, interval 137, pending count: 1
[DRAM_CYCLE_ERROR] Cycle-based error applied! address=0x13c6ee320 additional_latency=2459910500 cycles
Simulation CPU 0 panic: IPC 0 < 0.01
Simulation CPU 0 panic: IPC 6.27e-05 < 0.01
Simulation CPU 0 panic: IPC 2.46e-05 < 0.01
Simulation CPU 0 panic: IPC 0.00022 < 0.01
Simulation CPU 0 panic: IPC 0.0008485 < 0.01
Simulation CPU 0 panic: IPC 0.0002906 < 0.01
Simulation CPU 0 panic: IPC 0.0001656 < 0.01
[ERROR_CYCLE] Error added at CPU cycle 9733471338, interval 138, pending count: 1
[DRAM_CYCLE_ERROR] Cycle-based error applied! address=0x23d706c70 additional_latency=2459910500 cycles
Simulation CPU 0 panic: IPC 0 < 0.01
Simulation CPU 0 panic: IPC 0.0001319 < 0.01
Simulation CPU 0 panic: IPC 0.0002867 < 0.01
Simulation CPU 0 panic: IPC 0.000108 < 0.01
Simulation CPU 0 panic: IPC 0.0003691 < 0.01
Simulation CPU 0 panic: IPC 0.000229 < 0.01
Simulation CPU 0 panic: IPC 0.0003264 < 0.01
[ERROR_CYCLE] Error added at CPU cycle 9804003740, interval 139, pending count: 1
[DRAM_CYCLE_ERROR] Cycle-based error applied! address=0x13c6fb1b8 additional_latency=2459910500 cycles
Simulation CPU 0 panic: IPC 0 < 0.01
Simulation CPU 0 panic: IPC 9.06e-05 < 0.01
Simulation CPU 0 panic: IPC 3.13e-05 < 0.01
Simulation CPU 0 panic: IPC 0.0005034 < 0.01
Simulation CPU 0 panic: IPC 3.01e-05 < 0.01
Simulation CPU 0 panic: IPC 0.0011624 < 0.01
Simulation CPU 0 panic: IPC 0.0004178 < 0.01
[ERROR_CYCLE] Error added at CPU cycle 9874536141, interval 140, pending count: 1
[DRAM_CYCLE_ERROR] Cycle-based error applied! address=0x87802980 additional_latency=2459910500 cycles
Simulation CPU 0 panic: IPC 0.0004944 < 0.01
Simulation CPU 0 panic: IPC 0 < 0.01
Simulation CPU 0 panic: IPC 0.0001229 < 0.01
Simulation CPU 0 panic: IPC 0.0007805 < 0.01
Simulation CPU 0 panic: IPC 9.49e-05 < 0.01
Simulation CPU 0 panic: IPC 0.0001581 < 0.01
Simulation CPU 0 panic: IPC 0.0001256 < 0.01
[ERROR_CYCLE] Error added at CPU cycle 9945068541, interval 141, pending count: 1
[DRAM_CYCLE_ERROR] Cycle-based error applied! address=0x2cd722820 additional_latency=2459910500 cycles
Simulation CPU 0 panic: IPC 0 < 0.01
Simulation CPU 0 panic: IPC 0.0002647 < 0.01
Simulation CPU 0 panic: IPC 9.12e-05 < 0.01
Simulation CPU 0 panic: IPC 0.0004271 < 0.01
Simulation CPU 0 panic: IPC 6.08e-05 < 0.01
Simulation CPU 0 panic: IPC 0.0001186 < 0.01
Simulation CPU 0 panic: IPC 0.0001622 < 0.01
[ERROR_CYCLE] Error added at CPU cycle 10015600942, interval 142, pending count: 1
[DRAM_CYCLE_ERROR] Cycle-based error applied! address=0x8780f640 additional_latency=2459910500 cycles
Simulation CPU 0 panic: IPC 0.000209 < 0.01
Simulation CPU 0 panic: IPC 0 < 0.01
Simulation CPU 0 panic: IPC 0.0001247 < 0.01
Simulation CPU 0 panic: IPC 4.03e-05 < 0.01
Simulation CPU 0 panic: IPC 2.24e-05 < 0.01
Simulation CPU 0 panic: IPC 8.14e-05 < 0.01
Simulation CPU 0 panic: IPC 0.0002159 < 0.01
[ERROR_CYCLE] Error added at CPU cycle 10086133343, interval 143, pending count: 1
[DRAM_CYCLE_ERROR] Cycle-based error applied! address=0x473e590c0 additional_latency=2459910500 cycles
Simulation CPU 0 panic: IPC 0 < 0.01
Simulation CPU 0 panic: IPC 0.000102 < 0.01
Simulation CPU 0 panic: IPC 0.0001811 < 0.01
Simulation CPU 0 panic: IPC 4.36e-05 < 0.01
Simulation CPU 0 panic: IPC 0.0005 < 0.01
Simulation CPU 0 panic: IPC 0.0002208 < 0.01
Simulation CPU 0 panic: IPC 0.0006199 < 0.01
[ERROR_CYCLE] Error added at CPU cycle 10156665745, interval 144, pending count: 1
[DRAM_CYCLE_ERROR] Cycle-based error applied! address=0x8781cc50 additional_latency=2459910500 cycles
Simulation CPU 0 panic: IPC 2.53e-05 < 0.01
Simulation CPU 0 panic: IPC 0 < 0.01
Simulation CPU 0 panic: IPC 0.0001688 < 0.01
Simulation CPU 0 panic: IPC 0.0007948 < 0.01
Simulation CPU 0 panic: IPC 0.0002768 < 0.01
Simulation CPU 0 panic: IPC 8.6e-06 < 0.01
Simulation CPU 0 panic: IPC 0.0003499 < 0.01
[ERROR_CYCLE] Error added at CPU cycle 10227198146, interval 145, pending count: 1
[DRAM_CYCLE_ERROR] Cycle-based error applied! address=0xcb2eac48 additional_latency=2459910500 cycles
Simulation CPU 0 panic: IPC 4e-07 < 0.01
Simulation CPU 0 panic: IPC 0.0003226 < 0.01
Simulation CPU 0 panic: IPC 7.77e-05 < 0.01
Simulation CPU 0 panic: IPC 5.61e-05 < 0.01
Simulation CPU 0 panic: IPC 0.0002608 < 0.01
Simulation CPU 0 panic: IPC 7.46e-05 < 0.01
Simulation CPU 0 panic: IPC 0.0002379 < 0.01
[ERROR_CYCLE] Error added at CPU cycle 10297730546, interval 146, pending count: 1
[DRAM_CYCLE_ERROR] Cycle-based error applied! address=0x87829358 additional_latency=2459910500 cycles
Simulation CPU 0 panic: IPC 0.0001566 < 0.01
Simulation CPU 0 panic: IPC 0 < 0.01
Simulation CPU 0 panic: IPC 1.14e-05 < 0.01
Simulation CPU 0 panic: IPC 0.0001794 < 0.01
Simulation CPU 0 panic: IPC 0.0003136 < 0.01
Simulation CPU 0 panic: IPC 0.0005114 < 0.01
Simulation CPU 0 panic: IPC 0.0001045 < 0.01
[ERROR_CYCLE] Error added at CPU cycle 10368262947, interval 147, pending count: 1
[DRAM_CYCLE_ERROR] Cycle-based error applied! address=0x2f10c208 additional_latency=2459910500 cycles
Simulation CPU 0 panic: IPC 0 < 0.01
Simulation CPU 0 panic: IPC 0.0007922 < 0.01
Simulation CPU 0 panic: IPC 0.000485 < 0.01
Simulation CPU 0 panic: IPC 0.0002233 < 0.01
Simulation CPU 0 panic: IPC 0.0002474 < 0.01
Simulation CPU 0 panic: IPC 0.0001173 < 0.01
Simulation CPU 0 panic: IPC 1.81e-05 < 0.01
[ERROR_CYCLE] Error added at CPU cycle 10438795349, interval 148, pending count: 1
Simulation CPU 0 panic: IPC 0.0002717 < 0.01
[DRAM_CYCLE_ERROR] Cycle-based error applied! address=0x4e7b0a3c0 additional_latency=2459910500 cycles
Simulation CPU 0 panic: IPC 0 < 0.01
Simulation CPU 0 panic: IPC 0.0002939 < 0.01
Simulation CPU 0 panic: IPC 4e-05 < 0.01
Simulation CPU 0 panic: IPC 6.4e-06 < 0.01
Simulation CPU 0 panic: IPC 0.0012433 < 0.01
Simulation CPU 0 panic: IPC 0.000125 < 0.01
[ERROR_CYCLE] Error added at CPU cycle 10509327750, interval 149, pending count: 1
Simulation CPU 0 panic: IPC 4.38e-05 < 0.01
[DRAM_CYCLE_ERROR] Cycle-based error applied! address=0x8783eec0 additional_latency=2459910500 cycles
Simulation CPU 0 panic: IPC 0 < 0.01
Simulation CPU 0 panic: IPC 0.0006427 < 0.01
Simulation CPU 0 panic: IPC 6.99e-05 < 0.01
Simulation CPU 0 panic: IPC 0.0002371 < 0.01
Simulation CPU 0 panic: IPC 8.97e-05 < 0.01
Simulation CPU 0 panic: IPC 0.0002711 < 0.01
[ERROR_CYCLE] Error added at CPU cycle 10579860150, interval 150, pending count: 1
Simulation CPU 0 panic: IPC 0.0005678 < 0.01
[DRAM_CYCLE_ERROR] Cycle-based error applied! address=0x1a7a0c120 additional_latency=2459910500 cycles
Simulation CPU 0 panic: IPC 0 < 0.01
Simulation CPU 0 panic: IPC 0.0002065 < 0.01
Simulation CPU 0 panic: IPC 0.0001829 < 0.01
Simulation CPU 0 panic: IPC 0.0001029 < 0.01
Simulation CPU 0 panic: IPC 3.13e-05 < 0.01
Simulation CPU 0 panic: IPC 0.0001683 < 0.01
Simulation CPU 0 panic: IPC 0.0001372 < 0.01
[ERROR_CYCLE] Error added at CPU cycle 10650392551, interval 151, pending count: 1
[DRAM_CYCLE_ERROR] Cycle-based error applied! address=0x8784be40 additional_latency=2459910500 cycles
Simulation CPU 0 panic: IPC 0 < 0.01
Simulation CPU 0 panic: IPC 0.000339 < 0.01
Simulation CPU 0 panic: IPC 0.0001928 < 0.01
Simulation CPU 0 panic: IPC 0.000647 < 0.01
Simulation CPU 0 panic: IPC 0.0003275 < 0.01
Simulation CPU 0 panic: IPC 7.3e-05 < 0.01
Simulation CPU 0 panic: IPC 0.0001096 < 0.01
[ERROR_CYCLE] Error added at CPU cycle 10720924952, interval 152, pending count: 1
[DRAM_CYCLE_ERROR] Cycle-based error applied! address=0x7f81a0458 additional_latency=2459910500 cycles
Simulation CPU 0 panic: IPC 0 < 0.01
Simulation CPU 0 panic: IPC 0.0002002 < 0.01
Simulation CPU 0 panic: IPC 0.0001027 < 0.01
Simulation CPU 0 panic: IPC 3.77e-05 < 0.01
Simulation CPU 0 panic: IPC 7.95e-05 < 0.01
Simulation CPU 0 panic: IPC 0.0002579 < 0.01
Simulation CPU 0 panic: IPC 0.0001118 < 0.01
[ERROR_CYCLE] Error added at CPU cycle 10791457354, interval 153, pending count: 1
[DRAM_CYCLE_ERROR] Cycle-based error applied! address=0x87858e20 additional_latency=2459910500 cycles
Simulation CPU 0 panic: IPC 0 < 0.01
Simulation CPU 0 panic: IPC 0.0001866 < 0.01
Simulation CPU 0 panic: IPC 0.0003179 < 0.01
Simulation CPU 0 panic: IPC 0.0002887 < 0.01
Simulation CPU 0 panic: IPC 0.000205 < 0.01
Simulation CPU 0 panic: IPC 2.87e-05 < 0.01
Simulation CPU 0 panic: IPC 6.03e-05 < 0.01
[ERROR_CYCLE] Error added at CPU cycle 10861989755, interval 154, pending count: 1
[DRAM_CYCLE_ERROR] Cycle-based error applied! address=0x748300850 additional_latency=2459910500 cycles
Simulation CPU 0 panic: IPC 4e-07 < 0.01
Simulation CPU 0 panic: IPC 0.0002127 < 0.01
Simulation CPU 0 panic: IPC 0.0002862 < 0.01
Simulation CPU 0 panic: IPC 3.92e-05 < 0.01
Simulation CPU 0 panic: IPC 0.0002351 < 0.01
Simulation CPU 0 panic: IPC 3.95e-05 < 0.01
Simulation CPU 0 panic: IPC 0.0005352 < 0.01
[ERROR_CYCLE] Error added at CPU cycle 10932522155, interval 155, pending count: 1
[DRAM_CYCLE_ERROR] Cycle-based error applied! address=0x87865900 additional_latency=2459910500 cycles
Simulation CPU 0 panic: IPC 0 < 0.01
Simulation CPU 0 panic: IPC 0.0001108 < 0.01
Simulation CPU 0 panic: IPC 0.0001899 < 0.01
Simulation CPU 0 panic: IPC 0.000147 < 0.01
Simulation CPU 0 panic: IPC 0.0002102 < 0.01
Simulation CPU 0 panic: IPC 0.0002241 < 0.01
Simulation CPU 0 panic: IPC 0.0004685 < 0.01
[ERROR_CYCLE] Error added at CPU cycle 11003054556, interval 156, pending count: 1
[DRAM_CYCLE_ERROR] Cycle-based error applied! address=0x8786c470 additional_latency=2459910500 cycles
Simulation CPU 0 panic: IPC 0.0001088 < 0.01
Simulation CPU 0 panic: IPC 0 < 0.01
Simulation CPU 0 panic: IPC 0.0002746 < 0.01
Simulation CPU 0 panic: IPC 5.02e-05 < 0.01
Simulation CPU 0 panic: IPC 0.0001436 < 0.01
Simulation CPU 0 panic: IPC 0.0001172 < 0.01
Simulation CPU 0 panic: IPC 0.0003327 < 0.01
[ERROR_CYCLE] Error added at CPU cycle 11073586957, interval 157, pending count: 1
[DRAM_CYCLE_ERROR] Cycle-based error applied! address=0x2be9c4f00 additional_latency=2459910500 cycles
Simulation CPU 0 panic: IPC 0 < 0.01
Simulation CPU 0 panic: IPC 0.0001355 < 0.01
Simulation CPU 0 panic: IPC 0.0003783 < 0.01
Simulation CPU 0 panic: IPC 5.91e-05 < 0.01
Simulation CPU 0 panic: IPC 0.0005729 < 0.01
Simulation CPU 0 panic: IPC 5.59e-05 < 0.01
Simulation CPU 0 panic: IPC 1.87e-05 < 0.01
[ERROR_CYCLE] Error added at CPU cycle 11144119359, interval 158, pending count: 1
[DRAM_CYCLE_ERROR] Cycle-based error applied! address=0x87879f78 additional_latency=2459910500 cycles
Simulation CPU 0 panic: IPC 0.0001355 < 0.01
Simulation CPU 0 panic: IPC 0 < 0.01
Simulation CPU 0 panic: IPC 8.82e-05 < 0.01
Simulation CPU 0 panic: IPC 0.0006069 < 0.01
Simulation CPU 0 panic: IPC 0.0002721 < 0.01
Simulation CPU 0 panic: IPC 0.0002295 < 0.01
Simulation CPU 0 panic: IPC 0.000533 < 0.01
[ERROR_CYCLE] Error added at CPU cycle 11214651760, interval 159, pending count: 1
[DRAM_CYCLE_ERROR] Cycle-based error applied! address=0x24e732280 additional_latency=2459910500 cycles
Simulation CPU 0 panic: IPC 0 < 0.01
Simulation CPU 0 panic: IPC 0.0002229 < 0.01
Simulation CPU 0 panic: IPC 0.0004173 < 0.01
Simulation CPU 0 panic: IPC 3.09e-05 < 0.01
Simulation CPU 0 panic: IPC 0.0008507 < 0.01
Simulation CPU 0 panic: IPC 0.0001961 < 0.01
Simulation CPU 0 panic: IPC 2.97e-05 < 0.01
[ERROR_CYCLE] Error added at CPU cycle 11285184160, interval 160, pending count: 1
[DRAM_CYCLE_ERROR] Cycle-based error applied! address=0x878860b0 additional_latency=2459910500 cycles
Simulation CPU 0 panic: IPC 0.0008716 < 0.01
Simulation CPU 0 panic: IPC 0 < 0.01
Simulation CPU 0 panic: IPC 0.0004794 < 0.01
Simulation CPU 0 panic: IPC 2.82e-05 < 0.01
Simulation CPU 0 panic: IPC 0.0003795 < 0.01
Simulation CPU 0 panic: IPC 0.0018517 < 0.01
Simulation CPU 0 panic: IPC 0.000683 < 0.01
[ERROR_CYCLE] Error added at CPU cycle 11355716561, interval 161, pending count: 1
[DRAM_CYCLE_ERROR] Cycle-based error applied! address=0x1113144a0 additional_latency=2459910500 cycles
Simulation CPU 0 panic: IPC 0 < 0.01
Simulation CPU 0 panic: IPC 0.0005767 < 0.01
[...]
[ERROR_CYCLE] Error added at CPU cycle 20101734285, interval 285, pending count: 1
[DRAM_CYCLE_ERROR] Cycle-based error applied! address=0x6939c8230 additional_latency=2459910500 cycles
Heartbeat CPU 0 instructions: 1370000175 cycles: 20121825424 heartbeat IPC: 0.4117 cumulative IPC: 0.06809 (Simulation time: 04 hr 06 min 12 sec)
Heartbeat CPU 0 instructions: 1380000177 cycles: 20131950354 heartbeat IPC: 0.9877 cumulative IPC: 0.06855 (Simulation time: 04 hr 07 min 24 sec)
Heartbeat CPU 0 instructions: 1390000181 cycles: 20140178889 heartbeat IPC: 1.215 cumulative IPC: 0.06902 (Simulation time: 04 hr 08 min 16 sec)
Heartbeat CPU 0 instructions: 1400000181 cycles: 20149679879 heartbeat IPC: 1.053 cumulative IPC: 0.06948 (Simulation time: 04 hr 09 min 27 sec)
Heartbeat CPU 0 instructions: 1410000183 cycles: 20164980631 heartbeat IPC: 0.6536 cumulative IPC: 0.06992 (Simulation time: 04 hr 10 min 56 sec)
[ERROR_CYCLE] Error added at CPU cycle 20172266686, interval 286, pending count: 1
[DRAM_CYCLE_ERROR] Cycle-based error applied! address=0x46a42ca80 additional_latency=2459910500 cycles
Heartbeat CPU 0 instructions: 1420000187 cycles: 20183975976 heartbeat IPC: 0.5264 cumulative IPC: 0.07035 (Simulation time: 04 hr 12 min 34 sec)
Heartbeat CPU 0 instructions: 1430000189 cycles: 20192528160 heartbeat IPC: 1.169 cumulative IPC: 0.07082 (Simulation time: 04 hr 13 min 41 sec)
Heartbeat CPU 0 instructions: 1440000189 cycles: 20219824735 heartbeat IPC: 0.3663 cumulative IPC: 0.07122 (Simulation time: 04 hr 16 min 32 sec)
Heartbeat CPU 0 instructions: 1450000189 cycles: 20233811604 heartbeat IPC: 0.715 cumulative IPC: 0.07166 (Simulation time: 04 hr 18 min 10 sec)
[ERROR_CYCLE] Error added at CPU cycle 20242799088, interval 287, pending count: 1
[DRAM_CYCLE_ERROR] Cycle-based error applied! address=0x4462c4b20 additional_latency=2459910500 cycles
Heartbeat CPU 0 instructions: 1460000191 cycles: 20253270400 heartbeat IPC: 0.5139 cumulative IPC: 0.07209 (Simulation time: 04 hr 20 min 06 sec)
Heartbeat CPU 0 instructions: 1470000194 cycles: 20262205175 heartbeat IPC: 1.119 cumulative IPC: 0.07255 (Simulation time: 04 hr 21 min 15 sec)
Heartbeat CPU 0 instructions: 1480000194 cycles: 20272078102 heartbeat IPC: 1.013 cumulative IPC: 0.07301 (Simulation time: 04 hr 22 min 18 sec)
Heartbeat CPU 0 instructions: 1490000196 cycles: 20298800813 heartbeat IPC: 0.3742 cumulative IPC: 0.0734 (Simulation time: 04 hr 24 min 54 sec)
Heartbeat CPU 0 instructions: 1500000198 cycles: 20307079602 heartbeat IPC: 1.208 cumulative IPC: 0.07387 (Simulation time: 04 hr 25 min 42 sec)
[ERROR_CYCLE] Error added at CPU cycle 20313331489, interval 288, pending count: 1
[DRAM_CYCLE_ERROR] Cycle-based error applied! address=0x3a1bfa130 additional_latency=2459910500 cycles
Heartbeat CPU 0 instructions: 1510000201 cycles: 20325909201 heartbeat IPC: 0.5311 cumulative IPC: 0.07429 (Simulation time: 04 hr 27 min 21 sec)
Heartbeat CPU 0 instructions: 1520000201 cycles: 20336107078 heartbeat IPC: 0.9806 cumulative IPC: 0.07474 (Simulation time: 04 hr 28 min 23 sec)
Heartbeat CPU 0 instructions: 1530000203 cycles: 20369578541 heartbeat IPC: 0.2988 cumulative IPC: 0.07511 (Simulation time: 04 hr 31 min 16 sec)
[ERROR_CYCLE] Error added at CPU cycle 20383863889, interval 289, pending count: 1
[DRAM_CYCLE_ERROR] Cycle-based error applied! address=0xc0790f08 additional_latency=2459910500 cycles
Heartbeat CPU 0 instructions: 1540000207 cycles: 20420844854 heartbeat IPC: 0.1951 cumulative IPC: 0.07541 (Simulation time: 04 hr 35 min 57 sec)
[ERROR_CYCLE] Error added at CPU cycle 20454396290, interval 290, pending count: 1
[DRAM_CYCLE_ERROR] Cycle-based error applied! address=0x5ff4f5ec0 additional_latency=2459910500 cycles
Heartbeat CPU 0 instructions: 1550000211 cycles: 20473068271 heartbeat IPC: 0.1915 cumulative IPC: 0.07571 (Simulation time: 04 hr 40 min 15 sec)
Heartbeat CPU 0 instructions: 1560000211 cycles: 20515234911 heartbeat IPC: 0.2372 cumulative IPC: 0.07604 (Simulation time: 04 hr 44 min 13 sec)
[ERROR_CYCLE] Error added at CPU cycle 20524928691, interval 291, pending count: 1
[DRAM_CYCLE_ERROR] Cycle-based error applied! address=0x523520a88 additional_latency=2459910500 cycles
Heartbeat CPU 0 instructions: 1570000212 cycles: 20567971448 heartbeat IPC: 0.1896 cumulative IPC: 0.07633 (Simulation time: 04 hr 48 min 51 sec)
[ERROR_CYCLE] Error added at CPU cycle 20595461093, interval 292, pending count: 1
[DRAM_CYCLE_ERROR] Cycle-based error applied! address=0x424bfac28 additional_latency=2459910500 cycles
Heartbeat CPU 0 instructions: 1580000212 cycles: 20628782208 heartbeat IPC: 0.1644 cumulative IPC: 0.07659 (Simulation time: 04 hr 53 min 32 sec)
[ERROR_CYCLE] Error added at CPU cycle 20665993494, interval 293, pending count: 1
[DRAM_CYCLE_ERROR] Cycle-based error applied! address=0x214a482e0 additional_latency=2459910500 cycles
Heartbeat CPU 0 instructions: 1590000216 cycles: 20687396569 heartbeat IPC: 0.1706 cumulative IPC: 0.07686 (Simulation time: 04 hr 58 min 23 sec)
Heartbeat CPU 0 instructions: 1600000218 cycles: 20720281344 heartbeat IPC: 0.3041 cumulative IPC: 0.07722 (Simulation time: 05 hr 00 min 59 sec)
Heartbeat CPU 0 instructions: 1610000218 cycles: 20731817724 heartbeat IPC: 0.8668 cumulative IPC: 0.07766 (Simulation time: 05 hr 02 min 15 sec)
[ERROR_CYCLE] Error added at CPU cycle 20736525894, interval 294, pending count: 1
[DRAM_CYCLE_ERROR] Cycle-based error applied! address=0x3a1bf9c38 additional_latency=2459910500 cycles
Heartbeat CPU 0 instructions: 1620000222 cycles: 20750905956 heartbeat IPC: 0.5239 cumulative IPC: 0.07807 (Simulation time: 05 hr 04 min 22 sec)
Heartbeat CPU 0 instructions: 1630000223 cycles: 20768292366 heartbeat IPC: 0.5752 cumulative IPC: 0.07849 (Simulation time: 05 hr 06 min 08 sec)
Heartbeat CPU 0 instructions: 1640000224 cycles: 20778281074 heartbeat IPC: 1.001 cumulative IPC: 0.07893 (Simulation time: 05 hr 07 min 10 sec)
Heartbeat CPU 0 instructions: 1650000228 cycles: 20788130861 heartbeat IPC: 1.015 cumulative IPC: 0.07937 (Simulation time: 05 hr 08 min 19 sec)
Heartbeat CPU 0 instructions: 1660000230 cycles: 20800245477 heartbeat IPC: 0.8254 cumulative IPC: 0.07981 (Simulation time: 05 hr 09 min 46 sec)
[ERROR_CYCLE] Error added at CPU cycle 20807058295, interval 295, pending count: 1
[DRAM_CYCLE_ERROR] Cycle-based error applied! address=0x40aae7278 additional_latency=2459910500 cycles
Heartbeat CPU 0 instructions: 1670000231 cycles: 20827135285 heartbeat IPC: 0.3719 cumulative IPC: 0.08018 (Simulation time: 05 hr 12 min 35 sec)
Heartbeat CPU 0 instructions: 1680000231 cycles: 20849750951 heartbeat IPC: 0.4422 cumulative IPC: 0.08058 (Simulation time: 05 hr 15 min 01 sec)
Heartbeat CPU 0 instructions: 1690000231 cycles: 20858164891 heartbeat IPC: 1.189 cumulative IPC: 0.08102 (Simulation time: 05 hr 16 min 08 sec)
Heartbeat CPU 0 instructions: 1700000232 cycles: 20870874809 heartbeat IPC: 0.7868 cumulative IPC: 0.08145 (Simulation time: 05 hr 17 min 40 sec)
[ERROR_CYCLE] Error added at CPU cycle 20877590697, interval 296, pending count: 1
[DRAM_CYCLE_ERROR] Cycle-based error applied! address=0x79fd63cb8 additional_latency=2459910500 cycles
Heartbeat CPU 0 instructions: 1710000233 cycles: 20892103244 heartbeat IPC: 0.4711 cumulative IPC: 0.08185 (Simulation time: 05 hr 19 min 46 sec)
Heartbeat CPU 0 instructions: 1720000233 cycles: 20902149591 heartbeat IPC: 0.9954 cumulative IPC: 0.08229 (Simulation time: 05 hr 21 min 00 sec)
Heartbeat CPU 0 instructions: 1730000235 cycles: 20910745557 heartbeat IPC: 1.163 cumulative IPC: 0.08273 (Simulation time: 05 hr 22 min 06 sec)
Heartbeat CPU 0 instructions: 1740000235 cycles: 20929640107 heartbeat IPC: 0.5293 cumulative IPC: 0.08314 (Simulation time: 05 hr 23 min 59 sec)
Heartbeat CPU 0 instructions: 1750000236 cycles: 20938255533 heartbeat IPC: 1.161 cumulative IPC: 0.08358 (Simulation time: 05 hr 24 min 51 sec)
[ERROR_CYCLE] Error added at CPU cycle 20948123098, interval 297, pending count: 1
[DRAM_CYCLE_ERROR] Cycle-based error applied! address=0x40aaa96b8 additional_latency=2459910500 cycles
Heartbeat CPU 0 instructions: 1760000236 cycles: 20961278998 heartbeat IPC: 0.4343 cumulative IPC: 0.08396 (Simulation time: 05 hr 27 min 09 sec)
Heartbeat CPU 0 instructions: 1770000237 cycles: 20971102594 heartbeat IPC: 1.018 cumulative IPC: 0.0844 (Simulation time: 05 hr 28 min 15 sec)
Heartbeat CPU 0 instructions: 1780000237 cycles: 20991622711 heartbeat IPC: 0.4873 cumulative IPC: 0.0848 (Simulation time: 05 hr 30 min 04 sec)
[ERROR_CYCLE] Error added at CPU cycle 21018655498, interval 298, pending count: 1
[DRAM_CYCLE_ERROR] Cycle-based error applied! address=0x40aaf9400 additional_latency=2459910500 cycles
Heartbeat CPU 0 instructions: 1790000238 cycles: 21039051662 heartbeat IPC: 0.2108 cumulative IPC: 0.08508 (Simulation time: 05 hr 34 min 41 sec)
Heartbeat CPU 0 instructions: 1800000240 cycles: 21061022985 heartbeat IPC: 0.4551 cumulative IPC: 0.08547 (Simulation time: 05 hr 36 min 54 sec)
Heartbeat CPU 0 instructions: 1810000240 cycles: 21070849639 heartbeat IPC: 1.018 cumulative IPC: 0.0859 (Simulation time: 05 hr 38 min 00 sec)
[ERROR_CYCLE] Error added at CPU cycle 21089187899, interval 299, pending count: 1
[DRAM_CYCLE_ERROR] Cycle-based error applied! address=0x2045648f8 additional_latency=2459910500 cycles
Heartbeat CPU 0 instructions: 1820000242 cycles: 21090629118 heartbeat IPC: 0.5056 cumulative IPC: 0.08629 (Simulation time: 05 hr 40 min 01 sec)
Heartbeat CPU 0 instructions: 1830000243 cycles: 21100313044 heartbeat IPC: 1.033 cumulative IPC: 0.08673 (Simulation time: 05 hr 40 min 54 sec)
Heartbeat CPU 0 instructions: 1840000243 cycles: 21108137782 heartbeat IPC: 1.278 cumulative IPC: 0.08717 (Simulation time: 05 hr 41 min 49 sec)
Heartbeat CPU 0 instructions: 1850000243 cycles: 21118003214 heartbeat IPC: 1.014 cumulative IPC: 0.0876 (Simulation time: 05 hr 42 min 50 sec)
Heartbeat CPU 0 instructions: 1860000245 cycles: 21132970311 heartbeat IPC: 0.6681 cumulative IPC: 0.08801 (Simulation time: 05 hr 44 min 10 sec)
Heartbeat CPU 0 instructions: 1870000249 cycles: 21148468970 heartbeat IPC: 0.6452 cumulative IPC: 0.08842 (Simulation time: 05 hr 45 min 58 sec)
Heartbeat CPU 0 instructions: 1880000253 cycles: 21157246164 heartbeat IPC: 1.139 cumulative IPC: 0.08886 (Simulation time: 05 hr 47 min 06 sec)
[ERROR_CYCLE] Error added at CPU cycle 21159720300, interval 300, pending count: 1
[DRAM_CYCLE_ERROR] Cycle-based error applied! address=0x6cf4f52f8 additional_latency=2459910500 cycles
Simulation CPU 0 critical: IPC 0.015154 < 0.02
Heartbeat CPU 0 instructions: 1890000255 cycles: 21183708260 heartbeat IPC: 0.3779 cumulative IPC: 0.08922 (Simulation time: 05 hr 49 min 54 sec)
Heartbeat CPU 0 instructions: 1900000258 cycles: 21192193296 heartbeat IPC: 1.179 cumulative IPC: 0.08966 (Simulation time: 05 hr 50 min 52 sec)
Heartbeat CPU 0 instructions: 1910000258 cycles: 21203054663 heartbeat IPC: 0.9207 cumulative IPC: 0.09008 (Simulation time: 05 hr 51 min 50 sec)
Heartbeat CPU 0 instructions: 1920000259 cycles: 21212461462 heartbeat IPC: 1.063 cumulative IPC: 0.09051 (Simulation time: 05 hr 52 min 54 sec)
Heartbeat CPU 0 instructions: 1930000261 cycles: 21228238881 heartbeat IPC: 0.6338 cumulative IPC: 0.09092 (Simulation time: 05 hr 54 min 31 sec)
[ERROR_CYCLE] Error added at CPU cycle 21230252702, interval 301, pending count: 1
[DRAM_CYCLE_ERROR] Cycle-based error applied! address=0x13e06a6e0 additional_latency=2459910500 cycles
Simulation CPU 0 panic: IPC 0.008607 < 0.01
Heartbeat CPU 0 instructions: 1940000262 cycles: 21246860791 heartbeat IPC: 0.537 cumulative IPC: 0.09131 (Simulation time: 05 hr 56 min 35 sec)
Heartbeat CPU 0 instructions: 1950000265 cycles: 21258869929 heartbeat IPC: 0.8327 cumulative IPC: 0.09173 (Simulation time: 05 hr 57 min 52 sec)
Heartbeat CPU 0 instructions: 1960000268 cycles: 21269020533 heartbeat IPC: 0.9852 cumulative IPC: 0.09215 (Simulation time: 05 hr 59 min 00 sec)
Heartbeat CPU 0 instructions: 1970000269 cycles: 21294556477 heartbeat IPC: 0.3916 cumulative IPC: 0.09251 (Simulation time: 06 hr 01 min 36 sec)
[ERROR_CYCLE] Error added at CPU cycle 21300785103, interval 302, pending count: 1
[DRAM_CYCLE_ERROR] Cycle-based error applied! address=0x70faad3e8 additional_latency=2459910500 cycles
Simulation CPU 0 critical: IPC 0.017374 < 0.02
Heartbeat CPU 0 instructions: 1980000269 cycles: 21351554267 heartbeat IPC: 0.1754 cumulative IPC: 0.09273 (Simulation time: 06 hr 06 min 02 sec)
[ERROR_CYCLE] Error added at CPU cycle 21371317503, interval 303, pending count: 1
[DRAM_CYCLE_ERROR] Cycle-based error applied! address=0x77c5bf3b8 additional_latency=2459910500 cycles
Simulation CPU 0 warning: IPC 0.028582 < 0.05
Heartbeat CPU 0 instructions: 1990000270 cycles: 21409051864 heartbeat IPC: 0.1739 cumulative IPC: 0.09295 (Simulation time: 06 hr 10 min 47 sec)
[ERROR_CYCLE] Error added at CPU cycle 21441849904, interval 304, pending count: 1
[DRAM_CYCLE_ERROR] Cycle-based error applied! address=0x54c714368 additional_latency=2459910500 cycles
Simulation CPU 0 warning: IPC 0.045644 < 0.05

=== ERROR PAGE STATISTICS ===
Mode: CYCLE
Error Cycle Interval: 70532401 CPU cycles
Total Error Accesses: 304
==============================
Simulation finished CPU 0 instructions: 1999999938 cycles: 21462791030 cumulative IPC: 0.09318 (Simulation time: 06 hr 15 min 41 sec)
Simulation complete CPU 0 instructions: 1999999938 cycles: 21462791030 cumulative IPC: 0.09318 (Simulation time: 06 hr 15 min 41 sec)

ChampSim completed all CPUs

=== Simulation ===
CPU 0 runs test_traces/605.mcf_s-994B.champsimtrace.xz

Region of Interest Statistics

CPU 0 cumulative IPC: 0.09318 instructions: 1999999938 cycles: 21462791030
CPU 0 Branch Prediction Accuracy: 92.62% MPKI: 18.99 Average ROB Occupancy at Mispredict: 32.67
Branch type MPKI
BRANCH_DIRECT_JUMP: 0.123
BRANCH_INDIRECT: 0
BRANCH_CONDITIONAL: 18.86
BRANCH_DIRECT_CALL: 6.5e-06
BRANCH_INDIRECT_CALL: 0.0004185
BRANCH_RETURN: 1e-05

cpu0->cpu0_STLB TOTAL        ACCESS:    6367233 HIT:    6361281 MISS:       5952 MSHR_MERGE:          0
cpu0->cpu0_STLB LOAD         ACCESS:    6367233 HIT:    6361281 MISS:       5952 MSHR_MERGE:          0
cpu0->cpu0_STLB RFO          ACCESS:          0 HIT:          0 MISS:          0 MSHR_MERGE:          0
cpu0->cpu0_STLB PREFETCH     ACCESS:          0 HIT:          0 MISS:          0 MSHR_MERGE:          0
cpu0->cpu0_STLB WRITE        ACCESS:          0 HIT:          0 MISS:          0 MSHR_MERGE:          0
cpu0->cpu0_STLB TRANSLATION  ACCESS:          0 HIT:          0 MISS:          0 MSHR_MERGE:          0
cpu0->cpu0_STLB PREFETCH REQUESTED:          0 ISSUED:          0 USEFUL:          0 USELESS:          0
cpu0->cpu0_STLB AVERAGE MISS LATENCY: 2.867e+06 cycles
cpu0->cpu0_L2C TOTAL        ACCESS:   81180909 HIT:   27540096 MISS:   53640813 MSHR_MERGE:          0
cpu0->cpu0_L2C LOAD         ACCESS:   75043348 HIT:   21466994 MISS:   53576354 MSHR_MERGE:          0
cpu0->cpu0_L2C RFO          ACCESS:     492573 HIT:     432402 MISS:      60171 MSHR_MERGE:          0
cpu0->cpu0_L2C PREFETCH     ACCESS:          0 HIT:          0 MISS:          0 MSHR_MERGE:          0
cpu0->cpu0_L2C WRITE        ACCESS:    5644988 HIT:    5640700 MISS:       4288 MSHR_MERGE:          0
cpu0->cpu0_L2C TRANSLATION  ACCESS:          0 HIT:          0 MISS:          0 MSHR_MERGE:          0
cpu0->cpu0_L2C PREFETCH REQUESTED:          0 ISSUED:          0 USEFUL:          0 USELESS:          0
cpu0->cpu0_L2C AVERAGE MISS LATENCY: 124.5 cycles
cpu0->cpu0_L1I TOTAL        ACCESS:    2879916 HIT:    2879824 MISS:         92 MSHR_MERGE:         26
cpu0->cpu0_L1I LOAD         ACCESS:    2879916 HIT:    2879824 MISS:         92 MSHR_MERGE:         26
cpu0->cpu0_L1I RFO          ACCESS:          0 HIT:          0 MISS:          0 MSHR_MERGE:          0
cpu0->cpu0_L1I PREFETCH     ACCESS:          0 HIT:          0 MISS:          0 MSHR_MERGE:          0
cpu0->cpu0_L1I WRITE        ACCESS:          0 HIT:          0 MISS:          0 MSHR_MERGE:          0
cpu0->cpu0_L1I TRANSLATION  ACCESS:          0 HIT:          0 MISS:          0 MSHR_MERGE:          0
cpu0->cpu0_L1I PREFETCH REQUESTED:          0 ISSUED:          0 USEFUL:          0 USELESS:          0
cpu0->cpu0_L1I AVERAGE MISS LATENCY: 102.9 cycles
cpu0->cpu0_L1D TOTAL        ACCESS:  810617988 HIT:  728263563 MISS:   82354425 MSHR_MERGE:    6817469
cpu0->cpu0_L1D LOAD         ACCESS:  610034328 HIT:  529056648 MISS:   80977680 MSHR_MERGE:    5934377
cpu0->cpu0_L1D RFO          ACCESS:          0 HIT:          0 MISS:          0 MSHR_MERGE:          0
cpu0->cpu0_L1D PREFETCH     ACCESS:          0 HIT:          0 MISS:          0 MSHR_MERGE:          0
cpu0->cpu0_L1D WRITE        ACCESS:  200583660 HIT:  199206915 MISS:    1376745 MSHR_MERGE:     883092
cpu0->cpu0_L1D TRANSLATION  ACCESS:          0 HIT:          0 MISS:          0 MSHR_MERGE:          0
cpu0->cpu0_L1D PREFETCH REQUESTED:          0 ISSUED:          0 USEFUL:          0 USELESS:          0
cpu0->cpu0_L1D AVERAGE MISS LATENCY: 97.26 cycles
cpu0->cpu0_ITLB TOTAL        ACCESS:    2729338 HIT:    2729337 MISS:          1 MSHR_MERGE:          0
cpu0->cpu0_ITLB LOAD         ACCESS:    2729338 HIT:    2729337 MISS:          1 MSHR_MERGE:          0
cpu0->cpu0_ITLB RFO          ACCESS:          0 HIT:          0 MISS:          0 MSHR_MERGE:          0
cpu0->cpu0_ITLB PREFETCH     ACCESS:          0 HIT:          0 MISS:          0 MSHR_MERGE:          0
cpu0->cpu0_ITLB WRITE        ACCESS:          0 HIT:          0 MISS:          0 MSHR_MERGE:          0
cpu0->cpu0_ITLB TRANSLATION  ACCESS:          0 HIT:          0 MISS:          0 MSHR_MERGE:          0
cpu0->cpu0_ITLB PREFETCH REQUESTED:          0 ISSUED:          0 USEFUL:          0 USELESS:          0
cpu0->cpu0_ITLB AVERAGE MISS LATENCY: 1.848e+07 cycles
cpu0->cpu0_DTLB TOTAL        ACCESS:  706565511 HIT:  699653849 MISS:    6911662 MSHR_MERGE:     544430
cpu0->cpu0_DTLB LOAD         ACCESS:  706565511 HIT:  699653849 MISS:    6911662 MSHR_MERGE:     544430
cpu0->cpu0_DTLB RFO          ACCESS:          0 HIT:          0 MISS:          0 MSHR_MERGE:          0
cpu0->cpu0_DTLB PREFETCH     ACCESS:          0 HIT:          0 MISS:          0 MSHR_MERGE:          0
cpu0->cpu0_DTLB WRITE        ACCESS:          0 HIT:          0 MISS:          0 MSHR_MERGE:          0
cpu0->cpu0_DTLB TRANSLATION  ACCESS:          0 HIT:          0 MISS:          0 MSHR_MERGE:          0
cpu0->cpu0_DTLB PREFETCH REQUESTED:          0 ISSUED:          0 USEFUL:          0 USELESS:          0
cpu0->cpu0_DTLB AVERAGE MISS LATENCY: 2682 cycles
cpu0->LLC TOTAL        ACCESS:   57571124 HIT:   16528574 MISS:   41042550 MSHR_MERGE:          0
cpu0->LLC LOAD         ACCESS:   53576354 HIT:   12553514 MISS:   41022840 MSHR_MERGE:          0
cpu0->LLC RFO          ACCESS:      60171 HIT:      41695 MISS:      18476 MSHR_MERGE:          0
cpu0->LLC PREFETCH     ACCESS:          0 HIT:          0 MISS:          0 MSHR_MERGE:          0
cpu0->LLC WRITE        ACCESS:    3934599 HIT:    3933365 MISS:       1234 MSHR_MERGE:          0
cpu0->LLC TRANSLATION  ACCESS:          0 HIT:          0 MISS:          0 MSHR_MERGE:          0
cpu0->LLC PREFETCH REQUESTED:          0 ISSUED:          0 USEFUL:          0 USELESS:          0
cpu0->LLC AVERAGE MISS LATENCY: 142.1 cycles

DRAM Statistics

Channel 0 RQ ROW_BUFFER_HIT:     276073
  ROW_BUFFER_MISS:   20251530
  AVG DBUS CONGESTED CYCLE: 9.317
Channel 0 WQ ROW_BUFFER_HIT:     331581
  ROW_BUFFER_MISS:    1235985
  FULL:          0
Channel 0 REFRESHES ISSUED:    1788451

Channel 1 RQ ROW_BUFFER_HIT:     275682
  ROW_BUFFER_MISS:   20249889
  AVG DBUS CONGESTED CYCLE: 9.316
Channel 1 WQ ROW_BUFFER_HIT:     331566
  ROW_BUFFER_MISS:    1236512
  FULL:          0
Channel 1 REFRESHES ISSUED:    1788451
