
*** ChampSim Multicore Out-of-Order Simulator ***
Warmup Instructions: 0
Simulation Instructions: 9223372036854775807
Number of CPUs: 1
Page size: 1048576

Off-chip DRAM Size: 64 GiB Channels: 2 Width: 32-bit Data Rate: 4807 MT/s
[ERROR_PAGE_MANAGER] Error latency: 2459910500 
[ERROR_PAGE_MANAGER] Random seed: 54321 (fixed for preload reproducibility)
[ERROR_PAGE_MANAGER] Cycle-based error modeling enabled
[ERROR_PAGE_MANAGER] Errors per interval: 1
[ERROR_PAGE_MANAGER] Error cycle interval: 4648416149 cycles

=== ERROR PAGE STATISTICS ===
Mode: CYCLE
Error Cycle Interval: 4648416149 CPU cycles
Total Error Accesses: 0
==============================
Warmup finished CPU 0 instructions: 0 cycles: 1 cumulative IPC: 0 (Simulation time: 00 hr 00 min 00 sec)
Warmup complete CPU 0 instructions: 0 cycles: 1 cumulative IPC: 0 (Simulation time: 00 hr 00 min 00 sec)
Simulation CPU 0 panic: IPC 0 < 0.01
Simulation CPU 0 panic: IPC 2e-06 < 0.01
Simulation CPU 0 panic: IPC 0 < 0.01
Simulation CPU 0 panic: IPC 2.52e-05 < 0.01
Simulation CPU 0 panic: IPC 0.000543 < 0.01
Simulation CPU 0 panic: IPC 0.0003794 < 0.01
Simulation CPU 0 panic: IPC 7.5e-06 < 0.01
Simulation CPU 0 panic: IPC 2.1e-06 < 0.01
Simulation CPU 0 panic: IPC 1.7e-06 < 0.01
Simulation CPU 0 panic: IPC 1.11e-05 < 0.01
Simulation CPU 0 panic: IPC 1e-07 < 0.01
Simulation CPU 0 panic: IPC 4e-07 < 0.01
Simulation CPU 0 panic: IPC 4e-06 < 0.01
Simulation CPU 0 panic: IPC 8e-06 < 0.01
Simulation CPU 0 panic: IPC 0.0030956 < 0.01
Simulation CPU 0 critical: IPC 0.018621 < 0.02
Simulation CPU 0 critical: IPC 0.015891 < 0.02
Simulation CPU 0 panic: IPC 0.0027506 < 0.01
Simulation CPU 0 warning: IPC 0.021759 < 0.05
Simulation CPU 0 warning: IPC 0.024809 < 0.05
Simulation CPU 0 warning: IPC 0.037198 < 0.05
Simulation CPU 0 panic: IPC 7.2e-06 < 0.01
Simulation CPU 0 panic: IPC 8e-06 < 0.01
Simulation CPU 0 panic: IPC 0.0061778 < 0.01
Simulation CPU 0 panic: IPC 0.0061606 < 0.01
Simulation CPU 0 panic: IPC 0.0093766 < 0.01
Simulation CPU 0 panic: IPC 0.0059319 < 0.01
Simulation CPU 0 critical: IPC 0.012699 < 0.02
Simulation CPU 0 critical: IPC 0.012403 < 0.02
Simulation CPU 0 critical: IPC 0.018633 < 0.02
Simulation CPU 0 panic: IPC 0.009306 < 0.01
Simulation CPU 0 panic: IPC 8e-06 < 0.01
Simulation CPU 0 panic: IPC 0.0030944 < 0.01
Simulation CPU 0 panic: IPC 0.0084984 < 0.01
Simulation CPU 0 critical: IPC 0.010128 < 0.02
Simulation CPU 0 panic: IPC 0.0030958 < 0.01
Simulation CPU 0 critical: IPC 0.018635 < 0.02
Simulation CPU 0 critical: IPC 0.015525 < 0.02
Simulation CPU 0 panic: IPC 0.003084 < 0.01
Simulation CPU 0 panic: IPC 0.0093209 < 0.01
Simulation CPU 0 warning: IPC 0.040334 < 0.05
Simulation CPU 0 panic: IPC 0.0003344 < 0.01
Simulation CPU 0 panic: IPC 0.0001264 < 0.01
Simulation CPU 0 panic: IPC 8e-07 < 0.01
Simulation CPU 0 panic: IPC 1.6e-06 < 0.01
Simulation CPU 0 panic: IPC 8e-07 < 0.01
Simulation CPU 0 panic: IPC 8e-07 < 0.01
Simulation CPU 0 panic: IPC 8.8e-06 < 0.01
Simulation CPU 0 panic: IPC 8e-07 < 0.01
Simulation CPU 0 panic: IPC 0.0010825 < 0.01
Simulation CPU 0 critical: IPC 0.012459 < 0.02
Simulation CPU 0 critical: IPC 0.010631 < 0.02
Simulation CPU 0 critical: IPC 0.011066 < 0.02
Simulation CPU 0 panic: IPC 7.2e-06 < 0.01
Simulation CPU 0 panic: IPC 0.003121 < 0.01
Simulation CPU 0 panic: IPC 0.0030986 < 0.01
Simulation CPU 0 warning: IPC 0.036728 < 0.05
Simulation CPU 0 warning: IPC 0.029702 < 0.05
Heartbeat CPU 0 instructions: 10000002 cycles: 658597375 heartbeat IPC: 0.01518 cumulative IPC: 0.01518 (Simulation time: 00 hr 49 min 21 sec)
Simulation CPU 0 warning: IPC 0.02925 < 0.05
Simulation CPU 0 warning: IPC 0.04774 < 0.05
Simulation CPU 0 warning: IPC 0.04701 < 0.05
Simulation CPU 0 critical: IPC 0.010696 < 0.02
Simulation CPU 0 panic: IPC 0.0039995 < 0.01
Simulation CPU 0 warning: IPC 0.02399 < 0.05
Simulation CPU 0 warning: IPC 0.03414 < 0.05
Simulation CPU 0 warning: IPC 0.022203 < 0.05
Simulation CPU 0 panic: IPC 0.0084508 < 0.01
Simulation CPU 0 critical: IPC 0.012076 < 0.02
Simulation CPU 0 panic: IPC 0.0071009 < 0.01
Simulation CPU 0 critical: IPC 0.018628 < 0.02
Simulation CPU 0 panic: IPC 8e-06 < 0.01
Simulation CPU 0 panic: IPC 0.0062191 < 0.01
Simulation CPU 0 panic: IPC 0.000472 < 0.01
Simulation CPU 0 warning: IPC 0.046519 < 0.05
Simulation CPU 0 warning: IPC 0.027922 < 0.05
Simulation CPU 0 warning: IPC 0.028193 < 0.05
Simulation CPU 0 panic: IPC 0.000504 < 0.01
Simulation CPU 0 panic: IPC 8e-06 < 0.01
Simulation CPU 0 critical: IPC 0.014575 < 0.02
Simulation CPU 0 panic: IPC 0.003084 < 0.01
Simulation CPU 0 warning: IPC 0.021741 < 0.05
Simulation CPU 0 critical: IPC 0.018644 < 0.02
Simulation CPU 0 critical: IPC 0.013816 < 0.02
Simulation CPU 0 warning: IPC 0.029235 < 0.05
Heartbeat CPU 0 instructions: 20000002 cycles: 970828288 heartbeat IPC: 0.03203 cumulative IPC: 0.0206 (Simulation time: 01 hr 14 min 31 sec)
Simulation CPU 0 warning: IPC 0.021011 < 0.05
Simulation CPU 0 panic: IPC 8e-06 < 0.01
Simulation CPU 0 warning: IPC 0.021704 < 0.05
Simulation CPU 0 warning: IPC 0.049472 < 0.05
Simulation CPU 0 critical: IPC 0.015526 < 0.02
Simulation CPU 0 warning: IPC 0.021714 < 0.05
Simulation CPU 0 critical: IPC 0.01551 < 0.02
Simulation CPU 0 critical: IPC 0.018613 < 0.02
Simulation CPU 0 critical: IPC 0.012392 < 0.02
Simulation CPU 0 panic: IPC 0.0093017 < 0.01
Simulation CPU 0 critical: IPC 0.015508 < 0.02
Simulation CPU 0 warning: IPC 0.034145 < 0.05
Simulation CPU 0 critical: IPC 0.012406 < 0.02
Simulation CPU 0 warning: IPC 0.037298 < 0.05
Simulation CPU 0 panic: IPC 0.0031301 < 0.01
Simulation CPU 0 critical: IPC 0.015537 < 0.02
Simulation CPU 0 panic: IPC 0.000472 < 0.01
Simulation CPU 0 critical: IPC 0.015048 < 0.02
Simulation CPU 0 critical: IPC 0.012423 < 0.02
Simulation CPU 0 panic: IPC 0.000472 < 0.01
Simulation CPU 0 warning: IPC 0.036737 < 0.05
Simulation CPU 0 warning: IPC 0.024809 < 0.05
Simulation CPU 0 panic: IPC 0.0062005 < 0.01
Simulation CPU 0 warning: IPC 0.049616 < 0.05
Simulation CPU 0 panic: IPC 0.009301 < 0.01
Simulation CPU 0 panic: IPC 0.0031048 < 0.01
Simulation CPU 0 warning: IPC 0.034131 < 0.05
Simulation CPU 0 critical: IPC 0.015517 < 0.02
Heartbeat CPU 0 instructions: 30000004 cycles: 1310735505 heartbeat IPC: 0.02942 cumulative IPC: 0.02289 (Simulation time: 01 hr 39 min 59 sec)
Simulation CPU 0 warning: IPC 0.037211 < 0.05
Simulation CPU 0 critical: IPC 0.012412 < 0.02
Simulation CPU 0 panic: IPC 0.0031018 < 0.01
Simulation CPU 0 panic: IPC 0.0062108 < 0.01
Simulation CPU 0 panic: IPC 0.0048863 < 0.01
Simulation CPU 0 panic: IPC 0.0093111 < 0.01
Simulation CPU 0 critical: IPC 0.012394 < 0.02
Simulation CPU 0 panic: IPC 1.59e-05 < 0.01
Simulation CPU 0 critical: IPC 0.015504 < 0.02
Simulation CPU 0 panic: IPC 0.0073798 < 0.01
Simulation CPU 0 warning: IPC 0.031614 < 0.05
Simulation CPU 0 panic: IPC 3.2e-06 < 0.01
Simulation CPU 0 panic: IPC 8.96e-05 < 0.01
Simulation CPU 0 warning: IPC 0.022949 < 0.05
Simulation CPU 0 critical: IPC 0.016396 < 0.02
Simulation CPU 0 warning: IPC 0.039447 < 0.05
Simulation CPU 0 panic: IPC 0.006212 < 0.01
Simulation CPU 0 panic: IPC 0.0031088 < 0.01
Simulation CPU 0 warning: IPC 0.024504 < 0.05
Simulation CPU 0 warning: IPC 0.043736 < 0.05
Simulation CPU 0 panic: IPC 0.0085768 < 0.01
Simulation CPU 0 warning: IPC 0.021453 < 0.05
Simulation CPU 0 panic: IPC 0.0041138 < 0.01
Simulation CPU 0 warning: IPC 0.020862 < 0.05
Simulation CPU 0 warning: IPC 0.038062 < 0.05
Simulation CPU 0 panic: IPC 0.0062027 < 0.01
Simulation CPU 0 panic: IPC 0.0031156 < 0.01
Simulation CPU 0 warning: IPC 0.037205 < 0.05
Simulation CPU 0 panic: IPC 0.0078495 < 0.01
Simulation CPU 0 critical: IPC 0.01385 < 0.02
Simulation CPU 0 warning: IPC 0.035432 < 0.05
Simulation CPU 0 panic: IPC 0.0062091 < 0.01
Simulation CPU 0 panic: IPC 0.0031298 < 0.01
Simulation CPU 0 panic: IPC 0.0062028 < 0.01
Simulation CPU 0 critical: IPC 0.018643 < 0.02
Simulation CPU 0 critical: IPC 0.018628 < 0.02
Simulation CPU 0 panic: IPC 0.000472 < 0.01
Simulation CPU 0 critical: IPC 0.011207 < 0.02
Simulation CPU 0 warning: IPC 0.025583 < 0.05
Simulation CPU 0 panic: IPC 0.0031006 < 0.01
Simulation CPU 0 warning: IPC 0.021719 < 0.05
Simulation CPU 0 critical: IPC 0.011128 < 0.02
Simulation CPU 0 critical: IPC 0.013677 < 0.02
Simulation CPU 0 critical: IPC 0.012404 < 0.02
Simulation CPU 0 panic: IPC 0.0031006 < 0.01
Heartbeat CPU 0 instructions: 40000005 cycles: 1803110049 heartbeat IPC: 0.02031 cumulative IPC: 0.02218 (Simulation time: 02 hr 16 min 56 sec)
Simulation CPU 0 warning: IPC 0.034142 < 0.05
Simulation CPU 0 warning: IPC 0.040305 < 0.05
Simulation CPU 0 warning: IPC 0.030423 < 0.05
Simulation CPU 0 warning: IPC 0.047096 < 0.05
Simulation CPU 0 warning: IPC 0.027917 < 0.05
Simulation CPU 0 panic: IPC 0.0093076 < 0.01
Simulation CPU 0 panic: IPC 0.0066835 < 0.01
Simulation CPU 0 critical: IPC 0.013914 < 0.02
Simulation CPU 0 warning: IPC 0.042126 < 0.05
Simulation CPU 0 warning: IPC 0.044396 < 0.05
Simulation CPU 0 warning: IPC 0.03002 < 0.05
Simulation CPU 0 warning: IPC 0.041629 < 0.05
Simulation CPU 0 warning: IPC 0.029247 < 0.05
Simulation CPU 0 critical: IPC 0.012891 < 0.02
Simulation CPU 0 critical: IPC 0.012448 < 0.02
Simulation CPU 0 panic: IPC 0.0093099 < 0.01
Simulation CPU 0 panic: IPC 0.0093221 < 0.01
Simulation CPU 0 warning: IPC 0.046528 < 0.05
Simulation CPU 0 warning: IPC 0.044912 < 0.05
Simulation CPU 0 warning: IPC 0.032624 < 0.05
Simulation CPU 0 warning: IPC 0.04032 < 0.05
Heartbeat CPU 0 instructions: 50000009 cycles: 2069134840 heartbeat IPC: 0.03759 cumulative IPC: 0.02416 (Simulation time: 02 hr 35 min 13 sec)
Simulation CPU 0 warning: IPC 0.035837 < 0.05
Simulation CPU 0 warning: IPC 0.029294 < 0.05
Simulation CPU 0 warning: IPC 0.027913 < 0.05
Simulation CPU 0 critical: IPC 0.012347 < 0.02
Simulation CPU 0 panic: IPC 0.0062664 < 0.01
Simulation CPU 0 warning: IPC 0.046498 < 0.05
Simulation CPU 0 panic: IPC 0.0031165 < 0.01
Simulation CPU 0 warning: IPC 0.024802 < 0.05
Simulation CPU 0 panic: IPC 0.0057332 < 0.01
Simulation CPU 0 warning: IPC 0.025781 < 0.05
Simulation CPU 0 warning: IPC 0.035779 < 0.05
Simulation CPU 0 panic: IPC 0.0094624 < 0.01
Simulation CPU 0 warning: IPC 0.021707 < 0.05
Simulation CPU 0 warning: IPC 0.041832 < 0.05
Simulation CPU 0 warning: IPC 0.029282 < 0.05
Simulation CPU 0 warning: IPC 0.029693 < 0.05
Simulation CPU 0 warning: IPC 0.029378 < 0.05
Simulation CPU 0 warning: IPC 0.029609 < 0.05
Simulation CPU 0 warning: IPC 0.02222 < 0.05
Simulation CPU 0 panic: IPC 0.0002752 < 0.01
Simulation CPU 0 panic: IPC 0.0004992 < 0.01
Simulation CPU 0 warning: IPC 0.037378 < 0.05
Simulation CPU 0 critical: IPC 0.012407 < 0.02
Simulation CPU 0 critical: IPC 0.016256 < 0.02
Simulation CPU 0 warning: IPC 0.031899 < 0.05
Simulation CPU 0 warning: IPC 0.025684 < 0.05
Simulation CPU 0 warning: IPC 0.033194 < 0.05
Simulation CPU 0 warning: IPC 0.029689 < 0.05
Heartbeat CPU 0 instructions: 60000012 cycles: 2390604885 heartbeat IPC: 0.03111 cumulative IPC: 0.0251 (Simulation time: 03 hr 01 min 42 sec)
Simulation CPU 0 warning: IPC 0.029243 < 0.05
Simulation CPU 0 panic: IPC 0.0094479 < 0.01
Simulation CPU 0 critical: IPC 0.018601 < 0.02
Simulation CPU 0 panic: IPC 0.0031085 < 0.01
Simulation CPU 0 warning: IPC 0.024266 < 0.05
Simulation CPU 0 critical: IPC 0.015975 < 0.02
Simulation CPU 0 critical: IPC 0.016903 < 0.02
Simulation CPU 0 panic: IPC 0.004106 < 0.01
Simulation CPU 0 panic: IPC 0.0095409 < 0.01
Simulation CPU 0 panic: IPC 0.009328 < 0.01
Simulation CPU 0 panic: IPC 0.0031036 < 0.01
Simulation CPU 0 critical: IPC 0.012432 < 0.02
Simulation CPU 0 panic: IPC 0.003084 < 0.01
Simulation CPU 0 panic: IPC 0.0031205 < 0.01
Simulation CPU 0 panic: IPC 0.0031204 < 0.01
Simulation CPU 0 critical: IPC 0.015519 < 0.02
Simulation CPU 0 warning: IPC 0.037201 < 0.05
Simulation CPU 0 panic: IPC 0.0092978 < 0.01
Simulation CPU 0 critical: IPC 0.010541 < 0.02
Simulation CPU 0 warning: IPC 0.045318 < 0.05
Simulation CPU 0 panic: IPC 0.0040887 < 0.01
Simulation CPU 0 panic: IPC 0.0026126 < 0.01
Simulation CPU 0 critical: IPC 0.015526 < 0.02
Simulation CPU 0 warning: IPC 0.049332 < 0.05
Simulation CPU 0 warning: IPC 0.041064 < 0.05
Simulation CPU 0 warning: IPC 0.02866 < 0.05
Simulation CPU 0 panic: IPC 0.006215 < 0.01
Simulation CPU 0 warning: IPC 0.020633 < 0.05
Simulation CPU 0 warning: IPC 0.026898 < 0.05
Simulation CPU 0 panic: IPC 0.0031046 < 0.01
Simulation CPU 0 critical: IPC 0.016003 < 0.02
Simulation CPU 0 panic: IPC 0.0026233 < 0.01
Simulation CPU 0 critical: IPC 0.010371 < 0.02
Heartbeat CPU 0 instructions: 70000012 cycles: 2795225239 heartbeat IPC: 0.02471 cumulative IPC: 0.02504 (Simulation time: 03 hr 34 min 09 sec)
Simulation CPU 0 panic: IPC 0.0001504 < 0.01
Simulation CPU 0 panic: IPC 0.0005464 < 0.01
Simulation CPU 0 warning: IPC 0.047184 < 0.05
Simulation CPU 0 panic: IPC 0.0093234 < 0.01
Simulation CPU 0 panic: IPC 0.0030368 < 0.01
Simulation CPU 0 panic: IPC 0.0031966 < 0.01
Simulation CPU 0 critical: IPC 0.015536 < 0.02
Simulation CPU 0 warning: IPC 0.03103 < 0.05
Simulation CPU 0 critical: IPC 0.017233 < 0.02
Simulation CPU 0 panic: IPC 0.0018687 < 0.01
Simulation CPU 0 warning: IPC 0.028828 < 0.05
Simulation CPU 0 panic: IPC 0.0048377 < 0.01
Simulation CPU 0 panic: IPC 0.0062376 < 0.01
Simulation CPU 0 panic: IPC 0.0024221 < 0.01
Simulation CPU 0 critical: IPC 0.019111 < 0.02
Simulation CPU 0 warning: IPC 0.039905 < 0.05
Simulation CPU 0 panic: IPC 0.0012222 < 0.01
Simulation CPU 0 panic: IPC 0.0023128 < 0.01
Simulation CPU 0 panic: IPC 0 < 0.01
Simulation CPU 0 panic: IPC 4.24e-05 < 0.01
Simulation CPU 0 panic: IPC 6.08e-05 < 0.01
Simulation CPU 0 warning: IPC 0.024836 < 0.05
Simulation CPU 0 panic: IPC 0.003113 < 0.01
Simulation CPU 0 warning: IPC 0.02545 < 0.05
Simulation CPU 0 warning: IPC 0.029293 < 0.05
Simulation CPU 0 warning: IPC 0.038297 < 0.05
Simulation CPU 0 panic: IPC 0.0062214 < 0.01
Simulation CPU 0 warning: IPC 0.044042 < 0.05
Simulation CPU 0 warning: IPC 0.029271 < 0.05
Simulation CPU 0 warning: IPC 0.029672 < 0.05
Simulation CPU 0 warning: IPC 0.04799 < 0.05
Simulation CPU 0 panic: IPC 0.0003584 < 0.01
Simulation CPU 0 warning: IPC 0.023593 < 0.05
Simulation CPU 0 warning: IPC 0.045664 < 0.05
Simulation CPU 0 panic: IPC 0.0052251 < 0.01
Simulation CPU 0 warning: IPC 0.021098 < 0.05
Simulation CPU 0 warning: IPC 0.020482 < 0.05
Simulation CPU 0 warning: IPC 0.020314 < 0.05
Simulation CPU 0 warning: IPC 0.038858 < 0.05
Simulation CPU 0 critical: IPC 0.011082 < 0.02
Simulation CPU 0 warning: IPC 0.047888 < 0.05
Simulation CPU 0 critical: IPC 0.016456 < 0.02
Simulation CPU 0 panic: IPC 0.003104 < 0.01
Simulation CPU 0 panic: IPC 0.0093379 < 0.01
Simulation CPU 0 critical: IPC 0.015509 < 0.02
Simulation CPU 0 panic: IPC 0.0093226 < 0.01
Simulation CPU 0 panic: IPC 0.0030953 < 0.01
Simulation CPU 0 warning: IPC 0.024829 < 0.05
Heartbeat CPU 0 instructions: 80000016 cycles: 3306090957 heartbeat IPC: 0.01957 cumulative IPC: 0.0242 (Simulation time: 04 hr 15 min 12 sec)
Simulation CPU 0 critical: IPC 0.019239 < 0.02
Simulation CPU 0 critical: IPC 0.018027 < 0.02
Simulation CPU 0 critical: IPC 0.01551 < 0.02
Simulation CPU 0 panic: IPC 0.0062118 < 0.01
Simulation CPU 0 warning: IPC 0.034449 < 0.05
Simulation CPU 0 warning: IPC 0.024476 < 0.05
Simulation CPU 0 warning: IPC 0.021707 < 0.05
Simulation CPU 0 panic: IPC 0.0031162 < 0.01
Simulation CPU 0 warning: IPC 0.031003 < 0.05
Simulation CPU 0 critical: IPC 0.015517 < 0.02
Simulation CPU 0 critical: IPC 0.011644 < 0.02
Simulation CPU 0 critical: IPC 0.019609 < 0.02
Simulation CPU 0 panic: IPC 0.0093115 < 0.01
Simulation CPU 0 critical: IPC 0.015503 < 0.02
Simulation CPU 0 panic: IPC 7.2e-06 < 0.01
Simulation CPU 0 panic: IPC 0.0030999 < 0.01
Simulation CPU 0 critical: IPC 0.014887 < 0.02
Simulation CPU 0 critical: IPC 0.014667 < 0.02
Simulation CPU 0 warning: IPC 0.035802 < 0.05
Simulation CPU 0 warning: IPC 0.045494 < 0.05
Simulation CPU 0 warning: IPC 0.029513 < 0.05
Simulation CPU 0 warning: IPC 0.029475 < 0.05
Simulation CPU 0 warning: IPC 0.049273 < 0.05
Simulation CPU 0 warning: IPC 0.03064 < 0.05
Heartbeat CPU 0 instructions: 90000018 cycles: 3613704772 heartbeat IPC: 0.03251 cumulative IPC: 0.02491 (Simulation time: 04 hr 40 min 25 sec)
Simulation CPU 0 warning: IPC 0.044167 < 0.05
Simulation CPU 0 critical: IPC 0.015484 < 0.02
Simulation CPU 0 warning: IPC 0.039333 < 0.05
Simulation CPU 0 panic: IPC 0.0015448 < 0.01
Simulation CPU 0 panic: IPC 0.0078785 < 0.01
Simulation CPU 0 panic: IPC 0.0031066 < 0.01
Simulation CPU 0 panic: IPC 0.000472 < 0.01
Simulation CPU 0 warning: IPC 0.049164 < 0.05
Simulation CPU 0 warning: IPC 0.024824 < 0.05
Simulation CPU 0 critical: IPC 0.01241 < 0.02
Simulation CPU 0 panic: IPC 0.0093118 < 0.01
Simulation CPU 0 warning: IPC 0.02434 < 0.05
Simulation CPU 0 panic: IPC 0.0097679 < 0.01
Simulation CPU 0 warning: IPC 0.029657 < 0.05
Simulation CPU 0 warning: IPC 0.029296 < 0.05
Heartbeat CPU 0 instructions: 100000020 cycles: 3842780096 heartbeat IPC: 0.04365 cumulative IPC: 0.02602 (Simulation time: 04 hr 59 min 13 sec)
Simulation CPU 0 critical: IPC 0.017163 < 0.02
Simulation CPU 0 warning: IPC 0.021101 < 0.05
Simulation CPU 0 panic: IPC 0.0099377 < 0.01
Simulation CPU 0 panic: IPC 0.009306 < 0.01
Simulation CPU 0 warning: IPC 0.037221 < 0.05
Simulation CPU 0 warning: IPC 0.027908 < 0.05
Simulation CPU 0 warning: IPC 0.033023 < 0.05
Simulation CPU 0 warning: IPC 0.025897 < 0.05
Simulation CPU 0 panic: IPC 0.0030953 < 0.01
Simulation CPU 0 critical: IPC 0.01553 < 0.02
Simulation CPU 0 critical: IPC 0.012412 < 0.02
Simulation CPU 0 panic: IPC 0.0047915 < 0.01
Simulation CPU 0 critical: IPC 0.015982 < 0.02
Simulation CPU 0 warning: IPC 0.029364 < 0.05
Simulation CPU 0 warning: IPC 0.029617 < 0.05
Simulation CPU 0 warning: IPC 0.029309 < 0.05
Simulation CPU 0 warning: IPC 0.027771 < 0.05
Simulation CPU 0 panic: IPC 0.0001359 < 0.01
Simulation CPU 0 panic: IPC 0.000472 < 0.01
Simulation CPU 0 panic: IPC 0.0026305 < 0.01
Simulation CPU 0 panic: IPC 0.0062024 < 0.01
Simulation CPU 0 warning: IPC 0.020108 < 0.05
Simulation CPU 0 panic: IPC 0.0016255 < 0.01
Simulation CPU 0 panic: IPC 0.0062184 < 0.01
Simulation CPU 0 critical: IPC 0.012414 < 0.02
Simulation CPU 0 warning: IPC 0.027767 < 0.05
Simulation CPU 0 critical: IPC 0.018799 < 0.02
Simulation CPU 0 panic: IPC 0.0062032 < 0.01
Simulation CPU 0 panic: IPC 0.0031018 < 0.01
Simulation CPU 0 panic: IPC 0.0062335 < 0.01
Simulation CPU 0 warning: IPC 0.032549 < 0.05
Simulation CPU 0 panic: IPC 0.0093185 < 0.01
Simulation CPU 0 panic: IPC 0.0062274 < 0.01
Heartbeat CPU 0 instructions: 110000020 cycles: 4256643556 heartbeat IPC: 0.02416 cumulative IPC: 0.02584 (Simulation time: 05 hr 33 min 05 sec)
Simulation CPU 0 warning: IPC 0.027736 < 0.05
Simulation CPU 0 warning: IPC 0.029631 < 0.05
Simulation CPU 0 warning: IPC 0.042779 < 0.05
Simulation CPU 0 critical: IPC 0.018666 < 0.02
Simulation CPU 0 warning: IPC 0.021714 < 0.05
Simulation CPU 0 warning: IPC 0.034818 < 0.05
Simulation CPU 0 warning: IPC 0.029271 < 0.05
Simulation CPU 0 warning: IPC 0.028989 < 0.05
Simulation CPU 0 warning: IPC 0.029971 < 0.05
Simulation CPU 0 warning: IPC 0.029653 < 0.05
Simulation CPU 0 warning: IPC 0.027254 < 0.05
Simulation CPU 0 panic: IPC 0.0031061 < 0.01
Simulation CPU 0 warning: IPC 0.027917 < 0.05
Simulation CPU 0 warning: IPC 0.027928 < 0.05
Simulation CPU 0 warning: IPC 0.02941 < 0.05
Simulation CPU 0 panic: IPC 0.0015956 < 0.01
Simulation CPU 0 warning: IPC 0.040336 < 0.05
Simulation CPU 0 panic: IPC 0.0031022 < 0.01
Simulation CPU 0 warning: IPC 0.034124 < 0.05
Simulation CPU 0 warning: IPC 0.033681 < 0.05
Simulation CPU 0 warning: IPC 0.03104 < 0.05
Simulation CPU 0 panic: IPC 0.009315 < 0.01
Simulation CPU 0 panic: IPC 0.0030953 < 0.01
Simulation CPU 0 critical: IPC 0.012429 < 0.02
Simulation CPU 0 panic: IPC 0.000472 < 0.01
Simulation CPU 0 panic: IPC 0.0026337 < 0.01
Simulation CPU 0 panic: IPC 0.0062042 < 0.01
Simulation CPU 0 panic: IPC 0.0031006 < 0.01
Simulation CPU 0 critical: IPC 0.019854 < 0.02
Simulation CPU 0 warning: IPC 0.03287 < 0.05
Simulation CPU 0 critical: IPC 0.01552 < 0.02
Simulation CPU 0 warning: IPC 0.021712 < 0.05
Simulation CPU 0 panic: IPC 0.0031102 < 0.01
Simulation CPU 0 panic: IPC 0.0031226 < 0.01
Simulation CPU 0 critical: IPC 0.0124 < 0.02
[ERROR_CYCLE] Error added at CPU cycle 4648416150, interval 1, pending count: 1
Simulation CPU 0 warning: IPC 0.040328 < 0.05
[DRAM_CYCLE_ERROR] Cycle-based error applied! address=0x420762470 additional_latency=2459910500 cycles
Simulation CPU 0 panic: IPC 0 < 0.01
Simulation CPU 0 panic: IPC 0.0031012 < 0.01
Heartbeat CPU 0 instructions: 120000024 cycles: 4671102129 heartbeat IPC: 0.02413 cumulative IPC: 0.02569 (Simulation time: 06 hr 05 min 55 sec)
Simulation CPU 0 warning: IPC 0.031003 < 0.05
Simulation CPU 0 warning: IPC 0.021715 < 0.05
Simulation CPU 0 warning: IPC 0.021711 < 0.05
Simulation CPU 0 critical: IPC 0.012397 < 0.02
Simulation CPU 0 warning: IPC 0.024816 < 0.05
Simulation CPU 0 warning: IPC 0.027167 < 0.05
Simulation CPU 0 warning: IPC 0.029816 < 0.05
Simulation CPU 0 warning: IPC 0.037823 < 0.05
Simulation CPU 0 warning: IPC 0.026159 < 0.05
Simulation CPU 0 warning: IPC 0.024052 < 0.05
Simulation CPU 0 warning: IPC 0.032923 < 0.05
Simulation CPU 0 warning: IPC 0.025996 < 0.05
Simulation CPU 0 panic: IPC 0.0061998 < 0.01
Simulation CPU 0 warning: IPC 0.043409 < 0.05
Simulation CPU 0 critical: IPC 0.015508 < 0.02
Simulation CPU 0 critical: IPC 0.012404 < 0.02
Simulation CPU 0 panic: IPC 0.0031006 < 0.01
Simulation CPU 0 warning: IPC 0.027915 < 0.05
Simulation CPU 0 critical: IPC 0.018163 < 0.02
Simulation CPU 0 critical: IPC 0.012836 < 0.02
Simulation CPU 0 warning: IPC 0.040332 < 0.05
Simulation CPU 0 panic: IPC 0.0031058 < 0.01
Simulation CPU 0 warning: IPC 0.031006 < 0.05
Simulation CPU 0 warning: IPC 0.032863 < 0.05
Simulation CPU 0 critical: IPC 0.015512 < 0.02
Simulation CPU 0 warning: IPC 0.034125 < 0.05
Simulation CPU 0 critical: IPC 0.015505 < 0.02
Simulation CPU 0 panic: IPC 0.0062091 < 0.01
Simulation CPU 0 panic: IPC 0.0035924 < 0.01
Simulation CPU 0 panic: IPC 0.0026332 < 0.01
Simulation CPU 0 warning: IPC 0.027907 < 0.05
Simulation CPU 0 warning: IPC 0.021717 < 0.05
Simulation CPU 0 critical: IPC 0.012402 < 0.02
Simulation CPU 0 critical: IPC 0.01855 < 0.02
Simulation CPU 0 critical: IPC 0.012459 < 0.02
Simulation CPU 0 panic: IPC 0.0062102 < 0.01
Simulation CPU 0 critical: IPC 0.012402 < 0.02
Simulation CPU 0 critical: IPC 0.018601 < 0.02
Simulation CPU 0 panic: IPC 2.22e-05 < 0.01
Simulation CPU 0 warning: IPC 0.044861 < 0.05
Heartbeat CPU 0 instructions: 130000024 cycles: 5094200591 heartbeat IPC: 0.02364 cumulative IPC: 0.02552 (Simulation time: 06 hr 35 min 50 sec)
Simulation CPU 0 warning: IPC 0.024808 < 0.05
Simulation CPU 0 warning: IPC 0.021711 < 0.05
Simulation CPU 0 warning: IPC 0.036501 < 0.05
Simulation CPU 0 warning: IPC 0.029224 < 0.05
Simulation CPU 0 warning: IPC 0.029692 < 0.05
Simulation CPU 0 warning: IPC 0.029227 < 0.05
Simulation CPU 0 warning: IPC 0.029837 < 0.05
Simulation CPU 0 warning: IPC 0.020028 < 0.05
Simulation CPU 0 panic: IPC 1.8e-05 < 0.01
Simulation CPU 0 panic: IPC 0.0062084 < 0.01
Simulation CPU 0 panic: IPC 0.0096442 < 0.01
Simulation CPU 0 critical: IPC 0.017865 < 0.02
Simulation CPU 0 warning: IPC 0.029304 < 0.05
Simulation CPU 0 warning: IPC 0.046515 < 0.05
Simulation CPU 0 panic: IPC 0.0031112 < 0.01
Simulation CPU 0 warning: IPC 0.038429 < 0.05
Heartbeat CPU 0 instructions: 140000027 cycles: 5332512880 heartbeat IPC: 0.04196 cumulative IPC: 0.02625 (Simulation time: 06 hr 54 min 11 sec)
Simulation CPU 0 warning: IPC 0.043766 < 0.05
Simulation CPU 0 critical: IPC 0.012422 < 0.02
Simulation CPU 0 panic: IPC 0.003115 < 0.01
Simulation CPU 0 warning: IPC 0.027918 < 0.05
Simulation CPU 0 critical: IPC 0.017531 < 0.02
Simulation CPU 0 critical: IPC 0.013859 < 0.02
Simulation CPU 0 critical: IPC 0.015247 < 0.02
Simulation CPU 0 warning: IPC 0.0316 < 0.05
Simulation CPU 0 warning: IPC 0.038104 < 0.05
Simulation CPU 0 warning: IPC 0.039079 < 0.05
Heartbeat CPU 0 instructions: 150000029 cycles: 5543114925 heartbeat IPC: 0.04748 cumulative IPC: 0.02706 (Simulation time: 07 hr 12 min 07 sec)
Simulation CPU 0 panic: IPC 0.0046596 < 0.01
Simulation CPU 0 warning: IPC 0.035377 < 0.05
Simulation CPU 0 panic: IPC 0.001886 < 0.01
Simulation CPU 0 warning: IPC 0.037245 < 0.05
Simulation CPU 0 panic: IPC 0.0047864 < 0.01
Simulation CPU 0 critical: IPC 0.010732 < 0.02
Simulation CPU 0 panic: IPC 0.0062005 < 0.01
Simulation CPU 0 warning: IPC 0.031666 < 0.05
Simulation CPU 0 panic: IPC 0.0037618 < 0.01
Simulation CPU 0 warning: IPC 0.023191 < 0.05
Simulation CPU 0 panic: IPC 0.0001776 < 0.01
Simulation CPU 0 panic: IPC 7.6e-05 < 0.01
Simulation CPU 0 panic: IPC 9.12e-05 < 0.01
Simulation CPU 0 panic: IPC 8.8e-05 < 0.01
Simulation CPU 0 panic: IPC 0.0070581 < 0.01
Simulation CPU 0 panic: IPC 0.0082158 < 0.01
Simulation CPU 0 critical: IPC 0.015516 < 0.02
Simulation CPU 0 critical: IPC 0.012422 < 0.02
Simulation CPU 0 panic: IPC 0.0062005 < 0.01
Simulation CPU 0 panic: IPC 0.0031178 < 0.01
Simulation CPU 0 warning: IPC 0.041114 < 0.05
Simulation CPU 0 warning: IPC 0.029301 < 0.05
Simulation CPU 0 warning: IPC 0.046496 < 0.05
Simulation CPU 0 critical: IPC 0.01236 < 0.02
Simulation CPU 0 panic: IPC 0.0093168 < 0.01
Simulation CPU 0 critical: IPC 0.012403 < 0.02
Simulation CPU 0 warning: IPC 0.046508 < 0.05
Simulation CPU 0 warning: IPC 0.026223 < 0.05
Heartbeat CPU 0 instructions: 160000031 cycles: 5901533725 heartbeat IPC: 0.0279 cumulative IPC: 0.02711 (Simulation time: 07 hr 37 min 28 sec)
Simulation CPU 0 warning: IPC 0.021376 < 0.05
Simulation CPU 0 warning: IPC 0.024333 < 0.05
Simulation CPU 0 warning: IPC 0.037209 < 0.05
Simulation CPU 0 panic: IPC 0.0062005 < 0.01
Simulation CPU 0 warning: IPC 0.043413 < 0.05
Simulation CPU 0 panic: IPC 7.2e-05 < 0.01
Simulation CPU 0 critical: IPC 0.012125 < 0.02
Simulation CPU 0 critical: IPC 0.018609 < 0.02
Simulation CPU 0 critical: IPC 0.01109 < 0.02
Simulation CPU 0 warning: IPC 0.034133 < 0.05
Simulation CPU 0 warning: IPC 0.024823 < 0.05
Simulation CPU 0 critical: IPC 0.013086 < 0.02
Simulation CPU 0 critical: IPC 0.015506 < 0.02
Simulation CPU 0 warning: IPC 0.033606 < 0.05
Simulation CPU 0 critical: IPC 0.012934 < 0.02
Simulation CPU 0 panic: IPC 0.0062036 < 0.01
Simulation CPU 0 warning: IPC 0.049602 < 0.05
Simulation CPU 0 panic: IPC 0.0054266 < 0.01
Simulation CPU 0 warning: IPC 0.030006 < 0.05
Simulation CPU 0 warning: IPC 0.022714 < 0.05
Simulation CPU 0 warning: IPC 0.020408 < 0.05
Heartbeat CPU 0 instructions: 170000034 cycles: 6195275147 heartbeat IPC: 0.03404 cumulative IPC: 0.02744 (Simulation time: 08 hr 00 min 53 sec)
Simulation CPU 0 critical: IPC 0.01439 < 0.02
Simulation CPU 0 warning: IPC 0.046981 < 0.05
Simulation CPU 0 panic: IPC 0.008829 < 0.01
Simulation CPU 0 critical: IPC 0.013191 < 0.02
Simulation CPU 0 panic: IPC 0.0085148 < 0.01
Simulation CPU 0 warning: IPC 0.021745 < 0.05
Simulation CPU 0 critical: IPC 0.012358 < 0.02
Simulation CPU 0 panic: IPC 0.0093019 < 0.01
Simulation CPU 0 panic: IPC 0.0031014 < 0.01
Simulation CPU 0 critical: IPC 0.01244 < 0.02
Simulation CPU 0 panic: IPC 0.0093023 < 0.01
Simulation CPU 0 panic: IPC 0.0039242 < 0.01
Simulation CPU 0 warning: IPC 0.031004 < 0.05
Simulation CPU 0 critical: IPC 0.012398 < 0.02
Simulation CPU 0 panic: IPC 0.0093252 < 0.01
Simulation CPU 0 warning: IPC 0.040326 < 0.05
Simulation CPU 0 warning: IPC 0.023187 < 0.05
Simulation CPU 0 critical: IPC 0.017137 < 0.02
Simulation CPU 0 panic: IPC 0.0062122 < 0.01
Simulation CPU 0 warning: IPC 0.025978 < 0.05
Simulation CPU 0 critical: IPC 0.014341 < 0.02
Simulation CPU 0 critical: IPC 0.012879 < 0.02
Simulation CPU 0 warning: IPC 0.042943 < 0.05
Simulation CPU 0 critical: IPC 0.012407 < 0.02
Simulation CPU 0 warning: IPC 0.02269 < 0.05
Simulation CPU 0 panic: IPC 0.0031042 < 0.01
Simulation CPU 0 critical: IPC 0.012418 < 0.02
Heartbeat CPU 0 instructions: 180000036 cycles: 6544421489 heartbeat IPC: 0.02864 cumulative IPC: 0.0275 (Simulation time: 08 hr 26 min 42 sec)
Simulation CPU 0 warning: IPC 0.020462 < 0.05
Simulation CPU 0 critical: IPC 0.015522 < 0.02
Simulation CPU 0 warning: IPC 0.043406 < 0.05
Simulation CPU 0 warning: IPC 0.021745 < 0.05
Simulation CPU 0 warning: IPC 0.032056 < 0.05
Simulation CPU 0 warning: IPC 0.036727 < 0.05
Simulation CPU 0 panic: IPC 0.0092923 < 0.01
Simulation CPU 0 critical: IPC 0.012168 < 0.02
Simulation CPU 0 critical: IPC 0.015751 < 0.02
Simulation CPU 0 warning: IPC 0.034107 < 0.05
Simulation CPU 0 warning: IPC 0.03556 < 0.05
Simulation CPU 0 panic: IPC 0.006978 < 0.01
Simulation CPU 0 warning: IPC 0.025705 < 0.05
Simulation CPU 0 warning: IPC 0.031024 < 0.05
Simulation CPU 0 panic: IPC 0.0031006 < 0.01
Simulation CPU 0 warning: IPC 0.048184 < 0.05
Simulation CPU 0 critical: IPC 0.016987 < 0.02
Simulation CPU 0 warning: IPC 0.027915 < 0.05
Simulation CPU 0 warning: IPC 0.021723 < 0.05
Simulation CPU 0 warning: IPC 0.023849 < 0.05
Simulation CPU 0 panic: IPC 0.0062432 < 0.01
Simulation CPU 0 panic: IPC 0.0031058 < 0.01
Simulation CPU 0 panic: IPC 0.000472 < 0.01
Simulation CPU 0 warning: IPC 0.021234 < 0.05
Simulation CPU 0 critical: IPC 0.012413 < 0.02
Simulation CPU 0 critical: IPC 0.012408 < 0.02
Simulation CPU 0 critical: IPC 0.012414 < 0.02
Simulation CPU 0 panic: IPC 0.003106 < 0.01
Simulation CPU 0 panic: IPC 0.0062046 < 0.01
Simulation CPU 0 panic: IPC 0.0093342 < 0.01
Simulation CPU 0 critical: IPC 0.018628 < 0.02
Simulation CPU 0 panic: IPC 0.0028522 < 0.01
Simulation CPU 0 panic: IPC 1.76e-05 < 0.01
Simulation CPU 0 panic: IPC 3.44e-05 < 0.01
Simulation CPU 0 panic: IPC 8e-06 < 0.01
Simulation CPU 0 panic: IPC 8.8e-06 < 0.01
Simulation CPU 0 panic: IPC 1.6e-05 < 0.01
Simulation CPU 0 panic: IPC 1.6e-06 < 0.01
Simulation CPU 0 panic: IPC 8.8e-06 < 0.01
Simulation CPU 0 panic: IPC 1.76e-05 < 0.01
Simulation CPU 0 panic: IPC 1.6e-06 < 0.01
Simulation CPU 0 panic: IPC 8.8e-06 < 0.01
Simulation CPU 0 panic: IPC 8e-06 < 0.01
Simulation CPU 0 panic: IPC 5.6e-05 < 0.01
Simulation CPU 0 panic: IPC 1.6e-05 < 0.01
Simulation CPU 0 panic: IPC 1.6e-06 < 0.01
Simulation CPU 0 panic: IPC 1.04e-05 < 0.01
Simulation CPU 0 panic: IPC 1.84e-05 < 0.01
Simulation CPU 0 panic: IPC 0.0062424 < 0.01
Simulation CPU 0 warning: IPC 0.021714 < 0.05
Heartbeat CPU 0 instructions: 190000039 cycles: 7096875626 heartbeat IPC: 0.0181 cumulative IPC: 0.02677 (Simulation time: 09 hr 10 min 57 sec)
Simulation CPU 0 critical: IPC 0.010883 < 0.02
Simulation CPU 0 warning: IPC 0.037186 < 0.05
Simulation CPU 0 warning: IPC 0.048948 < 0.05
Simulation CPU 0 warning: IPC 0.022173 < 0.05
Simulation CPU 0 panic: IPC 0.0062151 < 0.01
Simulation CPU 0 panic: IPC 0.0031012 < 0.01
Simulation CPU 0 critical: IPC 0.0186 < 0.02
Simulation CPU 0 warning: IPC 0.032853 < 0.05
Simulation CPU 0 warning: IPC 0.049316 < 0.05
Simulation CPU 0 critical: IPC 0.010886 < 0.02
Simulation CPU 0 warning: IPC 0.043639 < 0.05
Simulation CPU 0 warning: IPC 0.02171 < 0.05
Simulation CPU 0 warning: IPC 0.031028 < 0.05
Heartbeat CPU 0 instructions: 200000040 cycles: 7316721451 heartbeat IPC: 0.04549 cumulative IPC: 0.02733 (Simulation time: 09 hr 28 min 05 sec)
Simulation CPU 0 critical: IPC 0.013999 < 0.02
Simulation CPU 0 panic: IPC 0.0062028 < 0.01
Simulation CPU 0 warning: IPC 0.024822 < 0.05
Simulation CPU 0 critical: IPC 0.012403 < 0.02
Simulation CPU 0 warning: IPC 0.037224 < 0.05
Simulation CPU 0 critical: IPC 0.016398 < 0.02
Simulation CPU 0 warning: IPC 0.045658 < 0.05
Simulation CPU 0 panic: IPC 0.0062005 < 0.01
Simulation CPU 0 critical: IPC 0.012413 < 0.02
Simulation CPU 0 panic: IPC 0.0031006 < 0.01
Simulation CPU 0 critical: IPC 0.018607 < 0.02
Simulation CPU 0 warning: IPC 0.027901 < 0.05
Simulation CPU 0 panic: IPC 0.0079078 < 0.01
Simulation CPU 0 critical: IPC 0.019532 < 0.02
Simulation CPU 0 warning: IPC 0.034121 < 0.05
Simulation CPU 0 warning: IPC 0.021734 < 0.05
Simulation CPU 0 panic: IPC 0.0062449 < 0.01
Simulation CPU 0 warning: IPC 0.040363 < 0.05
Simulation CPU 0 warning: IPC 0.030228 < 0.05
Simulation CPU 0 warning: IPC 0.024807 < 0.05
Simulation CPU 0 warning: IPC 0.041678 < 0.05
Simulation CPU 0 warning: IPC 0.029597 < 0.05
Heartbeat CPU 0 instructions: 210000042 cycles: 7610447730 heartbeat IPC: 0.03405 cumulative IPC: 0.02759 (Simulation time: 09 hr 53 min 32 sec)
Simulation CPU 0 warning: IPC 0.038294 < 0.05
Simulation CPU 0 warning: IPC 0.02102 < 0.05
Simulation CPU 0 warning: IPC 0.031015 < 0.05
Simulation CPU 0 warning: IPC 0.027771 < 0.05
Simulation CPU 0 warning: IPC 0.037359 < 0.05
Simulation CPU 0 warning: IPC 0.027927 < 0.05
Simulation CPU 0 warning: IPC 0.029891 < 0.05
Simulation CPU 0 warning: IPC 0.038322 < 0.05
Simulation CPU 0 panic: IPC 0.0031024 < 0.01
Simulation CPU 0 warning: IPC 0.024819 < 0.05
Simulation CPU 0 panic: IPC 0.0062096 < 0.01
Simulation CPU 0 warning: IPC 0.03103 < 0.05
Simulation CPU 0 panic: IPC 0.0093087 < 0.01
Simulation CPU 0 critical: IPC 0.012407 < 0.02
Simulation CPU 0 warning: IPC 0.024806 < 0.05
Simulation CPU 0 critical: IPC 0.012416 < 0.02
Simulation CPU 0 panic: IPC 0.0062303 < 0.01
Simulation CPU 0 panic: IPC 0.000472 < 0.01
Simulation CPU 0 panic: IPC 0.0088333 < 0.01
Simulation CPU 0 warning: IPC 0.037207 < 0.05
Simulation CPU 0 panic: IPC 0.005695 < 0.01
Simulation CPU 0 panic: IPC 0.0036147 < 0.01
Simulation CPU 0 panic: IPC 0.0030744 < 0.01
Simulation CPU 0 warning: IPC 0.021711 < 0.05
Simulation CPU 0 warning: IPC 0.024807 < 0.05
Simulation CPU 0 warning: IPC 0.033071 < 0.05
Simulation CPU 0 panic: IPC 0.0072431 < 0.01
Simulation CPU 0 warning: IPC 0.049637 < 0.05
Simulation CPU 0 panic: IPC 0.0031006 < 0.01
Simulation CPU 0 warning: IPC 0.046519 < 0.05
Simulation CPU 0 warning: IPC 0.020039 < 0.05
Simulation CPU 0 warning: IPC 0.03578 < 0.05
Simulation CPU 0 warning: IPC 0.032173 < 0.05
Simulation CPU 0 panic: IPC 0.0019584 < 0.01
Heartbeat CPU 0 instructions: 220000045 cycles: 8005830726 heartbeat IPC: 0.02529 cumulative IPC: 0.02748 (Simulation time: 10 hr 25 min 39 sec)
Simulation CPU 0 warning: IPC 0.040317 < 0.05
Simulation CPU 0 critical: IPC 0.015509 < 0.02
Simulation CPU 0 warning: IPC 0.021716 < 0.05
Simulation CPU 0 panic: IPC 0.0062024 < 0.01
Simulation CPU 0 warning: IPC 0.046521 < 0.05
Simulation CPU 0 critical: IPC 0.018612 < 0.02
Simulation CPU 0 panic: IPC 0.0093055 < 0.01
Simulation CPU 0 warning: IPC 0.02481 < 0.05
Simulation CPU 0 warning: IPC 0.034115 < 0.05
Simulation CPU 0 panic: IPC 0.0071916 < 0.01
Simulation CPU 0 critical: IPC 0.014521 < 0.02
Simulation CPU 0 critical: IPC 0.01241 < 0.02
Simulation CPU 0 panic: IPC 0.0093049 < 0.01
Simulation CPU 0 warning: IPC 0.049609 < 0.05
Simulation CPU 0 warning: IPC 0.029949 < 0.05
Simulation CPU 0 critical: IPC 0.019662 < 0.02
Simulation CPU 0 warning: IPC 0.048249 < 0.05
Simulation CPU 0 panic: IPC 0.0013614 < 0.01
Simulation CPU 0 panic: IPC 0.0062116 < 0.01
Simulation CPU 0 panic: IPC 0.0017374 < 0.01
Simulation CPU 0 panic: IPC 0.0031024 < 0.01
Simulation CPU 0 warning: IPC 0.025456 < 0.05
Simulation CPU 0 warning: IPC 0.021056 < 0.05
Simulation CPU 0 warning: IPC 0.031012 < 0.05
Simulation CPU 0 critical: IPC 0.018577 < 0.02
Simulation CPU 0 critical: IPC 0.012403 < 0.02
Simulation CPU 0 warning: IPC 0.02424 < 0.05
Simulation CPU 0 warning: IPC 0.030214 < 0.05
Simulation CPU 0 critical: IPC 0.016313 < 0.02
Simulation CPU 0 warning: IPC 0.046509 < 0.05
Simulation CPU 0 critical: IPC 0.01446 < 0.02
Heartbeat CPU 0 instructions: 230000046 cycles: 8364234375 heartbeat IPC: 0.0279 cumulative IPC: 0.0275 (Simulation time: 10 hr 52 min 05 sec)
Simulation CPU 0 panic: IPC 0.00449 < 0.01
Simulation CPU 0 warning: IPC 0.029627 < 0.05
Simulation CPU 0 critical: IPC 0.019539 < 0.02
Simulation CPU 0 panic: IPC 1.84e-05 < 0.01
Simulation CPU 0 panic: IPC 3.36e-05 < 0.01
Simulation CPU 0 panic: IPC 1.92e-05 < 0.01
Simulation CPU 0 panic: IPC 9.84e-05 < 0.01
Simulation CPU 0 warning: IPC 0.024758 < 0.05
Simulation CPU 0 critical: IPC 0.011352 < 0.02
Simulation CPU 0 panic: IPC 0.0062084 < 0.01
Simulation CPU 0 warning: IPC 0.027942 < 0.05
Simulation CPU 0 warning: IPC 0.025469 < 0.05
Simulation CPU 0 critical: IPC 0.011708 < 0.02
Simulation CPU 0 warning: IPC 0.037204 < 0.05
Simulation CPU 0 panic: IPC 0.0055238 < 0.01
Simulation CPU 0 warning: IPC 0.040978 < 0.05
Simulation CPU 0 panic: IPC 0.0092978 < 0.01
Simulation CPU 0 warning: IPC 0.043417 < 0.05
Simulation CPU 0 critical: IPC 0.014659 < 0.02
Simulation CPU 0 critical: IPC 0.010479 < 0.02
Simulation CPU 0 panic: IPC 0.0062035 < 0.01
Simulation CPU 0 warning: IPC 0.049612 < 0.05
Simulation CPU 0 panic: IPC 0.0066738 < 0.01
Simulation CPU 0 panic: IPC 0.0088321 < 0.01
Simulation CPU 0 warning: IPC 0.024806 < 0.05
Simulation CPU 0 warning: IPC 0.044669 < 0.05
Simulation CPU 0 warning: IPC 0.048352 < 0.05
Simulation CPU 0 critical: IPC 0.012416 < 0.02
Simulation CPU 0 panic: IPC 0.0041046 < 0.01
Simulation CPU 0 warning: IPC 0.025281 < 0.05
Heartbeat CPU 0 instructions: 240000047 cycles: 8722671197 heartbeat IPC: 0.0279 cumulative IPC: 0.02751 (Simulation time: 11 hr 21 min 38 sec)
Simulation CPU 0 warning: IPC 0.025131 < 0.05
Simulation CPU 0 warning: IPC 0.037201 < 0.05
Simulation CPU 0 panic: IPC 0.0054607 < 0.01
Simulation CPU 0 warning: IPC 0.031004 < 0.05
Simulation CPU 0 critical: IPC 0.015507 < 0.02
Simulation CPU 0 warning: IPC 0.032864 < 0.05
Simulation CPU 0 warning: IPC 0.035344 < 0.05
Simulation CPU 0 warning: IPC 0.046509 < 0.05
Simulation CPU 0 warning: IPC 0.031009 < 0.05
Simulation CPU 0 warning: IPC 0.030065 < 0.05
Simulation CPU 0 critical: IPC 0.01955 < 0.02
Simulation CPU 0 warning: IPC 0.026013 < 0.05
Simulation CPU 0 critical: IPC 0.014593 < 0.02
Simulation CPU 0 warning: IPC 0.040309 < 0.05
Simulation CPU 0 warning: IPC 0.024827 < 0.05
Simulation CPU 0 panic: IPC 0.006203 < 0.01
Simulation CPU 0 warning: IPC 0.046264 < 0.05
Simulation CPU 0 warning: IPC 0.021967 < 0.05
Simulation CPU 0 warning: IPC 0.031003 < 0.05
Simulation CPU 0 critical: IPC 0.018623 < 0.02
Simulation CPU 0 critical: IPC 0.012405 < 0.02
Simulation CPU 0 warning: IPC 0.024798 < 0.05
Simulation CPU 0 warning: IPC 0.030136 < 0.05
Simulation CPU 0 panic: IPC 0.0070677 < 0.01
Simulation CPU 0 critical: IPC 0.011209 < 0.02
Simulation CPU 0 warning: IPC 0.041502 < 0.05
Simulation CPU 0 warning: IPC 0.032585 < 0.05
Heartbeat CPU 0 instructions: 250000047 cycles: 9034885425 heartbeat IPC: 0.03203 cumulative IPC: 0.02767 (Simulation time: 11 hr 45 min 02 sec)
Simulation CPU 0 panic: IPC 0.004311 < 0.01
Simulation CPU 0 warning: IPC 0.026698 < 0.05
Simulation CPU 0 critical: IPC 0.013317 < 0.02
Simulation CPU 0 panic: IPC 0.006206 < 0.01
Simulation CPU 0 warning: IPC 0.031326 < 0.05
Simulation CPU 0 critical: IPC 0.018605 < 0.02
Simulation CPU 0 panic: IPC 0 < 0.01
Simulation CPU 0 warning: IPC 0.026668 < 0.05
Simulation CPU 0 panic: IPC 0.0074451 < 0.01
Simulation CPU 0 panic: IPC 0.0080812 < 0.01
Simulation CPU 0 warning: IPC 0.032242 < 0.05
Simulation CPU 0 warning: IPC 0.027032 < 0.05
Simulation CPU 0 critical: IPC 0.013277 < 0.02
Simulation CPU 0 critical: IPC 0.012358 < 0.02
Simulation CPU 0 warning: IPC 0.037266 < 0.05
Simulation CPU 0 panic: IPC 0.0081045 < 0.01
Simulation CPU 0 warning: IPC 0.041818 < 0.05
Simulation CPU 0 warning: IPC 0.021708 < 0.05
Simulation CPU 0 critical: IPC 0.012406 < 0.02
Simulation CPU 0 warning: IPC 0.029694 < 0.05
[ERROR_CYCLE] Error added at CPU cycle 9296832298, interval 2, pending count: 1
[DRAM_CYCLE_ERROR] Cycle-based error applied! address=0x610bf648 additional_latency=2459910500 cycles
Simulation CPU 0 panic: IPC 0.0022132 < 0.01
Simulation CPU 0 warning: IPC 0.031014 < 0.05
Simulation CPU 0 warning: IPC 0.024551 < 0.05
Simulation CPU 0 warning: IPC 0.031277 < 0.05
Simulation CPU 0 warning: IPC 0.027174 < 0.05
Simulation CPU 0 warning: IPC 0.037107 < 0.05
Simulation CPU 0 warning: IPC 0.029454 < 0.05
Simulation CPU 0 panic: IPC 0.0023968 < 0.01
Simulation CPU 0 panic: IPC 0.0084298 < 0.01
Heartbeat CPU 0 instructions: 260000051 cycles: 9389311973 heartbeat IPC: 0.02821 cumulative IPC: 0.02769 (Simulation time: 12 hr 12 min 59 sec)
Simulation CPU 0 critical: IPC 0.012405 < 0.02
Simulation CPU 0 warning: IPC 0.021706 < 0.05
Simulation CPU 0 critical: IPC 0.015516 < 0.02
Simulation CPU 0 warning: IPC 0.027916 < 0.05
Simulation CPU 0 warning: IPC 0.02171 < 0.05
Simulation CPU 0 warning: IPC 0.032315 < 0.05
Simulation CPU 0 critical: IPC 0.011111 < 0.02
Simulation CPU 0 critical: IPC 0.017601 < 0.02
Simulation CPU 0 warning: IPC 0.028514 < 0.05
Simulation CPU 0 panic: IPC 0.0086437 < 0.01
Simulation CPU 0 critical: IPC 0.018656 < 0.02
Simulation CPU 0 panic: IPC 0.0015792 < 0.01
Simulation CPU 0 warning: IPC 0.028092 < 0.05
Simulation CPU 0 critical: IPC 0.013081 < 0.02
Simulation CPU 0 warning: IPC 0.040326 < 0.05
Simulation CPU 0 critical: IPC 0.015504 < 0.02
Simulation CPU 0 warning: IPC 0.046515 < 0.05
Simulation CPU 0 warning: IPC 0.034121 < 0.05
Simulation CPU 0 warning: IPC 0.02791 < 0.05
Simulation CPU 0 panic: IPC 0.0031036 < 0.01
Simulation CPU 0 panic: IPC 0.0031006 < 0.01
Simulation CPU 0 panic: IPC 0.0072122 < 0.01
Simulation CPU 0 warning: IPC 0.020706 < 0.05
Simulation CPU 0 warning: IPC 0.043417 < 0.05
Simulation CPU 0 panic: IPC 0.008245 < 0.01
Simulation CPU 0 critical: IPC 0.013459 < 0.02
Simulation CPU 0 panic: IPC 0.006206 < 0.01
Simulation CPU 0 warning: IPC 0.048881 < 0.05
Simulation CPU 0 critical: IPC 0.013156 < 0.02
Simulation CPU 0 warning: IPC 0.049627 < 0.05
Heartbeat CPU 0 instructions: 270000051 cycles: 9747728923 heartbeat IPC: 0.0279 cumulative IPC: 0.0277 (Simulation time: 12 hr 40 min 44 sec)
Simulation CPU 0 warning: IPC 0.043412 < 0.05
Simulation CPU 0 warning: IPC 0.031003 < 0.05
Simulation CPU 0 warning: IPC 0.024805 < 0.05
Simulation CPU 0 warning: IPC 0.021702 < 0.05
Simulation CPU 0 critical: IPC 0.018609 < 0.02
Simulation CPU 0 critical: IPC 0.018602 < 0.02
Simulation CPU 0 warning: IPC 0.034122 < 0.05
Simulation CPU 0 warning: IPC 0.031906 < 0.05
Simulation CPU 0 warning: IPC 0.033213 < 0.05
Simulation CPU 0 warning: IPC 0.040531 < 0.05
Simulation CPU 0 warning: IPC 0.029175 < 0.05
Simulation CPU 0 warning: IPC 0.029725 < 0.05
Simulation CPU 0 warning: IPC 0.029244 < 0.05
Simulation CPU 0 warning: IPC 0.025573 < 0.05
Simulation CPU 0 warning: IPC 0.03334 < 0.05
Simulation CPU 0 warning: IPC 0.029728 < 0.05
Simulation CPU 0 warning: IPC 0.029216 < 0.05
Simulation CPU 0 warning: IPC 0.029862 < 0.05
Simulation CPU 0 warning: IPC 0.029096 < 0.05
Simulation CPU 0 warning: IPC 0.0298 < 0.05
Simulation CPU 0 warning: IPC 0.029133 < 0.05
Simulation CPU 0 warning: IPC 0.029786 < 0.05
Simulation CPU 0 panic: IPC 0.0043342 < 0.01
Simulation CPU 0 warning: IPC 0.029219 < 0.05
Simulation CPU 0 warning: IPC 0.029711 < 0.05
Simulation CPU 0 warning: IPC 0.04462 < 0.05
Simulation CPU 0 critical: IPC 0.012409 < 0.02
Heartbeat CPU 0 instructions: 280000052 cycles: 10059953985 heartbeat IPC: 0.03203 cumulative IPC: 0.02783 (Simulation time: 13 hr 05 min 31 sec)
Simulation CPU 0 panic: IPC 0.00764 < 0.01
Simulation CPU 0 warning: IPC 0.048176 < 0.05
Simulation CPU 0 critical: IPC 0.010936 < 0.02
Simulation CPU 0 warning: IPC 0.029364 < 0.05
Simulation CPU 0 warning: IPC 0.029611 < 0.05
Simulation CPU 0 critical: IPC 0.012402 < 0.02
Simulation CPU 0 critical: IPC 0.010544 < 0.02
Simulation CPU 0 panic: IPC 0.0093022 < 0.01
Simulation CPU 0 critical: IPC 0.016489 < 0.02
Simulation CPU 0 warning: IPC 0.039795 < 0.05
Simulation CPU 0 warning: IPC 0.046057 < 0.05
Simulation CPU 0 warning: IPC 0.036892 < 0.05
Simulation CPU 0 warning: IPC 0.037239 < 0.05
Simulation CPU 0 panic: IPC 0.0062005 < 0.01
Simulation CPU 0 panic: IPC 0.0031024 < 0.01
Simulation CPU 0 critical: IPC 0.018621 < 0.02
Simulation CPU 0 panic: IPC 0.0031006 < 0.01
Simulation CPU 0 panic: IPC 0.0031144 < 0.01
Simulation CPU 0 panic: IPC 0.0062078 < 0.01
Simulation CPU 0 critical: IPC 0.01465 < 0.02
Simulation CPU 0 warning: IPC 0.022769 < 0.05
Heartbeat CPU 0 instructions: 290000052 cycles: 10344452581 heartbeat IPC: 0.03515 cumulative IPC: 0.02803 (Simulation time: 13 hr 29 min 41 sec)
Simulation CPU 0 warning: IPC 0.027914 < 0.05
Simulation CPU 0 critical: IPC 0.017446 < 0.02
Simulation CPU 0 panic: IPC 0.0042734 < 0.01
Simulation CPU 0 warning: IPC 0.031002 < 0.05
Simulation CPU 0 warning: IPC 0.026294 < 0.05
Simulation CPU 0 warning: IPC 0.022178 < 0.05
Simulation CPU 0 critical: IPC 0.016244 < 0.02
Simulation CPU 0 warning: IPC 0.029799 < 0.05
Simulation CPU 0 warning: IPC 0.025777 < 0.05
Simulation CPU 0 panic: IPC 0.0058631 < 0.01
Simulation CPU 0 warning: IPC 0.028653 < 0.05
Simulation CPU 0 critical: IPC 0.018606 < 0.02
Simulation CPU 0 critical: IPC 0.013996 < 0.02
Simulation CPU 0 warning: IPC 0.026311 < 0.05
Simulation CPU 0 panic: IPC 0.0031006 < 0.01
Simulation CPU 0 critical: IPC 0.014273 < 0.02
Simulation CPU 0 panic: IPC 0.0077244 < 0.01
Simulation CPU 0 warning: IPC 0.045354 < 0.05
Simulation CPU 0 critical: IPC 0.015516 < 0.02
Simulation CPU 0 panic: IPC 0.0031174 < 0.01
Simulation CPU 0 panic: IPC 0.003103 < 0.01
Simulation CPU 0 warning: IPC 0.030238 < 0.05
Heartbeat CPU 0 instructions: 300000056 cycles: 10647444365 heartbeat IPC: 0.033 cumulative IPC: 0.02818 (Simulation time: 13 hr 56 min 05 sec)
Simulation CPU 0 critical: IPC 0.014491 < 0.02
Simulation CPU 0 warning: IPC 0.041331 < 0.05
Simulation CPU 0 panic: IPC 0.0031184 < 0.01
Simulation CPU 0 critical: IPC 0.015503 < 0.02
Simulation CPU 0 warning: IPC 0.020087 < 0.05
Simulation CPU 0 warning: IPC 0.045019 < 0.05
Simulation CPU 0 panic: IPC 0.003127 < 0.01
Simulation CPU 0 critical: IPC 0.015525 < 0.02
Simulation CPU 0 critical: IPC 0.012423 < 0.02
Simulation CPU 0 panic: IPC 0.0062198 < 0.01
Simulation CPU 0 critical: IPC 0.012417 < 0.02
Simulation CPU 0 warning: IPC 0.024822 < 0.05
Simulation CPU 0 critical: IPC 0.015517 < 0.02
Simulation CPU 0 panic: IPC 0.006206 < 0.01
Simulation CPU 0 warning: IPC 0.034133 < 0.05
Simulation CPU 0 warning: IPC 0.031048 < 0.05
Simulation CPU 0 warning: IPC 0.026883 < 0.05
Simulation CPU 0 critical: IPC 0.01659 < 0.02
Simulation CPU 0 critical: IPC 0.010731 < 0.02
Simulation CPU 0 warning: IPC 0.026823 < 0.05
Simulation CPU 0 warning: IPC 0.020916 < 0.05
Simulation CPU 0 warning: IPC 0.031055 < 0.05
Simulation CPU 0 critical: IPC 0.013199 < 0.02
Simulation CPU 0 critical: IPC 0.014719 < 0.02
Simulation CPU 0 panic: IPC 0.0051695 < 0.01
Heartbeat CPU 0 instructions: 310000056 cycles: 10968894009 heartbeat IPC: 0.03111 cumulative IPC: 0.02826 (Simulation time: 14 hr 20 min 13 sec)
Simulation CPU 0 warning: IPC 0.049652 < 0.05
Simulation CPU 0 critical: IPC 0.018615 < 0.02
Simulation CPU 0 panic: IPC 0.0031119 < 0.01
Simulation CPU 0 warning: IPC 0.031018 < 0.05
Simulation CPU 0 warning: IPC 0.02171 < 0.05
Simulation CPU 0 panic: IPC 0.0031012 < 0.01
Simulation CPU 0 warning: IPC 0.031021 < 0.05
Simulation CPU 0 panic: IPC 0.0093126 < 0.01
Simulation CPU 0 critical: IPC 0.015522 < 0.02
Simulation CPU 0 panic: IPC 0.0062171 < 0.01
Simulation CPU 0 critical: IPC 0.013218 < 0.02
Simulation CPU 0 warning: IPC 0.024842 < 0.05
Simulation CPU 0 critical: IPC 0.01857 < 0.02
Simulation CPU 0 critical: IPC 0.018114 < 0.02
Simulation CPU 0 panic: IPC 0.0005063 < 0.01
Simulation CPU 0 warning: IPC 0.0279 < 0.05
Simulation CPU 0 warning: IPC 0.042356 < 0.05
Simulation CPU 0 warning: IPC 0.025866 < 0.05
Simulation CPU 0 panic: IPC 1.78e-05 < 0.01
Simulation CPU 0 critical: IPC 0.015534 < 0.02
Simulation CPU 0 warning: IPC 0.040309 < 0.05
Simulation CPU 0 critical: IPC 0.012405 < 0.02
Simulation CPU 0 panic: IPC 0.0093035 < 0.01
Simulation CPU 0 warning: IPC 0.040325 < 0.05
Simulation CPU 0 critical: IPC 0.01343 < 0.02
Simulation CPU 0 warning: IPC 0.039282 < 0.05
Simulation CPU 0 critical: IPC 0.015503 < 0.02
Simulation CPU 0 panic: IPC 0.0099674 < 0.01
Simulation CPU 0 critical: IPC 0.015308 < 0.02
Simulation CPU 0 warning: IPC 0.026457 < 0.05
Simulation CPU 0 warning: IPC 0.035748 < 0.05
Simulation CPU 0 critical: IPC 0.017912 < 0.02
Simulation CPU 0 panic: IPC 0.0070531 < 0.01
Simulation CPU 0 warning: IPC 0.039089 < 0.05
Simulation CPU 0 warning: IPC 0.041541 < 0.05
Heartbeat CPU 0 instructions: 320000059 cycles: 11355012265 heartbeat IPC: 0.0259 cumulative IPC: 0.02818 (Simulation time: 14 hr 52 min 54 sec)
Simulation CPU 0 warning: IPC 0.041508 < 0.05
Simulation CPU 0 warning: IPC 0.039129 < 0.05
Simulation CPU 0 warning: IPC 0.043557 < 0.05
Simulation CPU 0 warning: IPC 0.036633 < 0.05
Simulation CPU 0 critical: IPC 0.015948 < 0.02
Simulation CPU 0 warning: IPC 0.031019 < 0.05
Simulation CPU 0 warning: IPC 0.045734 < 0.05
Simulation CPU 0 critical: IPC 0.017598 < 0.02
Simulation CPU 0 warning: IPC 0.022717 < 0.05
Simulation CPU 0 warning: IPC 0.043413 < 0.05
Simulation CPU 0 panic: IPC 8e-06 < 0.01
Simulation CPU 0 panic: IPC 0.0030919 < 0.01
Simulation CPU 0 warning: IPC 0.020014 < 0.05
Simulation CPU 0 warning: IPC 0.045093 < 0.05
Simulation CPU 0 critical: IPC 0.013497 < 0.02
Simulation CPU 0 panic: IPC 0.0062005 < 0.01
Simulation CPU 0 critical: IPC 0.015511 < 0.02
Simulation CPU 0 warning: IPC 0.046371 < 0.05
Simulation CPU 0 warning: IPC 0.021705 < 0.05
Simulation CPU 0 panic: IPC 0.0093018 < 0.01
Simulation CPU 0 warning: IPC 0.045363 < 0.05
Simulation CPU 0 warning: IPC 0.032183 < 0.05
Simulation CPU 0 panic: IPC 0.0078857 < 0.01
Simulation CPU 0 critical: IPC 0.010701 < 0.02
Simulation CPU 0 warning: IPC 0.043418 < 0.05
Simulation CPU 0 warning: IPC 0.041584 < 0.05
Heartbeat CPU 0 instructions: 330000059 cycles: 11667240796 heartbeat IPC: 0.03203 cumulative IPC: 0.02828 (Simulation time: 15 hr 18 min 01 sec)
Simulation CPU 0 panic: IPC 0.0026279 < 0.01
Simulation CPU 0 critical: IPC 0.019069 < 0.02
Simulation CPU 0 critical: IPC 0.011933 < 0.02
Simulation CPU 0 warning: IPC 0.037478 < 0.05
Simulation CPU 0 warning: IPC 0.029653 < 0.05
Simulation CPU 0 warning: IPC 0.035493 < 0.05
Simulation CPU 0 warning: IPC 0.023391 < 0.05
Simulation CPU 0 warning: IPC 0.02932 < 0.05
Simulation CPU 0 warning: IPC 0.029642 < 0.05
Simulation CPU 0 warning: IPC 0.02926 < 0.05
Simulation CPU 0 panic: IPC 7.2e-05 < 0.01
Simulation CPU 0 panic: IPC 0.0016472 < 0.01
Simulation CPU 0 panic: IPC 0.0001312 < 0.01
Simulation CPU 0 panic: IPC 3.2e-06 < 0.01
Simulation CPU 0 panic: IPC 1.36e-05 < 0.01
Simulation CPU 0 panic: IPC 0.0024919 < 0.01
Simulation CPU 0 panic: IPC 0.0047004 < 0.01
Simulation CPU 0 critical: IPC 0.012413 < 0.02
Simulation CPU 0 warning: IPC 0.024817 < 0.05
Simulation CPU 0 panic: IPC 0.000472 < 0.01
Simulation CPU 0 warning: IPC 0.043807 < 0.05
Simulation CPU 0 warning: IPC 0.046168 < 0.05
Simulation CPU 0 panic: IPC 0.004067 < 0.01
Simulation CPU 0 warning: IPC 0.040332 < 0.05
Simulation CPU 0 warning: IPC 0.046509 < 0.05
Heartbeat CPU 0 instructions: 340000061 cycles: 11997954217 heartbeat IPC: 0.03024 cumulative IPC: 0.02834 (Simulation time: 15 hr 41 min 40 sec)
Simulation CPU 0 warning: IPC 0.029333 < 0.05
Simulation CPU 0 panic: IPC 0.0050973 < 0.01
Simulation CPU 0 warning: IPC 0.037208 < 0.05
Simulation CPU 0 warning: IPC 0.03479 < 0.05
Simulation CPU 0 warning: IPC 0.023403 < 0.05
Simulation CPU 0 critical: IPC 0.012396 < 0.02
Simulation CPU 0 warning: IPC 0.029844 < 0.05
Simulation CPU 0 warning: IPC 0.026478 < 0.05
Simulation CPU 0 warning: IPC 0.032408 < 0.05
Simulation CPU 0 warning: IPC 0.031691 < 0.05
Simulation CPU 0 warning: IPC 0.035844 < 0.05
Simulation CPU 0 warning: IPC 0.020673 < 0.05
Simulation CPU 0 critical: IPC 0.016133 < 0.02
Simulation CPU 0 panic: IPC 0.0031009 < 0.01
Simulation CPU 0 warning: IPC 0.043416 < 0.05
Simulation CPU 0 warning: IPC 0.046522 < 0.05
Simulation CPU 0 panic: IPC 0.003109 < 0.01
Heartbeat CPU 0 instructions: 350000063 cycles: 12245516028 heartbeat IPC: 0.04039 cumulative IPC: 0.02858 (Simulation time: 16 hr 01 min 36 sec)
Simulation CPU 0 warning: IPC 0.048512 < 0.05
Simulation CPU 0 panic: IPC 0.0010976 < 0.01
Simulation CPU 0 warning: IPC 0.021709 < 0.05
Simulation CPU 0 warning: IPC 0.02002 < 0.05
Simulation CPU 0 warning: IPC 0.043431 < 0.05
Simulation CPU 0 critical: IPC 0.015498 < 0.02
Simulation CPU 0 panic: IPC 0.0030999 < 0.01
Simulation CPU 0 panic: IPC 0.0093041 < 0.01
Simulation CPU 0 panic: IPC 0.0093102 < 0.01
Simulation CPU 0 warning: IPC 0.045773 < 0.05
Simulation CPU 0 warning: IPC 0.02817 < 0.05
Simulation CPU 0 panic: IPC 0.009303 < 0.01
Simulation CPU 0 warning: IPC 0.044155 < 0.05
Simulation CPU 0 warning: IPC 0.04031 < 0.05
Simulation CPU 0 warning: IPC 0.027903 < 0.05
Simulation CPU 0 warning: IPC 0.043405 < 0.05
Simulation CPU 0 critical: IPC 0.018596 < 0.02
Simulation CPU 0 panic: IPC 0.0017278 < 0.01
Simulation CPU 0 warning: IPC 0.024677 < 0.05
Simulation CPU 0 panic: IPC 0.0031006 < 0.01
Simulation CPU 0 panic: IPC 0.0031022 < 0.01
Simulation CPU 0 panic: IPC 0.0062024 < 0.01
Simulation CPU 0 panic: IPC 0.0074109 < 0.01
Heartbeat CPU 0 instructions: 360000064 cycles: 12557739801 heartbeat IPC: 0.03203 cumulative IPC: 0.02867 (Simulation time: 16 hr 27 min 31 sec)
Simulation CPU 0 critical: IPC 0.01737 < 0.02
Simulation CPU 0 warning: IPC 0.029367 < 0.05
Simulation CPU 0 panic: IPC 0.0062005 < 0.01
Simulation CPU 0 warning: IPC 0.044939 < 0.05
Simulation CPU 0 critical: IPC 0.014318 < 0.02
Simulation CPU 0 warning: IPC 0.043901 < 0.05
Simulation CPU 0 warning: IPC 0.038218 < 0.05
Simulation CPU 0 warning: IPC 0.024802 < 0.05
Simulation CPU 0 warning: IPC 0.040305 < 0.05
Simulation CPU 0 warning: IPC 0.031056 < 0.05
Simulation CPU 0 warning: IPC 0.027909 < 0.05
Heartbeat CPU 0 instructions: 370000067 cycles: 12768351200 heartbeat IPC: 0.04748 cumulative IPC: 0.02898 (Simulation time: 16 hr 45 min 04 sec)
Simulation CPU 0 panic: IPC 0.0093047 < 0.01
Simulation CPU 0 panic: IPC 0.0093327 < 0.01
Simulation CPU 0 panic: IPC 0.000472 < 0.01
Simulation CPU 0 panic: IPC 0.0057544 < 0.01
Simulation CPU 0 panic: IPC 0.0062129 < 0.01
Simulation CPU 0 panic: IPC 0.009303 < 0.01
Simulation CPU 0 warning: IPC 0.035923 < 0.05
Simulation CPU 0 panic: IPC 0.0016525 < 0.01
Simulation CPU 0 panic: IPC 0.0093033 < 0.01
Simulation CPU 0 warning: IPC 0.025746 < 0.05
Simulation CPU 0 warning: IPC 0.039368 < 0.05
Simulation CPU 0 critical: IPC 0.018599 < 0.02
Simulation CPU 0 panic: IPC 2.82e-05 < 0.01
Simulation CPU 0 warning: IPC 0.021723 < 0.05
Simulation CPU 0 warning: IPC 0.049612 < 0.05
Simulation CPU 0 panic: IPC 0.0030999 < 0.01
Simulation CPU 0 critical: IPC 0.015497 < 0.02
Simulation CPU 0 warning: IPC 0.044527 < 0.05
Simulation CPU 0 critical: IPC 0.015529 < 0.02
Simulation CPU 0 critical: IPC 0.018605 < 0.02
Simulation CPU 0 panic: IPC 0.0030999 < 0.01
Simulation CPU 0 warning: IPC 0.046509 < 0.05
Simulation CPU 0 warning: IPC 0.027917 < 0.05
Simulation CPU 0 warning: IPC 0.03721 < 0.05
Simulation CPU 0 warning: IPC 0.037997 < 0.05
Simulation CPU 0 critical: IPC 0.014733 < 0.02
Simulation CPU 0 panic: IPC 8e-06 < 0.01
Simulation CPU 0 warning: IPC 0.037195 < 0.05
Simulation CPU 0 warning: IPC 0.024816 < 0.05
Simulation CPU 0 panic: IPC 0.0062018 < 0.01
Simulation CPU 0 critical: IPC 0.015509 < 0.02
Simulation CPU 0 panic: IPC 0.0062018 < 0.01
Simulation CPU 0 warning: IPC 0.031004 < 0.05
Simulation CPU 0 panic: IPC 0.002347 < 0.01
Simulation CPU 0 panic: IPC 0.0069728 < 0.01
Simulation CPU 0 warning: IPC 0.043432 < 0.05
Simulation CPU 0 warning: IPC 0.043412 < 0.05
Simulation CPU 0 panic: IPC 0.0030953 < 0.01
Simulation CPU 0 critical: IPC 0.015512 < 0.02
Simulation CPU 0 critical: IPC 0.018611 < 0.02
Heartbeat CPU 0 instructions: 380000068 cycles: 13209891865 heartbeat IPC: 0.02265 cumulative IPC: 0.02877 (Simulation time: 17 hr 19 min 38 sec)
Simulation CPU 0 warning: IPC 0.026707 < 0.05
Simulation CPU 0 warning: IPC 0.029725 < 0.05
Simulation CPU 0 warning: IPC 0.036596 < 0.05
Simulation CPU 0 warning: IPC 0.0228 < 0.05
Simulation CPU 0 warning: IPC 0.029282 < 0.05
Simulation CPU 0 warning: IPC 0.029742 < 0.05
Simulation CPU 0 warning: IPC 0.030287 < 0.05
Simulation CPU 0 warning: IPC 0.049948 < 0.05
Simulation CPU 0 panic: IPC 0.0031046 < 0.01
Simulation CPU 0 warning: IPC 0.040314 < 0.05
Simulation CPU 0 warning: IPC 0.021448 < 0.05
Simulation CPU 0 warning: IPC 0.033182 < 0.05
Simulation CPU 0 warning: IPC 0.021731 < 0.05
Simulation CPU 0 panic: IPC 0.0062024 < 0.01
Simulation CPU 0 warning: IPC 0.036877 < 0.05
Simulation CPU 0 warning: IPC 0.031352 < 0.05
Simulation CPU 0 warning: IPC 0.027164 < 0.05
Simulation CPU 0 panic: IPC 0.0007462 < 0.01
Simulation CPU 0 warning: IPC 0.027911 < 0.05
Simulation CPU 0 critical: IPC 0.012411 < 0.02
Simulation CPU 0 warning: IPC 0.04033 < 0.05
Simulation CPU 0 critical: IPC 0.012409 < 0.02
Simulation CPU 0 panic: IPC 0.000472 < 0.01
Simulation CPU 0 panic: IPC 0.00574 < 0.01
Simulation CPU 0 panic: IPC 0.0093138 < 0.01
Simulation CPU 0 critical: IPC 0.018616 < 0.02
Simulation CPU 0 critical: IPC 0.01861 < 0.02
Simulation CPU 0 panic: IPC 0.0093174 < 0.01
Simulation CPU 0 critical: IPC 0.012415 < 0.02
Simulation CPU 0 panic: IPC 0.0031042 < 0.01
Simulation CPU 0 panic: IPC 0.009321 < 0.01
Simulation CPU 0 critical: IPC 0.015963 < 0.02
Simulation CPU 0 panic: IPC 0.0002832 < 0.01
Simulation CPU 0 panic: IPC 0.0008984 < 0.01
Simulation CPU 0 panic: IPC 0.0045696 < 0.01
Simulation CPU 0 warning: IPC 0.040315 < 0.05
Heartbeat CPU 0 instructions: 390000071 cycles: 13605264229 heartbeat IPC: 0.02529 cumulative IPC: 0.02867 (Simulation time: 17 hr 53 min 06 sec)
Simulation CPU 0 critical: IPC 0.014718 < 0.02
Simulation CPU 0 warning: IPC 0.031814 < 0.05
Simulation CPU 0 warning: IPC 0.036148 < 0.05
Simulation CPU 0 critical: IPC 0.019944 < 0.02
Simulation CPU 0 warning: IPC 0.023459 < 0.05
Simulation CPU 0 warning: IPC 0.03102 < 0.05
Simulation CPU 0 panic: IPC 0.0092997 < 0.01
Simulation CPU 0 panic: IPC 8e-06 < 0.01
Simulation CPU 0 panic: IPC 5.68e-05 < 0.01
Simulation CPU 0 warning: IPC 0.021773 < 0.05
Simulation CPU 0 panic: IPC 0.0055141 < 0.01
Simulation CPU 0 warning: IPC 0.034124 < 0.05
Simulation CPU 0 critical: IPC 0.012256 < 0.02
Simulation CPU 0 warning: IPC 0.027422 < 0.05
Simulation CPU 0 warning: IPC 0.022564 < 0.05
Simulation CPU 0 panic: IPC 0.0031006 < 0.01
Simulation CPU 0 warning: IPC 0.035698 < 0.05
Simulation CPU 0 critical: IPC 0.01823 < 0.02
Simulation CPU 0 critical: IPC 0.017428 < 0.02
Simulation CPU 0 warning: IPC 0.031016 < 0.05
Simulation CPU 0 critical: IPC 0.012422 < 0.02
Simulation CPU 0 critical: IPC 0.01861 < 0.02
Simulation CPU 0 critical: IPC 0.015541 < 0.02
Simulation CPU 0 panic: IPC 0.0062015 < 0.01
Simulation CPU 0 critical: IPC 0.012408 < 0.02
Simulation CPU 0 warning: IPC 0.034109 < 0.05
Simulation CPU 0 critical: IPC 0.012444 < 0.02
Simulation CPU 0 critical: IPC 0.0186 < 0.02
Simulation CPU 0 warning: IPC 0.046518 < 0.05
Simulation CPU 0 warning: IPC 0.021736 < 0.05
[ERROR_CYCLE] Error added at CPU cycle 13945248447, interval 3, pending count: 1
[DRAM_CYCLE_ERROR] Cycle-based error applied! address=0x5653801e0 additional_latency=2459910500 cycles
Simulation CPU 0 warning: IPC 0.027924 < 0.05
Simulation CPU 0 panic: IPC 0 < 0.01
Simulation CPU 0 panic: IPC 0.0039776 < 0.01
Simulation CPU 0 panic: IPC 0.0094057 < 0.01
Heartbeat CPU 0 instructions: 400000074 cycles: 13982764660 heartbeat IPC: 0.02649 cumulative IPC: 0.02861 (Simulation time: 18 hr 25 min 10 sec)
Simulation CPU 0 critical: IPC 0.018858 < 0.02
Simulation CPU 0 warning: IPC 0.030789 < 0.05
Simulation CPU 0 critical: IPC 0.018617 < 0.02
Simulation CPU 0 panic: IPC 0.0058215 < 0.01
Simulation CPU 0 critical: IPC 0.01241 < 0.02
Simulation CPU 0 panic: IPC 0.0061965 < 0.01
Simulation CPU 0 panic: IPC 1.02e-05 < 0.01
Simulation CPU 0 warning: IPC 0.024813 < 0.05
Simulation CPU 0 warning: IPC 0.037224 < 0.05
Simulation CPU 0 panic: IPC 0.009309 < 0.01
Simulation CPU 0 warning: IPC 0.040325 < 0.05
Simulation CPU 0 panic: IPC 0.0062011 < 0.01
Simulation CPU 0 panic: IPC 0.0031084 < 0.01
Simulation CPU 0 warning: IPC 0.027915 < 0.05
Simulation CPU 0 critical: IPC 0.013215 < 0.02
Simulation CPU 0 warning: IPC 0.040289 < 0.05
Simulation CPU 0 critical: IPC 0.012398 < 0.02
Simulation CPU 0 warning: IPC 0.030482 < 0.05
Simulation CPU 0 panic: IPC 0.0098672 < 0.01
Simulation CPU 0 panic: IPC 0.0031012 < 0.01
Simulation CPU 0 warning: IPC 0.040327 < 0.05
Simulation CPU 0 panic: IPC 0.0062005 < 0.01
Simulation CPU 0 panic: IPC 0.0031078 < 0.01
Simulation CPU 0 panic: IPC 0.0093333 < 0.01
Simulation CPU 0 panic: IPC 0.009336 < 0.01
Simulation CPU 0 panic: IPC 0.0093042 < 0.01
Simulation CPU 0 warning: IPC 0.031551 < 0.05
Simulation CPU 0 warning: IPC 0.049067 < 0.05
Simulation CPU 0 critical: IPC 0.015523 < 0.02
Heartbeat CPU 0 instructions: 410000076 cycles: 14350414428 heartbeat IPC: 0.0272 cumulative IPC: 0.02857 (Simulation time: 18 hr 54 min 50 sec)
Simulation CPU 0 critical: IPC 0.017916 < 0.02
Simulation CPU 0 panic: IPC 0.0069089 < 0.01
Simulation CPU 0 panic: IPC 0.0093164 < 0.01
Simulation CPU 0 critical: IPC 0.012411 < 0.02
Simulation CPU 0 critical: IPC 0.012408 < 0.02
Simulation CPU 0 panic: IPC 8e-06 < 0.01
Simulation CPU 0 critical: IPC 0.012403 < 0.02
Simulation CPU 0 warning: IPC 0.027906 < 0.05
Simulation CPU 0 panic: IPC 0.0031114 < 0.01
Simulation CPU 0 warning: IPC 0.037229 < 0.05
Simulation CPU 0 warning: IPC 0.034128 < 0.05
Simulation CPU 0 panic: IPC 0.003084 < 0.01
Simulation CPU 0 panic: IPC 1.59e-05 < 0.01
Simulation CPU 0 critical: IPC 0.015508 < 0.02
Simulation CPU 0 critical: IPC 0.012423 < 0.02
Simulation CPU 0 warning: IPC 0.043385 < 0.05
Simulation CPU 0 critical: IPC 0.018619 < 0.02
Simulation CPU 0 warning: IPC 0.040398 < 0.05
Simulation CPU 0 warning: IPC 0.034016 < 0.05
Simulation CPU 0 warning: IPC 0.040307 < 0.05
Simulation CPU 0 warning: IPC 0.024816 < 0.05
Simulation CPU 0 critical: IPC 0.015561 < 0.02
Simulation CPU 0 warning: IPC 0.034143 < 0.05
Simulation CPU 0 warning: IPC 0.03633 < 0.05
Simulation CPU 0 panic: IPC 0.0070043 < 0.01
Simulation CPU 0 warning: IPC 0.027904 < 0.05
Simulation CPU 0 warning: IPC 0.024812 < 0.05
Simulation CPU 0 warning: IPC 0.020681 < 0.05
Simulation CPU 0 critical: IPC 0.013439 < 0.02
Simulation CPU 0 panic: IPC 0.0013626 < 0.01
Simulation CPU 0 critical: IPC 0.015503 < 0.02
Simulation CPU 0 critical: IPC 0.012403 < 0.02
Simulation CPU 0 panic: IPC 0.0062023 < 0.01
Simulation CPU 0 warning: IPC 0.049613 < 0.05
Heartbeat CPU 0 instructions: 420000076 cycles: 14745762374 heartbeat IPC: 0.02529 cumulative IPC: 0.02848 (Simulation time: 19 hr 27 min 34 sec)
Simulation CPU 0 warning: IPC 0.021708 < 0.05
Simulation CPU 0 warning: IPC 0.046482 < 0.05
Simulation CPU 0 critical: IPC 0.015543 < 0.02
Simulation CPU 0 panic: IPC 0.0031064 < 0.01
Simulation CPU 0 panic: IPC 0.000104 < 0.01
Simulation CPU 0 panic: IPC 0.0092044 < 0.01
Simulation CPU 0 warning: IPC 0.039748 < 0.05
Simulation CPU 0 panic: IPC 0.0062048 < 0.01
Simulation CPU 0 warning: IPC 0.034116 < 0.05
Simulation CPU 0 warning: IPC 0.037214 < 0.05
Simulation CPU 0 critical: IPC 0.018611 < 0.02
Simulation CPU 0 warning: IPC 0.049618 < 0.05
Simulation CPU 0 critical: IPC 0.014143 < 0.02
Simulation CPU 0 panic: IPC 0.0075633 < 0.01
Simulation CPU 0 panic: IPC 0.0017024 < 0.01
Simulation CPU 0 warning: IPC 0.031015 < 0.05
Simulation CPU 0 warning: IPC 0.021714 < 0.05
Simulation CPU 0 critical: IPC 0.018596 < 0.02
Simulation CPU 0 panic: IPC 0.0093017 < 0.01
Simulation CPU 0 warning: IPC 0.020204 < 0.05
Simulation CPU 0 warning: IPC 0.029421 < 0.05
Simulation CPU 0 warning: IPC 0.021712 < 0.05
Simulation CPU 0 critical: IPC 0.012407 < 0.02
Simulation CPU 0 warning: IPC 0.049062 < 0.05
Simulation CPU 0 warning: IPC 0.031577 < 0.05
Simulation CPU 0 critical: IPC 0.015505 < 0.02
Simulation CPU 0 critical: IPC 0.018629 < 0.02
Simulation CPU 0 warning: IPC 0.034101 < 0.05
Simulation CPU 0 warning: IPC 0.021716 < 0.05
Simulation CPU 0 warning: IPC 0.027914 < 0.05
Simulation CPU 0 warning: IPC 0.021709 < 0.05
Simulation CPU 0 critical: IPC 0.014137 < 0.02
Simulation CPU 0 panic: IPC 0.0093023 < 0.01
Heartbeat CPU 0 instructions: 430000076 cycles: 15113385589 heartbeat IPC: 0.0272 cumulative IPC: 0.02845 (Simulation time: 19 hr 56 min 57 sec)
Simulation CPU 0 panic: IPC 0.0072213 < 0.01
Simulation CPU 0 warning: IPC 0.020689 < 0.05
Simulation CPU 0 critical: IPC 0.015489 < 0.02
Simulation CPU 0 warning: IPC 0.040997 < 0.05
Simulation CPU 0 panic: IPC 0.0062046 < 0.01
Simulation CPU 0 panic: IPC 0.0031042 < 0.01
Simulation CPU 0 critical: IPC 0.015376 < 0.02
Simulation CPU 0 warning: IPC 0.028056 < 0.05
Simulation CPU 0 warning: IPC 0.043424 < 0.05
Simulation CPU 0 panic: IPC 0.0061952 < 0.01
Simulation CPU 0 panic: IPC 6.5e-06 < 0.01
Simulation CPU 0 panic: IPC 0.0062072 < 0.01
Simulation CPU 0 warning: IPC 0.046517 < 0.05
Simulation CPU 0 warning: IPC 0.045376 < 0.05
Simulation CPU 0 critical: IPC 0.018606 < 0.02
Simulation CPU 0 warning: IPC 0.031011 < 0.05
Simulation CPU 0 panic: IPC 0.0072144 < 0.01
Simulation CPU 0 warning: IPC 0.03312 < 0.05
Simulation CPU 0 warning: IPC 0.040863 < 0.05
Simulation CPU 0 warning: IPC 0.039821 < 0.05
Simulation CPU 0 panic: IPC 2.6e-06 < 0.01
Simulation CPU 0 panic: IPC 0.005414 < 0.01
Simulation CPU 0 warning: IPC 0.02584 < 0.05
Simulation CPU 0 critical: IPC 0.015503 < 0.02
Simulation CPU 0 warning: IPC 0.043409 < 0.05
Simulation CPU 0 panic: IPC 0.0062015 < 0.01
Simulation CPU 0 warning: IPC 0.029427 < 0.05
Heartbeat CPU 0 instructions: 440000080 cycles: 15444084753 heartbeat IPC: 0.03024 cumulative IPC: 0.02849 (Simulation time: 20 hr 23 min 33 sec)
Simulation CPU 0 warning: IPC 0.027796 < 0.05
Simulation CPU 0 warning: IPC 0.049802 < 0.05
Simulation CPU 0 warning: IPC 0.023213 < 0.05
Simulation CPU 0 warning: IPC 0.04962 < 0.05
Simulation CPU 0 warning: IPC 0.040877 < 0.05
Simulation CPU 0 warning: IPC 0.033284 < 0.05
Simulation CPU 0 warning: IPC 0.029006 < 0.05
Simulation CPU 0 panic: IPC 0.006203 < 0.01
Simulation CPU 0 warning: IPC 0.027915 < 0.05
Simulation CPU 0 panic: IPC 0.0093029 < 0.01
Simulation CPU 0 panic: IPC 0.0031012 < 0.01
Simulation CPU 0 warning: IPC 0.021702 < 0.05
Simulation CPU 0 warning: IPC 0.034128 < 0.05
Simulation CPU 0 panic: IPC 0.0031151 < 0.01
Simulation CPU 0 warning: IPC 0.028689 < 0.05
Simulation CPU 0 warning: IPC 0.020958 < 0.05
Simulation CPU 0 panic: IPC 0.0030986 < 0.01
Simulation CPU 0 critical: IPC 0.018678 < 0.02
Simulation CPU 0 warning: IPC 0.024006 < 0.05
Simulation CPU 0 critical: IPC 0.010108 < 0.02
Simulation CPU 0 warning: IPC 0.046518 < 0.05
Simulation CPU 0 warning: IPC 0.049633 < 0.05
Simulation CPU 0 warning: IPC 0.02793 < 0.05
Simulation CPU 0 warning: IPC 0.031777 < 0.05
Simulation CPU 0 panic: IPC 0 < 0.01
Simulation CPU 0 warning: IPC 0.03027 < 0.05
Simulation CPU 0 panic: IPC 0.0030999 < 0.01
Heartbeat CPU 0 instructions: 450000081 cycles: 15760925134 heartbeat IPC: 0.03156 cumulative IPC: 0.02855 (Simulation time: 20 hr 47 min 31 sec)
Simulation CPU 0 warning: IPC 0.03411 < 0.05
Simulation CPU 0 warning: IPC 0.031004 < 0.05
Simulation CPU 0 critical: IPC 0.018049 < 0.02
Simulation CPU 0 warning: IPC 0.038017 < 0.05
Simulation CPU 0 warning: IPC 0.033012 < 0.05
Simulation CPU 0 panic: IPC 0.0010496 < 0.01
Simulation CPU 0 warning: IPC 0.049375 < 0.05
Simulation CPU 0 warning: IPC 0.039356 < 0.05
Simulation CPU 0 warning: IPC 0.029601 < 0.05
Simulation CPU 0 panic: IPC 0.006206 < 0.01
Simulation CPU 0 warning: IPC 0.02193 < 0.05
Heartbeat CPU 0 instructions: 460000083 cycles: 15962291891 heartbeat IPC: 0.04966 cumulative IPC: 0.02882 (Simulation time: 21 hr 03 min 34 sec)
Simulation CPU 0 panic: IPC 0.0093073 < 0.01
Simulation CPU 0 warning: IPC 0.029541 < 0.05
Simulation CPU 0 critical: IPC 0.019389 < 0.02
Heartbeat CPU 0 instructions: 470000085 cycles: 16117441963 heartbeat IPC: 0.06445 cumulative IPC: 0.02916 (Simulation time: 21 hr 15 min 22 sec)
Simulation CPU 0 warning: IPC 0.029515 < 0.05
Simulation CPU 0 critical: IPC 0.01758 < 0.02
Simulation CPU 0 panic: IPC 0.0007367 < 0.01
Simulation CPU 0 warning: IPC 0.039108 < 0.05
Simulation CPU 0 warning: IPC 0.038182 < 0.05
Simulation CPU 0 warning: IPC 0.035974 < 0.05
Heartbeat CPU 0 instructions: 480000086 cycles: 16291091807 heartbeat IPC: 0.05759 cumulative IPC: 0.02946 (Simulation time: 21 hr 29 min 32 sec)
Simulation CPU 0 warning: IPC 0.045766 < 0.05
Simulation CPU 0 warning: IPC 0.035068 < 0.05
Simulation CPU 0 warning: IPC 0.048391 < 0.05
Simulation CPU 0 warning: IPC 0.037749 < 0.05
Simulation CPU 0 critical: IPC 0.016004 < 0.02
Simulation CPU 0 warning: IPC 0.027933 < 0.05
Heartbeat CPU 0 instructions: 490000086 cycles: 16455487101 heartbeat IPC: 0.06083 cumulative IPC: 0.02978 (Simulation time: 21 hr 44 min 06 sec)
Simulation CPU 0 warning: IPC 0.035792 < 0.05
Simulation CPU 0 warning: IPC 0.024804 < 0.05
Simulation CPU 0 warning: IPC 0.038722 < 0.05
Simulation CPU 0 critical: IPC 0.017093 < 0.02
Simulation CPU 0 warning: IPC 0.041906 < 0.05
Simulation CPU 0 warning: IPC 0.029256 < 0.05
Simulation CPU 0 warning: IPC 0.046677 < 0.05
Simulation CPU 0 critical: IPC 0.012196 < 0.02
Simulation CPU 0 warning: IPC 0.032942 < 0.05
Simulation CPU 0 panic: IPC 0.0075873 < 0.01
Simulation CPU 0 warning: IPC 0.048088 < 0.05
Simulation CPU 0 warning: IPC 0.020137 < 0.05
Simulation CPU 0 critical: IPC 0.01241 < 0.02
Simulation CPU 0 warning: IPC 0.03184 < 0.05
Simulation CPU 0 critical: IPC 0.013864 < 0.02
Simulation CPU 0 warning: IPC 0.034128 < 0.05
Simulation CPU 0 warning: IPC 0.024813 < 0.05
Simulation CPU 0 panic: IPC 0.006206 < 0.01
Simulation CPU 0 warning: IPC 0.027904 < 0.05
Simulation CPU 0 panic: IPC 6.5e-06 < 0.01
Simulation CPU 0 warning: IPC 0.021711 < 0.05
Simulation CPU 0 panic: IPC 0.0031018 < 0.01
Simulation CPU 0 warning: IPC 0.043448 < 0.05
Simulation CPU 0 panic: IPC 0.0031031 < 0.01
Simulation CPU 0 warning: IPC 0.031037 < 0.05
Simulation CPU 0 panic: IPC 0.0031036 < 0.01
Simulation CPU 0 critical: IPC 0.018612 < 0.02
Simulation CPU 0 critical: IPC 0.015505 < 0.02
Simulation CPU 0 panic: IPC 0.000472 < 0.01
Simulation CPU 0 warning: IPC 0.036742 < 0.05
Heartbeat CPU 0 instructions: 500000086 cycles: 16804684579 heartbeat IPC: 0.02864 cumulative IPC: 0.02975 (Simulation time: 22 hr 11 min 25 sec)
Simulation CPU 0 warning: IPC 0.025715 < 0.05
Simulation CPU 0 warning: IPC 0.023917 < 0.05
Simulation CPU 0 warning: IPC 0.021717 < 0.05
Simulation CPU 0 warning: IPC 0.031016 < 0.05
Simulation CPU 0 panic: IPC 0.0031072 < 0.01
Simulation CPU 0 panic: IPC 0.0030873 < 0.01
Simulation CPU 0 panic: IPC 2.58e-05 < 0.01
Simulation CPU 0 warning: IPC 0.02791 < 0.05
Simulation CPU 0 panic: IPC 0.0062088 < 0.01
Simulation CPU 0 warning: IPC 0.049653 < 0.05
Simulation CPU 0 panic: IPC 0.0031018 < 0.01
Simulation CPU 0 warning: IPC 0.029531 < 0.05
Simulation CPU 0 warning: IPC 0.0418 < 0.05
Simulation CPU 0 critical: IPC 0.018623 < 0.02
Simulation CPU 0 warning: IPC 0.044458 < 0.05
Simulation CPU 0 warning: IPC 0.039301 < 0.05
Simulation CPU 0 panic: IPC 0.0062048 < 0.01
Simulation CPU 0 warning: IPC 0.024799 < 0.05
Simulation CPU 0 panic: IPC 0.0031179 < 0.01
Simulation CPU 0 critical: IPC 0.012416 < 0.02
Simulation CPU 0 critical: IPC 0.016063 < 0.02
Simulation CPU 0 warning: IPC 0.021708 < 0.05
Simulation CPU 0 warning: IPC 0.043309 < 0.05
Heartbeat CPU 0 instructions: 510000087 cycles: 17093794800 heartbeat IPC: 0.03459 cumulative IPC: 0.02984 (Simulation time: 22 hr 34 min 39 sec)
Simulation CPU 0 warning: IPC 0.048599 < 0.05
Simulation CPU 0 panic: IPC 0.0062253 < 0.01
Simulation CPU 0 critical: IPC 0.019365 < 0.02
Simulation CPU 0 warning: IPC 0.03502 < 0.05
Simulation CPU 0 warning: IPC 0.02937 < 0.05
Simulation CPU 0 warning: IPC 0.049596 < 0.05
Heartbeat CPU 0 instructions: 520000087 cycles: 17267426379 heartbeat IPC: 0.05759 cumulative IPC: 0.03011 (Simulation time: 22 hr 49 min 48 sec)
Simulation CPU 0 warning: IPC 0.029349 < 0.05
Simulation CPU 0 warning: IPC 0.03936 < 0.05
Simulation CPU 0 critical: IPC 0.018923 < 0.02
Simulation CPU 0 critical: IPC 0.012418 < 0.02
Simulation CPU 0 warning: IPC 0.037228 < 0.05
Simulation CPU 0 critical: IPC 0.010808 < 0.02
Simulation CPU 0 warning: IPC 0.037229 < 0.05
Simulation CPU 0 panic: IPC 0.0062005 < 0.01
Simulation CPU 0 warning: IPC 0.041528 < 0.05
Simulation CPU 0 warning: IPC 0.045293 < 0.05
Heartbeat CPU 0 instructions: 530000091 cycles: 17468797010 heartbeat IPC: 0.04966 cumulative IPC: 0.03034 (Simulation time: 23 hr 05 min 56 sec)
Simulation CPU 0 warning: IPC 0.041228 < 0.05
Simulation CPU 0 warning: IPC 0.033212 < 0.05
Simulation CPU 0 warning: IPC 0.031023 < 0.05
Simulation CPU 0 panic: IPC 0.0031006 < 0.01
Simulation CPU 0 panic: IPC 2.6e-06 < 0.01
Simulation CPU 0 panic: IPC 0.0031085 < 0.01
Simulation CPU 0 critical: IPC 0.015545 < 0.02
Simulation CPU 0 warning: IPC 0.024851 < 0.05
Simulation CPU 0 critical: IPC 0.018638 < 0.02
Simulation CPU 0 critical: IPC 0.010807 < 0.02
Simulation CPU 0 critical: IPC 0.010916 < 0.02
Simulation CPU 0 panic: IPC 0.0030953 < 0.01
Simulation CPU 0 critical: IPC 0.012413 < 0.02
Simulation CPU 0 warning: IPC 0.031029 < 0.05
Simulation CPU 0 panic: IPC 0.0093072 < 0.01
Simulation CPU 0 warning: IPC 0.03239 < 0.05
Simulation CPU 0 warning: IPC 0.043123 < 0.05
Simulation CPU 0 warning: IPC 0.021799 < 0.05
Simulation CPU 0 warning: IPC 0.043373 < 0.05
Simulation CPU 0 critical: IPC 0.018611 < 0.02
Simulation CPU 0 warning: IPC 0.040398 < 0.05
Simulation CPU 0 panic: IPC 0.0062111 < 0.01
Simulation CPU 0 warning: IPC 0.039381 < 0.05
Simulation CPU 0 warning: IPC 0.047565 < 0.05
Simulation CPU 0 warning: IPC 0.037259 < 0.05
Simulation CPU 0 warning: IPC 0.037231 < 0.05
Simulation CPU 0 panic: IPC 0.0031012 < 0.01
Simulation CPU 0 panic: IPC 0.008757 < 0.01
Simulation CPU 0 panic: IPC 0.0079102 < 0.01
Simulation CPU 0 critical: IPC 0.0133 < 0.02
Simulation CPU 0 warning: IPC 0.02085 < 0.05
Simulation CPU 0 warning: IPC 0.031037 < 0.05
Simulation CPU 0 critical: IPC 0.012439 < 0.02
Simulation CPU 0 panic: IPC 0.0062294 < 0.01
Simulation CPU 0 panic: IPC 0.0062046 < 0.01
Simulation CPU 0 panic: IPC 0.0093065 < 0.01
Simulation CPU 0 critical: IPC 0.012414 < 0.02
Heartbeat CPU 0 instructions: 540000093 cycles: 17873415244 heartbeat IPC: 0.02471 cumulative IPC: 0.03021 (Simulation time: 23 hr 37 min 31 sec)
Simulation CPU 0 warning: IPC 0.048105 < 0.05
Simulation CPU 0 panic: IPC 0.0046229 < 0.01
Simulation CPU 0 warning: IPC 0.043443 < 0.05
Simulation CPU 0 panic: IPC 3.42e-05 < 0.01
Simulation CPU 0 critical: IPC 0.012407 < 0.02
Simulation CPU 0 warning: IPC 0.027921 < 0.05
Simulation CPU 0 panic: IPC 0.0031054 < 0.01
Simulation CPU 0 warning: IPC 0.031014 < 0.05
Simulation CPU 0 warning: IPC 0.031042 < 0.05
Simulation CPU 0 panic: IPC 0.0031036 < 0.01
Simulation CPU 0 warning: IPC 0.021338 < 0.05
Simulation CPU 0 warning: IPC 0.037792 < 0.05
Simulation CPU 0 warning: IPC 0.034118 < 0.05
Simulation CPU 0 panic: IPC 0.0031018 < 0.01
Simulation CPU 0 warning: IPC 0.030572 < 0.05
Simulation CPU 0 critical: IPC 0.015792 < 0.02
Simulation CPU 0 warning: IPC 0.03101 < 0.05
Simulation CPU 0 panic: IPC 0.005222 < 0.01
Simulation CPU 0 panic: IPC 0.0071905 < 0.01
Simulation CPU 0 critical: IPC 0.01753 < 0.02
Simulation CPU 0 panic: IPC 1.6e-06 < 0.01
Simulation CPU 0 panic: IPC 1.04e-05 < 0.01
Simulation CPU 0 critical: IPC 0.010383 < 0.02
Simulation CPU 0 critical: IPC 0.0186 < 0.02
Simulation CPU 0 critical: IPC 0.014204 < 0.02
Simulation CPU 0 panic: IPC 0.0098168 < 0.01
Simulation CPU 0 warning: IPC 0.028439 < 0.05
Simulation CPU 0 warning: IPC 0.03438 < 0.05
Simulation CPU 0 warning: IPC 0.040309 < 0.05
Simulation CPU 0 panic: IPC 0.0093072 < 0.01
Heartbeat CPU 0 instructions: 550000093 cycles: 18231784320 heartbeat IPC: 0.0279 cumulative IPC: 0.03017 (Simulation time: 00 hr 08 min 00 sec)
Simulation CPU 0 panic: IPC 0.0031018 < 0.01
Simulation CPU 0 warning: IPC 0.02032 < 0.05
Simulation CPU 0 panic: IPC 0.0075916 < 0.01
Simulation CPU 0 warning: IPC 0.027342 < 0.05
Simulation CPU 0 warning: IPC 0.037775 < 0.05
Simulation CPU 0 warning: IPC 0.031011 < 0.05
Simulation CPU 0 panic: IPC 0.00505 < 0.01
Simulation CPU 0 panic: IPC 0.002004 < 0.01
Simulation CPU 0 critical: IPC 0.0135 < 0.02
Simulation CPU 0 warning: IPC 0.023439 < 0.05
Simulation CPU 0 panic: IPC 0.0001632 < 0.01
Simulation CPU 0 panic: IPC 2.56e-05 < 0.01
Simulation CPU 0 panic: IPC 1.76e-05 < 0.01
Simulation CPU 0 panic: IPC 8e-06 < 0.01
Simulation CPU 0 panic: IPC 1.6e-06 < 0.01
Simulation CPU 0 panic: IPC 2.72e-05 < 0.01
Simulation CPU 0 panic: IPC 1.6e-06 < 0.01
Simulation CPU 0 panic: IPC 2.72e-05 < 0.01
Simulation CPU 0 panic: IPC 1.6e-06 < 0.01
Simulation CPU 0 panic: IPC 8e-07 < 0.01
Simulation CPU 0 panic: IPC 9.6e-06 < 0.01
Simulation CPU 0 warning: IPC 0.038304 < 0.05
Simulation CPU 0 panic: IPC 0.0031078 < 0.01
Simulation CPU 0 panic: IPC 0.0093042 < 0.01
Simulation CPU 0 warning: IPC 0.031016 < 0.05
Simulation CPU 0 critical: IPC 0.018606 < 0.02
Simulation CPU 0 warning: IPC 0.034129 < 0.05
Simulation CPU 0 critical: IPC 0.019943 < 0.02
Simulation CPU 0 warning: IPC 0.029539 < 0.05
Simulation CPU 0 warning: IPC 0.029854 < 0.05
Simulation CPU 0 warning: IPC 0.029325 < 0.05
Simulation CPU 0 warning: IPC 0.033855 < 0.05
[ERROR_CYCLE] Error added at CPU cycle 18593664597, interval 4, pending count: 1
[DRAM_CYCLE_ERROR] Cycle-based error applied! address=0xaf2d4b510 additional_latency=2459910500 cycles
Simulation CPU 0 panic: IPC 0 < 0.01
Simulation CPU 0 warning: IPC 0.022429 < 0.05
Simulation CPU 0 critical: IPC 0.012401 < 0.02
Simulation CPU 0 warning: IPC 0.037208 < 0.05
Heartbeat CPU 0 instructions: 560000095 cycles: 18673924380 heartbeat IPC: 0.02262 cumulative IPC: 0.02999 (Simulation time: 00 hr 42 min 36 sec)
Simulation CPU 0 panic: IPC 0.0062054 < 0.01
Simulation CPU 0 warning: IPC 0.049622 < 0.05
Simulation CPU 0 warning: IPC 0.027901 < 0.05
Simulation CPU 0 warning: IPC 0.040303 < 0.05
Simulation CPU 0 warning: IPC 0.021477 < 0.05
Simulation CPU 0 warning: IPC 0.023961 < 0.05
Simulation CPU 0 warning: IPC 0.029158 < 0.05
Simulation CPU 0 warning: IPC 0.026477 < 0.05
Simulation CPU 0 critical: IPC 0.011457 < 0.02
Simulation CPU 0 panic: IPC 0.0030999 < 0.01
Simulation CPU 0 warning: IPC 0.037996 < 0.05
Simulation CPU 0 warning: IPC 0.048065 < 0.05
Simulation CPU 0 warning: IPC 0.025184 < 0.05
Simulation CPU 0 warning: IPC 0.040334 < 0.05
Simulation CPU 0 critical: IPC 0.018624 < 0.02
Simulation CPU 0 critical: IPC 0.018629 < 0.02
Simulation CPU 0 warning: IPC 0.02173 < 0.05
Simulation CPU 0 critical: IPC 0.010498 < 0.02
Heartbeat CPU 0 instructions: 570000095 cycles: 18930720581 heartbeat IPC: 0.03894 cumulative IPC: 0.03011 (Simulation time: 01 hr 02 min 29 sec)
Simulation CPU 0 warning: IPC 0.043306 < 0.05
Simulation CPU 0 critical: IPC 0.0162 < 0.02
Simulation CPU 0 warning: IPC 0.045828 < 0.05
Simulation CPU 0 warning: IPC 0.046522 < 0.05
Simulation CPU 0 critical: IPC 0.01241 < 0.02
Simulation CPU 0 warning: IPC 0.042622 < 0.05
Simulation CPU 0 critical: IPC 0.016311 < 0.02
Simulation CPU 0 critical: IPC 0.013447 < 0.02
Simulation CPU 0 warning: IPC 0.027932 < 0.05
Simulation CPU 0 critical: IPC 0.015512 < 0.02
Simulation CPU 0 warning: IPC 0.049671 < 0.05
Simulation CPU 0 warning: IPC 0.028222 < 0.05
Simulation CPU 0 panic: IPC 0.0089979 < 0.01
Simulation CPU 0 warning: IPC 0.02519 < 0.05
Simulation CPU 0 panic: IPC 0.0031018 < 0.01
Simulation CPU 0 warning: IPC 0.03101 < 0.05
Simulation CPU 0 critical: IPC 0.018613 < 0.02
Simulation CPU 0 warning: IPC 0.034114 < 0.05
Simulation CPU 0 warning: IPC 0.045323 < 0.05
Simulation CPU 0 warning: IPC 0.032198 < 0.05
Simulation CPU 0 panic: IPC 0.0047814 < 0.01
Simulation CPU 0 warning: IPC 0.026225 < 0.05
Simulation CPU 0 warning: IPC 0.024812 < 0.05
Simulation CPU 0 critical: IPC 0.016821 < 0.02
[...]
Simulation CPU 0 warning: IPC 0.027907 < 0.05
Simulation CPU 0 warning: IPC 0.031007 < 0.05
Simulation CPU 0 warning: IPC 0.021706 < 0.05
Simulation CPU 0 warning: IPC 0.034117 < 0.05
Simulation CPU 0 critical: IPC 0.018618 < 0.02
Simulation CPU 0 critical: IPC 0.01551 < 0.02
Simulation CPU 0 warning: IPC 0.031014 < 0.05
Simulation CPU 0 warning: IPC 0.026589 < 0.05
Simulation CPU 0 warning: IPC 0.044731 < 0.05
Simulation CPU 0 warning: IPC 0.023132 < 0.05
Simulation CPU 0 panic: IPC 0.0016806 < 0.01
Simulation CPU 0 warning: IPC 0.034119 < 0.05
Simulation CPU 0 critical: IPC 0.012407 < 0.02
Simulation CPU 0 panic: IPC 0.0093066 < 0.01
Simulation CPU 0 warning: IPC 0.037211 < 0.05
Heartbeat CPU 0 instructions: 760000122 cycles: 26053901405 heartbeat IPC: 0.0279 cumulative IPC: 0.02917 (Simulation time: 10 hr 35 min 21 sec)
Simulation CPU 0 critical: IPC 0.015507 < 0.02
Simulation CPU 0 warning: IPC 0.024805 < 0.05
Simulation CPU 0 warning: IPC 0.04341 < 0.05
Simulation CPU 0 warning: IPC 0.043416 < 0.05
Simulation CPU 0 critical: IPC 0.011654 < 0.02
Simulation CPU 0 warning: IPC 0.034861 < 0.05
Simulation CPU 0 warning: IPC 0.027908 < 0.05
Simulation CPU 0 panic: IPC 0.0083522 < 0.01
Simulation CPU 0 warning: IPC 0.027909 < 0.05
Simulation CPU 0 critical: IPC 0.010895 < 0.02
Simulation CPU 0 warning: IPC 0.032202 < 0.05
Simulation CPU 0 warning: IPC 0.023632 < 0.05
Simulation CPU 0 panic: IPC 0.0070948 < 0.01
Simulation CPU 0 panic: IPC 0.0084145 < 0.01
Simulation CPU 0 warning: IPC 0.021713 < 0.05
Simulation CPU 0 warning: IPC 0.027911 < 0.05
Simulation CPU 0 critical: IPC 0.018612 < 0.02
Simulation CPU 0 panic: IPC 0.0031006 < 0.01
Simulation CPU 0 panic: IPC 0.0038551 < 0.01
Simulation CPU 0 critical: IPC 0.018611 < 0.02
Simulation CPU 0 warning: IPC 0.027919 < 0.05
Simulation CPU 0 critical: IPC 0.012412 < 0.02
Simulation CPU 0 warning: IPC 0.021718 < 0.05
Simulation CPU 0 warning: IPC 0.024813 < 0.05
Simulation CPU 0 warning: IPC 0.043415 < 0.05
Simulation CPU 0 critical: IPC 0.018605 < 0.02
Simulation CPU 0 warning: IPC 0.035142 < 0.05
Simulation CPU 0 panic: IPC 0.0051792 < 0.01
Simulation CPU 0 critical: IPC 0.018609 < 0.02
Simulation CPU 0 warning: IPC 0.049615 < 0.05
Simulation CPU 0 warning: IPC 0.027904 < 0.05
Simulation CPU 0 warning: IPC 0.021722 < 0.05
Simulation CPU 0 panic: IPC 0.009315 < 0.01
Simulation CPU 0 critical: IPC 0.012407 < 0.02
Heartbeat CPU 0 instructions: 770000122 cycles: 26439997843 heartbeat IPC: 0.0259 cumulative IPC: 0.02912 (Simulation time: 11 hr 05 min 26 sec)
Simulation CPU 0 panic: IPC 0.0073376 < 0.01
Simulation CPU 0 warning: IPC 0.02913 < 0.05
Simulation CPU 0 warning: IPC 0.029947 < 0.05
Simulation CPU 0 warning: IPC 0.029334 < 0.05
Simulation CPU 0 warning: IPC 0.029725 < 0.05
Simulation CPU 0 warning: IPC 0.029295 < 0.05
Simulation CPU 0 critical: IPC 0.019465 < 0.02
Simulation CPU 0 warning: IPC 0.039365 < 0.05
Simulation CPU 0 warning: IPC 0.029808 < 0.05
Simulation CPU 0 warning: IPC 0.030895 < 0.05
Simulation CPU 0 warning: IPC 0.023713 < 0.05
Simulation CPU 0 warning: IPC 0.043414 < 0.05
Simulation CPU 0 panic: IPC 0.0069524 < 0.01
Simulation CPU 0 panic: IPC 0.0062423 < 0.01
Simulation CPU 0 critical: IPC 0.011834 < 0.02
Simulation CPU 0 warning: IPC 0.031575 < 0.05
Simulation CPU 0 warning: IPC 0.038031 < 0.05
Simulation CPU 0 warning: IPC 0.022808 < 0.05
Simulation CPU 0 warning: IPC 0.027911 < 0.05
Simulation CPU 0 warning: IPC 0.04468 < 0.05
Heartbeat CPU 0 instructions: 780000124 cycles: 26706020701 heartbeat IPC: 0.03759 cumulative IPC: 0.02921 (Simulation time: 11 hr 28 min 17 sec)
Simulation CPU 0 warning: IPC 0.036466 < 0.05
Simulation CPU 0 warning: IPC 0.041597 < 0.05
Simulation CPU 0 warning: IPC 0.044864 < 0.05
Simulation CPU 0 panic: IPC 0.0062876 < 0.01
Simulation CPU 0 warning: IPC 0.033858 < 0.05
Simulation CPU 0 warning: IPC 0.029739 < 0.05
Simulation CPU 0 critical: IPC 0.017629 < 0.02
Simulation CPU 0 warning: IPC 0.041237 < 0.05
Heartbeat CPU 0 instructions: 790000127 cycles: 26870405045 heartbeat IPC: 0.06083 cumulative IPC: 0.0294 (Simulation time: 11 hr 42 min 14 sec)
Simulation CPU 0 warning: IPC 0.035139 < 0.05
Simulation CPU 0 panic: IPC 0.0080828 < 0.01
Simulation CPU 0 warning: IPC 0.026964 < 0.05
Simulation CPU 0 critical: IPC 0.012024 < 0.02
Simulation CPU 0 warning: IPC 0.027936 < 0.05
Simulation CPU 0 critical: IPC 0.018609 < 0.02
Simulation CPU 0 warning: IPC 0.021368 < 0.05
Simulation CPU 0 critical: IPC 0.016256 < 0.02
Simulation CPU 0 warning: IPC 0.027923 < 0.05
Simulation CPU 0 warning: IPC 0.021705 < 0.05
Simulation CPU 0 critical: IPC 0.018603 < 0.02
Simulation CPU 0 critical: IPC 0.012413 < 0.02
Simulation CPU 0 critical: IPC 0.011174 < 0.02
Simulation CPU 0 critical: IPC 0.016745 < 0.02
Simulation CPU 0 critical: IPC 0.012408 < 0.02
Simulation CPU 0 warning: IPC 0.040326 < 0.05
Simulation CPU 0 critical: IPC 0.012411 < 0.02
Simulation CPU 0 warning: IPC 0.021705 < 0.05
Simulation CPU 0 warning: IPC 0.038156 < 0.05
Simulation CPU 0 panic: IPC 0.0052589 < 0.01
Simulation CPU 0 warning: IPC 0.043427 < 0.05
Simulation CPU 0 panic: IPC 0.0031006 < 0.01
Simulation CPU 0 panic: IPC 0.0031024 < 0.01
Simulation CPU 0 warning: IPC 0.024827 < 0.05
Simulation CPU 0 panic: IPC 0.0093113 < 0.01
Heartbeat CPU 0 instructions: 800000128 cycles: 27191869707 heartbeat IPC: 0.03111 cumulative IPC: 0.02942 (Simulation time: 12 hr 05 min 13 sec)
Simulation CPU 0 warning: IPC 0.036012 < 0.05
Simulation CPU 0 warning: IPC 0.027908 < 0.05
Simulation CPU 0 panic: IPC 0.0093017 < 0.01
Simulation CPU 0 critical: IPC 0.015515 < 0.02
Simulation CPU 0 critical: IPC 0.015526 < 0.02
Simulation CPU 0 critical: IPC 0.015553 < 0.02
Simulation CPU 0 warning: IPC 0.041317 < 0.05
Simulation CPU 0 panic: IPC 0.0031076 < 0.01
Simulation CPU 0 critical: IPC 0.015518 < 0.02
Simulation CPU 0 panic: IPC 0.0031006 < 0.01
Simulation CPU 0 warning: IPC 0.030213 < 0.05
Simulation CPU 0 warning: IPC 0.034917 < 0.05
Simulation CPU 0 warning: IPC 0.031026 < 0.05
Simulation CPU 0 warning: IPC 0.034119 < 0.05
Simulation CPU 0 critical: IPC 0.015517 < 0.02
Simulation CPU 0 warning: IPC 0.035509 < 0.05
Simulation CPU 0 warning: IPC 0.049376 < 0.05
Simulation CPU 0 warning: IPC 0.045421 < 0.05
Simulation CPU 0 warning: IPC 0.04048 < 0.05
Simulation CPU 0 warning: IPC 0.03488 < 0.05
Simulation CPU 0 warning: IPC 0.021708 < 0.05
Simulation CPU 0 warning: IPC 0.024828 < 0.05
Heartbeat CPU 0 instructions: 810000128 cycles: 27476372501 heartbeat IPC: 0.03515 cumulative IPC: 0.02948 (Simulation time: 12 hr 29 min 27 sec)
Simulation CPU 0 panic: IPC 0.0031006 < 0.01
Simulation CPU 0 warning: IPC 0.04652 < 0.05
Simulation CPU 0 warning: IPC 0.049624 < 0.05
Simulation CPU 0 panic: IPC 0.0093024 < 0.01
Simulation CPU 0 critical: IPC 0.018605 < 0.02
Simulation CPU 0 warning: IPC 0.043419 < 0.05
Simulation CPU 0 warning: IPC 0.034111 < 0.05
Simulation CPU 0 critical: IPC 0.015517 < 0.02
Simulation CPU 0 warning: IPC 0.021708 < 0.05
Simulation CPU 0 panic: IPC 0.0093053 < 0.01
Simulation CPU 0 panic: IPC 0.0093139 < 0.01
Simulation CPU 0 panic: IPC 0.0031006 < 0.01
Simulation CPU 0 panic: IPC 0.000472 < 0.01
Simulation CPU 0 warning: IPC 0.044669 < 0.05
Simulation CPU 0 critical: IPC 0.010681 < 0.02
Simulation CPU 0 warning: IPC 0.036496 < 0.05
Simulation CPU 0 critical: IPC 0.013127 < 0.02
Simulation CPU 0 warning: IPC 0.037215 < 0.05
Simulation CPU 0 critical: IPC 0.015517 < 0.02
Simulation CPU 0 warning: IPC 0.037233 < 0.05
Simulation CPU 0 critical: IPC 0.015511 < 0.02
Simulation CPU 0 critical: IPC 0.010978 < 0.02
Simulation CPU 0 panic: IPC 0.0074959 < 0.01
Heartbeat CPU 0 instructions: 820000128 cycles: 27788593668 heartbeat IPC: 0.03203 cumulative IPC: 0.02951 (Simulation time: 12 hr 56 min 08 sec)
Simulation CPU 0 warning: IPC 0.02924 < 0.05
Simulation CPU 0 warning: IPC 0.044865 < 0.05
Simulation CPU 0 critical: IPC 0.012407 < 0.02
Simulation CPU 0 critical: IPC 0.018605 < 0.02
Simulation CPU 0 warning: IPC 0.04779 < 0.05
Simulation CPU 0 warning: IPC 0.043454 < 0.05
[ERROR_CYCLE] Error added at CPU cycle 27890496894, interval 6, pending count: 1
[DRAM_CYCLE_ERROR] Cycle-based error applied! address=0xd49452508 additional_latency=2459910500 cycles
Simulation CPU 0 panic: IPC 0 < 0.01
Simulation CPU 0 critical: IPC 0.01552 < 0.02
Simulation CPU 0 panic: IPC 0.0022175 < 0.01
Simulation CPU 0 warning: IPC 0.045939 < 0.05
Simulation CPU 0 warning: IPC 0.037679 < 0.05
Simulation CPU 0 critical: IPC 0.01241 < 0.02
Simulation CPU 0 panic: IPC 0.0062042 < 0.01
Simulation CPU 0 panic: IPC 0.0072002 < 0.01
Simulation CPU 0 warning: IPC 0.035987 < 0.05
Heartbeat CPU 0 instructions: 830000128 cycles: 28027504805 heartbeat IPC: 0.04186 cumulative IPC: 0.02961 (Simulation time: 13 hr 14 min 41 sec)
Simulation CPU 0 critical: IPC 0.01861 < 0.02
Simulation CPU 0 warning: IPC 0.030076 < 0.05
Simulation CPU 0 critical: IPC 0.019402 < 0.02
Simulation CPU 0 critical: IPC 0.01242 < 0.02
Simulation CPU 0 warning: IPC 0.023043 < 0.05
Simulation CPU 0 panic: IPC 0.009303 < 0.01
Simulation CPU 0 panic: IPC 0.0045503 < 0.01
Simulation CPU 0 panic: IPC 0.0027647 < 0.01
Simulation CPU 0 critical: IPC 0.014391 < 0.02
Simulation CPU 0 warning: IPC 0.031836 < 0.05
Simulation CPU 0 panic: IPC 0.008481 < 0.01
Simulation CPU 0 warning: IPC 0.046644 < 0.05
Simulation CPU 0 warning: IPC 0.034684 < 0.05
Simulation CPU 0 warning: IPC 0.029252 < 0.05
Simulation CPU 0 warning: IPC 0.037541 < 0.05
Simulation CPU 0 warning: IPC 0.047268 < 0.05
Simulation CPU 0 warning: IPC 0.03312 < 0.05
Simulation CPU 0 warning: IPC 0.029198 < 0.05
Heartbeat CPU 0 instructions: 840000128 cycles: 28302775928 heartbeat IPC: 0.03633 cumulative IPC: 0.02968 (Simulation time: 13 hr 37 min 51 sec)
Simulation CPU 0 panic: IPC 0.0062018 < 0.01
Simulation CPU 0 warning: IPC 0.021707 < 0.05
Simulation CPU 0 critical: IPC 0.012405 < 0.02
Simulation CPU 0 warning: IPC 0.024831 < 0.05
Simulation CPU 0 warning: IPC 0.033375 < 0.05
Simulation CPU 0 warning: IPC 0.025558 < 0.05
Simulation CPU 0 critical: IPC 0.01551 < 0.02
Simulation CPU 0 critical: IPC 0.01551 < 0.02
Simulation CPU 0 warning: IPC 0.043439 < 0.05
Simulation CPU 0 critical: IPC 0.015517 < 0.02
Simulation CPU 0 critical: IPC 0.018631 < 0.02
Simulation CPU 0 warning: IPC 0.044689 < 0.05
Simulation CPU 0 warning: IPC 0.049635 < 0.05
Simulation CPU 0 critical: IPC 0.016008 < 0.02
Simulation CPU 0 panic: IPC 0.0062011 < 0.01
Simulation CPU 0 warning: IPC 0.028646 < 0.05
Simulation CPU 0 panic: IPC 0.0093262 < 0.01
Simulation CPU 0 panic: IPC 0.0062083 < 0.01
Simulation CPU 0 panic: IPC 0.0061991 < 0.01
Simulation CPU 0 warning: IPC 0.040315 < 0.05
Simulation CPU 0 critical: IPC 0.014385 < 0.02
Heartbeat CPU 0 instructions: 850000131 cycles: 28578037404 heartbeat IPC: 0.03633 cumulative IPC: 0.02974 (Simulation time: 14 hr 02 min 13 sec)
Simulation CPU 0 warning: IPC 0.039029 < 0.05
Simulation CPU 0 critical: IPC 0.012438 < 0.02
Simulation CPU 0 panic: IPC 0.0062106 < 0.01
Simulation CPU 0 panic: IPC 0.000472 < 0.01
Simulation CPU 0 panic: IPC 0.0057607 < 0.01
Simulation CPU 0 warning: IPC 0.037238 < 0.05
Simulation CPU 0 warning: IPC 0.029682 < 0.05
Simulation CPU 0 warning: IPC 0.029248 < 0.05
Heartbeat CPU 0 instructions: 860000134 cycles: 28751633675 heartbeat IPC: 0.0576 cumulative IPC: 0.02991 (Simulation time: 14 hr 17 min 59 sec)
Simulation CPU 0 warning: IPC 0.036535 < 0.05
Simulation CPU 0 critical: IPC 0.017779 < 0.02
Simulation CPU 0 panic: IPC 0.0008332 < 0.01
Simulation CPU 0 warning: IPC 0.021725 < 0.05
Simulation CPU 0 panic: IPC 0.0031012 < 0.01
Simulation CPU 0 warning: IPC 0.031022 < 0.05
Simulation CPU 0 panic: IPC 0.0062147 < 0.01
Simulation CPU 0 panic: IPC 0.000472 < 0.01
Simulation CPU 0 critical: IPC 0.019105 < 0.02
Heartbeat CPU 0 instructions: 870000134 cycles: 28943734018 heartbeat IPC: 0.05206 cumulative IPC: 0.03006 (Simulation time: 14 hr 34 min 32 sec)
Simulation CPU 0 warning: IPC 0.036261 < 0.05
Simulation CPU 0 panic: IPC 0.0031036 < 0.01
Simulation CPU 0 critical: IPC 0.012266 < 0.02
Simulation CPU 0 warning: IPC 0.037357 < 0.05
Simulation CPU 0 warning: IPC 0.0366 < 0.05
Simulation CPU 0 warning: IPC 0.034703 < 0.05
Simulation CPU 0 warning: IPC 0.04342 < 0.05
Simulation CPU 0 warning: IPC 0.037239 < 0.05
Simulation CPU 0 warning: IPC 0.02349 < 0.05
Simulation CPU 0 warning: IPC 0.029542 < 0.05
Heartbeat CPU 0 instructions: 880000136 cycles: 29126571873 heartbeat IPC: 0.05469 cumulative IPC: 0.03021 (Simulation time: 14 hr 49 min 31 sec)
Simulation CPU 0 warning: IPC 0.029692 < 0.05
Simulation CPU 0 warning: IPC 0.031755 < 0.05
Simulation CPU 0 critical: IPC 0.015512 < 0.02
Simulation CPU 0 critical: IPC 0.018624 < 0.02
Simulation CPU 0 panic: IPC 0.0031006 < 0.01
Simulation CPU 0 warning: IPC 0.031016 < 0.05
Simulation CPU 0 panic: IPC 0.0062135 < 0.01
Simulation CPU 0 panic: IPC 0.006203 < 0.01
Simulation CPU 0 warning: IPC 0.020958 < 0.05
Simulation CPU 0 warning: IPC 0.028672 < 0.05
Simulation CPU 0 panic: IPC 0.0031036 < 0.01
Simulation CPU 0 critical: IPC 0.018606 < 0.02
Simulation CPU 0 warning: IPC 0.025282 < 0.05
Simulation CPU 0 panic: IPC 0.005731 < 0.01
Simulation CPU 0 warning: IPC 0.045089 < 0.05
Heartbeat CPU 0 instructions: 890000137 cycles: 29355642441 heartbeat IPC: 0.04365 cumulative IPC: 0.03032 (Simulation time: 15 hr 09 min 56 sec)
Simulation CPU 0 warning: IPC 0.026214 < 0.05
Simulation CPU 0 warning: IPC 0.040334 < 0.05
Simulation CPU 0 warning: IPC 0.046632 < 0.05
Simulation CPU 0 warning: IPC 0.029558 < 0.05
Simulation CPU 0 critical: IPC 0.011567 < 0.02
Simulation CPU 0 warning: IPC 0.049002 < 0.05
Simulation CPU 0 warning: IPC 0.02525 < 0.05
Simulation CPU 0 panic: IPC 0.0062208 < 0.01
Heartbeat CPU 0 instructions: 900000137 cycles: 29547751875 heartbeat IPC: 0.05205 cumulative IPC: 0.03046 (Simulation time: 15 hr 27 min 33 sec)
Simulation CPU 0 warning: IPC 0.029406 < 0.05
Simulation CPU 0 warning: IPC 0.028434 < 0.05
Simulation CPU 0 panic: IPC 0.0062373 < 0.01
Simulation CPU 0 critical: IPC 0.016729 < 0.02
Simulation CPU 0 warning: IPC 0.04359 < 0.05
Heartbeat CPU 0 instructions: 910000140 cycles: 29721379242 heartbeat IPC: 0.05759 cumulative IPC: 0.03062 (Simulation time: 15 hr 42 min 58 sec)
Simulation CPU 0 warning: IPC 0.034457 < 0.05
Simulation CPU 0 warning: IPC 0.046503 < 0.05
Simulation CPU 0 warning: IPC 0.020051 < 0.05
Simulation CPU 0 warning: IPC 0.049298 < 0.05
Simulation CPU 0 warning: IPC 0.029225 < 0.05
Simulation CPU 0 warning: IPC 0.029766 < 0.05
Heartbeat CPU 0 instructions: 920000140 cycles: 29904252493 heartbeat IPC: 0.05468 cumulative IPC: 0.03076 (Simulation time: 15 hr 58 min 42 sec)
Simulation CPU 0 warning: IPC 0.04405 < 0.05
Simulation CPU 0 warning: IPC 0.029812 < 0.05
Heartbeat CPU 0 instructions: 930000140 cycles: 30059409495 heartbeat IPC: 0.06445 cumulative IPC: 0.03094 (Simulation time: 16 hr 12 min 35 sec)
Simulation CPU 0 critical: IPC 0.016233 < 0.02
Simulation CPU 0 warning: IPC 0.046401 < 0.05
Simulation CPU 0 warning: IPC 0.029293 < 0.05
Simulation CPU 0 warning: IPC 0.030736 < 0.05
Simulation CPU 0 panic: IPC 0.0031219 < 0.01
Simulation CPU 0 panic: IPC 0.0093148 < 0.01
Simulation CPU 0 warning: IPC 0.029167 < 0.05
Simulation CPU 0 warning: IPC 0.029237 < 0.05
Simulation CPU 0 warning: IPC 0.029795 < 0.05
Heartbeat CPU 0 instructions: 940000144 cycles: 30260764158 heartbeat IPC: 0.04966 cumulative IPC: 0.03106 (Simulation time: 16 hr 28 min 42 sec)
Simulation CPU 0 warning: IPC 0.040322 < 0.05
Simulation CPU 0 warning: IPC 0.046501 < 0.05
Simulation CPU 0 warning: IPC 0.045839 < 0.05
Simulation CPU 0 warning: IPC 0.033481 < 0.05
Simulation CPU 0 warning: IPC 0.049925 < 0.05
Simulation CPU 0 warning: IPC 0.043144 < 0.05
Simulation CPU 0 warning: IPC 0.041711 < 0.05
Simulation CPU 0 warning: IPC 0.034576 < 0.05
Simulation CPU 0 warning: IPC 0.037426 < 0.05
Heartbeat CPU 0 instructions: 950000147 cycles: 30434403720 heartbeat IPC: 0.05759 cumulative IPC: 0.03121 (Simulation time: 16 hr 43 min 31 sec)
Simulation CPU 0 critical: IPC 0.018602 < 0.02
Simulation CPU 0 panic: IPC 0.0062031 < 0.01
Simulation CPU 0 warning: IPC 0.039206 < 0.05
Heartbeat CPU 0 instructions: 960000147 cycles: 30598789699 heartbeat IPC: 0.06083 cumulative IPC: 0.03137 (Simulation time: 16 hr 56 min 28 sec)
Simulation CPU 0 warning: IPC 0.040669 < 0.05
Simulation CPU 0 warning: IPC 0.043152 < 0.05
Simulation CPU 0 warning: IPC 0.04545 < 0.05
Simulation CPU 0 warning: IPC 0.040368 < 0.05
Simulation CPU 0 warning: IPC 0.029177 < 0.05
Simulation CPU 0 warning: IPC 0.044773 < 0.05
Simulation CPU 0 warning: IPC 0.043415 < 0.05
Heartbeat CPU 0 instructions: 970000149 cycles: 30753946029 heartbeat IPC: 0.06445 cumulative IPC: 0.03154 (Simulation time: 17 hr 07 min 58 sec)
Simulation CPU 0 warning: IPC 0.04961 < 0.05
Simulation CPU 0 warning: IPC 0.037803 < 0.05
Simulation CPU 0 panic: IPC 0.008709 < 0.01
Simulation CPU 0 warning: IPC 0.035402 < 0.05
Simulation CPU 0 warning: IPC 0.029729 < 0.05
Simulation CPU 0 panic: IPC 0.0062162 < 0.01
Simulation CPU 0 warning: IPC 0.033611 < 0.05
Heartbeat CPU 0 instructions: 980000150 cycles: 30936816354 heartbeat IPC: 0.05468 cumulative IPC: 0.03168 (Simulation time: 17 hr 22 min 58 sec)
Simulation CPU 0 warning: IPC 0.04144 < 0.05
Simulation CPU 0 warning: IPC 0.044304 < 0.05
Simulation CPU 0 warning: IPC 0.029261 < 0.05
Simulation CPU 0 warning: IPC 0.04385 < 0.05
Simulation CPU 0 warning: IPC 0.048699 < 0.05
Heartbeat CPU 0 instructions: 990000150 cycles: 31082712439 heartbeat IPC: 0.06854 cumulative IPC: 0.03185 (Simulation time: 17 hr 34 min 00 sec)
Simulation CPU 0 panic: IPC 0.0070156 < 0.01
Simulation CPU 0 warning: IPC 0.049134 < 0.05
Simulation CPU 0 warning: IPC 0.029723 < 0.05
Simulation CPU 0 warning: IPC 0.028274 < 0.05
Simulation CPU 0 warning: IPC 0.03061 < 0.05
Simulation CPU 0 warning: IPC 0.049601 < 0.05
Simulation CPU 0 warning: IPC 0.030039 < 0.05
Heartbeat CPU 0 instructions: 1000000152 cycles: 31274834778 heartbeat IPC: 0.05205 cumulative IPC: 0.03197 (Simulation time: 17 hr 50 min 16 sec)
Simulation CPU 0 warning: IPC 0.044384 < 0.05
Simulation CPU 0 panic: IPC 0.0062136 < 0.01
Simulation CPU 0 warning: IPC 0.021724 < 0.05
Simulation CPU 0 warning: IPC 0.046372 < 0.05
Simulation CPU 0 warning: IPC 0.034491 < 0.05
Heartbeat CPU 0 instructions: 1010000153 cycles: 31439210636 heartbeat IPC: 0.06084 cumulative IPC: 0.03213 (Simulation time: 18 hr 04 min 38 sec)
Simulation CPU 0 warning: IPC 0.036886 < 0.05
Simulation CPU 0 warning: IPC 0.033681 < 0.05
Simulation CPU 0 warning: IPC 0.043333 < 0.05
Simulation CPU 0 warning: IPC 0.049473 < 0.05
Simulation CPU 0 warning: IPC 0.045417 < 0.05
Heartbeat CPU 0 instructions: 1020000155 cycles: 31585122198 heartbeat IPC: 0.06853 cumulative IPC: 0.03229 (Simulation time: 18 hr 17 min 11 sec)
Simulation CPU 0 warning: IPC 0.049845 < 0.05
Simulation CPU 0 warning: IPC 0.044163 < 0.05
Simulation CPU 0 warning: IPC 0.029745 < 0.05
Simulation CPU 0 warning: IPC 0.037073 < 0.05
Simulation CPU 0 critical: IPC 0.017236 < 0.02
Heartbeat CPU 0 instructions: 1030000155 cycles: 31767982571 heartbeat IPC: 0.05469 cumulative IPC: 0.03242 (Simulation time: 18 hr 31 min 29 sec)
Simulation CPU 0 warning: IPC 0.049162 < 0.05
Simulation CPU 0 warning: IPC 0.030999 < 0.05
Simulation CPU 0 warning: IPC 0.047374 < 0.05
Simulation CPU 0 warning: IPC 0.036334 < 0.05
Heartbeat CPU 0 instructions: 1040000157 cycles: 31913902418 heartbeat IPC: 0.06853 cumulative IPC: 0.03259 (Simulation time: 18 hr 45 min 05 sec)
Simulation CPU 0 critical: IPC 0.013025 < 0.02
Simulation CPU 0 warning: IPC 0.048779 < 0.05
Simulation CPU 0 warning: IPC 0.029723 < 0.05
Heartbeat CPU 0 instructions: 1050000160 cycles: 32059810417 heartbeat IPC: 0.06854 cumulative IPC: 0.03275 (Simulation time: 18 hr 56 min 03 sec)
Simulation CPU 0 warning: IPC 0.031043 < 0.05
Simulation CPU 0 warning: IPC 0.032896 < 0.05
Simulation CPU 0 warning: I