
*** ChampSim Multicore Out-of-Order Simulator ***
Warmup Instructions: 0
Simulation Instructions: 9223372036854775807
Number of CPUs: 1
Page size: 1048576

Off-chip DRAM Size: 32 GiB Channels: 2 Width: 32-bit Data Rate: 4807 MT/s
[ERROR_PAGE_MANAGER] Error latency: 0 
[ERROR_PAGE_MANAGER] Random seed: 54321 (fixed for preload reproducibility)
[ERROR_PAGE_MANAGER] Error pages off

=== ERROR PAGE STATISTICS ===
Mode: OFF
Total Error Accesses: 0
==============================
Warmup finished CPU 0 instructions: 0 cycles: 1 cumulative IPC: 0 (Simulation time: 00 hr 00 min 00 sec)
Warmup complete CPU 0 instructions: 0 cycles: 1 cumulative IPC: 0 (Simulation time: 00 hr 00 min 00 sec)
Simulation CPU 0 panic: IPC 0 < 0.01
Simulation CPU 0 panic: IPC 0 < 0.01
Simulation CPU 0 panic: IPC 0 < 0.01
Simulation CPU 0 panic: IPC 5e-07 < 0.01
Simulation CPU 0 panic: IPC 1.1e-06 < 0.01
Simulation CPU 0 panic: IPC 0 < 0.01
Simulation CPU 0 panic: IPC 8e-06 < 0.01
Simulation CPU 0 panic: IPC 4.54e-05 < 0.01
Simulation CPU 0 panic: IPC 0.0001128 < 0.01
Simulation CPU 0 panic: IPC 0.0001051 < 0.01
Simulation CPU 0 panic: IPC 0.0026152 < 0.01
Simulation CPU 0 panic: IPC 3.34e-05 < 0.01
Simulation CPU 0 panic: IPC 0.0010197 < 0.01
Simulation CPU 0 panic: IPC 7e-06 < 0.01
Simulation CPU 0 panic: IPC 6.5e-06 < 0.01
Simulation CPU 0 panic: IPC 2.05e-05 < 0.01
Simulation CPU 0 panic: IPC 1.14e-05 < 0.01
Simulation CPU 0 panic: IPC 2.72e-05 < 0.01
Simulation CPU 0 panic: IPC 0.00025 < 0.01
Simulation CPU 0 panic: IPC 0.0001349 < 0.01
Simulation CPU 0 panic: IPC 0 < 0.01
Simulation CPU 0 panic: IPC 0.0004092 < 0.01
Simulation CPU 0 panic: IPC 0.000361 < 0.01
Simulation CPU 0 panic: IPC 0.0001798 < 0.01
Simulation CPU 0 panic: IPC 0.0005803 < 0.01
Simulation CPU 0 warning: IPC 0.026295 < 0.05
Simulation CPU 0 panic: IPC 4.9e-06 < 0.01
Simulation CPU 0 panic: IPC 4.4e-06 < 0.01
Simulation CPU 0 panic: IPC 1.52e-05 < 0.01
Simulation CPU 0 panic: IPC 7.6e-06 < 0.01
Simulation CPU 0 panic: IPC 7.1e-06 < 0.01
Simulation CPU 0 panic: IPC 1.75e-05 < 0.01
Simulation CPU 0 panic: IPC 1e-05 < 0.01
Simulation CPU 0 panic: IPC 4.3e-06 < 0.01
Simulation CPU 0 panic: IPC 9.6e-06 < 0.01
Simulation CPU 0 panic: IPC 2.45e-05 < 0.01
Simulation CPU 0 panic: IPC 2.87e-05 < 0.01
Simulation CPU 0 panic: IPC 1.96e-05 < 0.01
Simulation CPU 0 panic: IPC 4.6e-06 < 0.01
Simulation CPU 0 panic: IPC 1.42e-05 < 0.01
Simulation CPU 0 panic: IPC 1.24e-05 < 0.01
Simulation CPU 0 panic: IPC 3e-05 < 0.01
Simulation CPU 0 panic: IPC 5.34e-05 < 0.01
Simulation CPU 0 panic: IPC 3.88e-05 < 0.01
Simulation CPU 0 panic: IPC 2.17e-05 < 0.01
Simulation CPU 0 panic: IPC 3.42e-05 < 0.01
Simulation CPU 0 panic: IPC 6.8e-06 < 0.01
Simulation CPU 0 panic: IPC 4.24e-05 < 0.01
Simulation CPU 0 panic: IPC 5.63e-05 < 0.01
Simulation CPU 0 panic: IPC 4.17e-05 < 0.01
Simulation CPU 0 panic: IPC 1.71e-05 < 0.01
Simulation CPU 0 panic: IPC 1.43e-05 < 0.01
Simulation CPU 0 panic: IPC 5.89e-05 < 0.01
Simulation CPU 0 panic: IPC 6.6e-06 < 0.01
Simulation CPU 0 panic: IPC 1.53e-05 < 0.01
Simulation CPU 0 panic: IPC 1.18e-05 < 0.01
Simulation CPU 0 panic: IPC 0.0001261 < 0.01
Simulation CPU 0 panic: IPC 2.42e-05 < 0.01
Simulation CPU 0 panic: IPC 0.0001872 < 0.01
Simulation CPU 0 panic: IPC 7.6e-06 < 0.01
Simulation CPU 0 panic: IPC 5.06e-05 < 0.01
Simulation CPU 0 panic: IPC 0.0001728 < 0.01
Simulation CPU 0 panic: IPC 0.0001305 < 0.01
Simulation CPU 0 panic: IPC 6.93e-05 < 0.01
Simulation CPU 0 panic: IPC 8.56e-05 < 0.01
Simulation CPU 0 panic: IPC 0 < 0.01
Simulation CPU 0 panic: IPC 0.0001422 < 0.01
Simulation CPU 0 panic: IPC 0.0002701 < 0.01
Simulation CPU 0 panic: IPC 9.4e-06 < 0.01
Simulation CPU 0 panic: IPC 4.54e-05 < 0.01
Simulation CPU 0 panic: IPC 7.23e-05 < 0.01
Simulation CPU 0 panic: IPC 2.85e-05 < 0.01
Simulation CPU 0 panic: IPC 3.84e-05 < 0.01
Simulation CPU 0 panic: IPC 1.47e-05 < 0.01
Simulation CPU 0 panic: IPC 0.0002031 < 0.01
Simulation CPU 0 panic: IPC 0.0001284 < 0.01
Simulation CPU 0 panic: IPC 0.0002105 < 0.01
Simulation CPU 0 panic: IPC 0.0007568 < 0.01
Simulation CPU 0 panic: IPC 9.6e-05 < 0.01
Simulation CPU 0 panic: IPC 0.0002754 < 0.01
Simulation CPU 0 panic: IPC 9.35e-05 < 0.01
Simulation CPU 0 panic: IPC 0.0002402 < 0.01
Simulation CPU 0 panic: IPC 7.99e-05 < 0.01
Simulation CPU 0 panic: IPC 8.3e-05 < 0.01
Simulation CPU 0 panic: IPC 0.0001353 < 0.01
Simulation CPU 0 panic: IPC 0.0005871 < 0.01
Simulation CPU 0 panic: IPC 1.46e-05 < 0.01
Simulation CPU 0 panic: IPC 0.0003208 < 0.01
Simulation CPU 0 panic: IPC 0.0003422 < 0.01
Simulation CPU 0 panic: IPC 0.0001082 < 0.01
Simulation CPU 0 panic: IPC 9.6e-06 < 0.01
Simulation CPU 0 panic: IPC 0.0001903 < 0.01
Simulation CPU 0 panic: IPC 0.0006171 < 0.01
Simulation CPU 0 panic: IPC 0.0001232 < 0.01
Simulation CPU 0 panic: IPC 0.0010295 < 0.01
Simulation CPU 0 panic: IPC 0.0008541 < 0.01
Simulation CPU 0 panic: IPC 0.0006314 < 0.01
Simulation CPU 0 panic: IPC 0.0001833 < 0.01
Simulation CPU 0 panic: IPC 0.0001434 < 0.01
Simulation CPU 0 panic: IPC 4.77e-05 < 0.01
Simulation CPU 0 panic: IPC 0.0008204 < 0.01
Simulation CPU 0 panic: IPC 1.22e-05 < 0.01
Simulation CPU 0 panic: IPC 0.0001603 < 0.01
Simulation CPU 0 panic: IPC 0.0001364 < 0.01
Simulation CPU 0 panic: IPC 0.0009266 < 0.01
Simulation CPU 0 panic: IPC 0.0004779 < 0.01
Simulation CPU 0 panic: IPC 0.0005578 < 0.01
Simulation CPU 0 panic: IPC 7.93e-05 < 0.01
Simulation CPU 0 panic: IPC 0.000243 < 0.01
Simulation CPU 0 panic: IPC 0.0002813 < 0.01
Simulation CPU 0 panic: IPC 5.3e-06 < 0.01
Simulation CPU 0 panic: IPC 0.0004785 < 0.01
Simulation CPU 0 panic: IPC 0.0005448 < 0.01
Simulation CPU 0 panic: IPC 0.0004207 < 0.01
Simulation CPU 0 panic: IPC 0.0004945 < 0.01
Simulation CPU 0 panic: IPC 0.0003328 < 0.01
Simulation CPU 0 panic: IPC 0.0009242 < 0.01
Simulation CPU 0 panic: IPC 0.0010043 < 0.01
Simulation CPU 0 panic: IPC 0.0001551 < 0.01
Simulation CPU 0 panic: IPC 0.0002527 < 0.01
Simulation CPU 0 panic: IPC 0.0006688 < 0.01
Simulation CPU 0 panic: IPC 4.36e-05 < 0.01
Simulation CPU 0 panic: IPC 0.0008939 < 0.01
Simulation CPU 0 panic: IPC 2e-07 < 0.01
Simulation CPU 0 panic: IPC 1.12e-05 < 0.01
Simulation CPU 0 panic: IPC 2.01e-05 < 0.01
Simulation CPU 0 panic: IPC 7.1e-06 < 0.01
Simulation CPU 0 panic: IPC 5.1e-06 < 0.01
Simulation CPU 0 panic: IPC 6.6e-06 < 0.01
Simulation CPU 0 panic: IPC 4.6e-06 < 0.01
Simulation CPU 0 panic: IPC 9.2e-06 < 0.01
Simulation CPU 0 panic: IPC 7.4e-06 < 0.01
Simulation CPU 0 panic: IPC 9.4e-06 < 0.01
Simulation CPU 0 panic: IPC 7.1e-06 < 0.01
Simulation CPU 0 panic: IPC 2.5e-06 < 0.01
Simulation CPU 0 panic: IPC 6.6e-06 < 0.01
Simulation CPU 0 panic: IPC 2.18e-05 < 0.01
Simulation CPU 0 panic: IPC 1.14e-05 < 0.01
Simulation CPU 0 panic: IPC 2.3e-06 < 0.01
Simulation CPU 0 panic: IPC 9.4e-06 < 0.01
Simulation CPU 0 panic: IPC 1.63e-05 < 0.01
Simulation CPU 0 panic: IPC 2.57e-05 < 0.01
Simulation CPU 0 panic: IPC 9.4e-06 < 0.01
Simulation CPU 0 panic: IPC 2.8e-06 < 0.01
Simulation CPU 0 panic: IPC 6.6e-06 < 0.01
Simulation CPU 0 panic: IPC 1.91e-05 < 0.01
Simulation CPU 0 panic: IPC 1.67e-05 < 0.01
Simulation CPU 0 panic: IPC 8.9e-06 < 0.01
Simulation CPU 0 panic: IPC 5.19e-05 < 0.01
Simulation CPU 0 panic: IPC 1.65e-05 < 0.01
Simulation CPU 0 panic: IPC 1.19e-05 < 0.01
Simulation CPU 0 panic: IPC 4.65e-05 < 0.01
Simulation CPU 0 panic: IPC 9.7e-06 < 0.01
Simulation CPU 0 panic: IPC 2.34e-05 < 0.01
Simulation CPU 0 panic: IPC 9.1e-06 < 0.01
Simulation CPU 0 panic: IPC 4.75e-05 < 0.01
Simulation CPU 0 panic: IPC 7.1e-06 < 0.01
Simulation CPU 0 panic: IPC 6.09e-05 < 0.01
Simulation CPU 0 panic: IPC 1.4e-05 < 0.01
Simulation CPU 0 panic: IPC 2.85e-05 < 0.01
Simulation CPU 0 panic: IPC 2.59e-05 < 0.01
Simulation CPU 0 panic: IPC 1.81e-05 < 0.01
Simulation CPU 0 panic: IPC 2.8e-06 < 0.01
Simulation CPU 0 panic: IPC 1.65e-05 < 0.01
Simulation CPU 0 panic: IPC 1.65e-05 < 0.01
Simulation CPU 0 panic: IPC 4.94e-05 < 0.01
Simulation CPU 0 panic: IPC 4.72e-05 < 0.01
Simulation CPU 0 panic: IPC 5.42e-05 < 0.01
Simulation CPU 0 panic: IPC 7e-05 < 0.01
Simulation CPU 0 panic: IPC 0.0001075 < 0.01
Simulation CPU 0 panic: IPC 4.66e-05 < 0.01
Simulation CPU 0 panic: IPC 1.2e-05 < 0.01
Simulation CPU 0 panic: IPC 5.32e-05 < 0.01
Simulation CPU 0 panic: IPC 5.39e-05 < 0.01
Simulation CPU 0 panic: IPC 5.83e-05 < 0.01
Simulation CPU 0 panic: IPC 7.4e-06 < 0.01
Simulation CPU 0 panic: IPC 9.64e-05 < 0.01
Simulation CPU 0 panic: IPC 3.93e-05 < 0.01
Simulation CPU 0 panic: IPC 4.01e-05 < 0.01
Simulation CPU 0 panic: IPC 5.43e-05 < 0.01
Simulation CPU 0 panic: IPC 3.28e-05 < 0.01
Simulation CPU 0 panic: IPC 8.15e-05 < 0.01
Simulation CPU 0 panic: IPC 0.0001264 < 0.01
Simulation CPU 0 panic: IPC 5.18e-05 < 0.01
Simulation CPU 0 panic: IPC 1.15e-05 < 0.01
Simulation CPU 0 panic: IPC 0.0002277 < 0.01
Simulation CPU 0 panic: IPC 0.0001174 < 0.01
Simulation CPU 0 panic: IPC 0.0001295 < 0.01
Simulation CPU 0 panic: IPC 1.22e-05 < 0.01
Simulation CPU 0 panic: IPC 0.0001157 < 0.01
Simulation CPU 0 panic: IPC 0.0001207 < 0.01
Simulation CPU 0 panic: IPC 8.65e-05 < 0.01
Simulation CPU 0 panic: IPC 0.0002114 < 0.01
Simulation CPU 0 panic: IPC 0.0002879 < 0.01
Simulation CPU 0 panic: IPC 3.03e-05 < 0.01
Simulation CPU 0 panic: IPC 7.25e-05 < 0.01
Simulation CPU 0 panic: IPC 6.12e-05 < 0.01
Simulation CPU 0 panic: IPC 6.54e-05 < 0.01
Simulation CPU 0 panic: IPC 3.01e-05 < 0.01
Simulation CPU 0 panic: IPC 8.75e-05 < 0.01
Simulation CPU 0 panic: IPC 0.0002192 < 0.01
Simulation CPU 0 panic: IPC 5.18e-05 < 0.01
Simulation CPU 0 panic: IPC 0.0001361 < 0.01
Simulation CPU 0 panic: IPC 9.2e-06 < 0.01
Simulation CPU 0 panic: IPC 3.28e-05 < 0.01
Simulation CPU 0 panic: IPC 3.54e-05 < 0.01
Simulation CPU 0 panic: IPC 0.0001211 < 0.01
Simulation CPU 0 panic: IPC 7.1e-06 < 0.01
Simulation CPU 0 panic: IPC 2.11e-05 < 0.01
Simulation CPU 0 panic: IPC 9.65e-05 < 0.01
Simulation CPU 0 panic: IPC 0.0001952 < 0.01
Simulation CPU 0 panic: IPC 5.38e-05 < 0.01
Simulation CPU 0 panic: IPC 0.0003188 < 0.01
Simulation CPU 0 panic: IPC 8.4e-05 < 0.01
Simulation CPU 0 panic: IPC 5.62e-05 < 0.01
Simulation CPU 0 panic: IPC 0.0001369 < 0.01
Simulation CPU 0 panic: IPC 1.35e-05 < 0.01
Simulation CPU 0 panic: IPC 9.4e-06 < 0.01
Simulation CPU 0 panic: IPC 3.56e-05 < 0.01
Simulation CPU 0 panic: IPC 0.0001177 < 0.01
Simulation CPU 0 panic: IPC 5.19e-05 < 0.01
Simulation CPU 0 panic: IPC 0.0001791 < 0.01
Simulation CPU 0 panic: IPC 0.0002348 < 0.01
Simulation CPU 0 panic: IPC 1.17e-05 < 0.01
Simulation CPU 0 panic: IPC 0.0001456 < 0.01
Simulation CPU 0 panic: IPC 7e-05 < 0.01
Simulation CPU 0 panic: IPC 7.07e-05 < 0.01
Simulation CPU 0 panic: IPC 0.0001799 < 0.01
Simulation CPU 0 panic: IPC 0.0002571 < 0.01
Simulation CPU 0 panic: IPC 8.01e-05 < 0.01
Simulation CPU 0 panic: IPC 2.09e-05 < 0.01
Simulation CPU 0 panic: IPC 0.0001618 < 0.01
Simulation CPU 0 panic: IPC 2.83e-05 < 0.01
Simulation CPU 0 panic: IPC 0.0003312 < 0.01
Simulation CPU 0 panic: IPC 0.0001744 < 0.01
Simulation CPU 0 panic: IPC 0.0002223 < 0.01
Simulation CPU 0 panic: IPC 5.1e-06 < 0.01
Simulation CPU 0 panic: IPC 5e-05 < 0.01
Simulation CPU 0 panic: IPC 3.24e-05 < 0.01
Simulation CPU 0 panic: IPC 7.56e-05 < 0.01
Simulation CPU 0 panic: IPC 0.0001378 < 0.01
Simulation CPU 0 panic: IPC 0.0001715 < 0.01
Simulation CPU 0 panic: IPC 4.89e-05 < 0.01
Simulation CPU 0 panic: IPC 2.37e-05 < 0.01
Simulation CPU 0 panic: IPC 4.61e-05 < 0.01
Simulation CPU 0 panic: IPC 4.7e-05 < 0.01
Simulation CPU 0 panic: IPC 0.0002478 < 0.01
Simulation CPU 0 panic: IPC 2.82e-05 < 0.01
Simulation CPU 0 panic: IPC 0.0003203 < 0.01
Simulation CPU 0 panic: IPC 0.0002769 < 0.01
Simulation CPU 0 panic: IPC 0.0005878 < 0.01
Simulation CPU 0 panic: IPC 0.0002437 < 0.01
Simulation CPU 0 panic: IPC 2.82e-05 < 0.01
Simulation CPU 0 panic: IPC 1.66e-05 < 0.01
Simulation CPU 0 panic: IPC 0.0002559 < 0.01
Simulation CPU 0 panic: IPC 0.0002372 < 0.01
Simulation CPU 0 panic: IPC 3.95e-05 < 0.01
Simulation CPU 0 panic: IPC 0.0001235 < 0.01
Simulation CPU 0 panic: IPC 0.0002071 < 0.01
Simulation CPU 0 panic: IPC 0.0002414 < 0.01
Simulation CPU 0 panic: IPC 4.16e-05 < 0.01
Simulation CPU 0 panic: IPC 3.72e-05 < 0.01
Simulation CPU 0 panic: IPC 0.0001227 < 0.01
Simulation CPU 0 panic: IPC 0.0002476 < 0.01
Simulation CPU 0 panic: IPC 0.0001958 < 0.01
Simulation CPU 0 panic: IPC 0.0003686 < 0.01
Simulation CPU 0 panic: IPC 0.0001047 < 0.01
Simulation CPU 0 panic: IPC 0.0001047 < 0.01
Simulation CPU 0 panic: IPC 7.88e-05 < 0.01
Simulation CPU 0 panic: IPC 0.000428 < 0.01
Simulation CPU 0 panic: IPC 0.0003212 < 0.01
Simulation CPU 0 panic: IPC 4.22e-05 < 0.01
Simulation CPU 0 panic: IPC 3.03e-05 < 0.01
Simulation CPU 0 panic: IPC 0.0006245 < 0.01
Simulation CPU 0 panic: IPC 3.49e-05 < 0.01
Simulation CPU 0 panic: IPC 7.48e-05 < 0.01
Simulation CPU 0 panic: IPC 0.0002813 < 0.01
Simulation CPU 0 panic: IPC 0.0002666 < 0.01
Simulation CPU 0 panic: IPC 0.0003522 < 0.01
Simulation CPU 0 panic: IPC 0.0005807 < 0.01
Simulation CPU 0 panic: IPC 0.0004421 < 0.01
Simulation CPU 0 panic: IPC 0.000318 < 0.01
Simulation CPU 0 panic: IPC 0.0001644 < 0.01
Simulation CPU 0 panic: IPC 2.53e-05 < 0.01
Simulation CPU 0 panic: IPC 0.0003332 < 0.01
Simulation CPU 0 panic: IPC 7.25e-05 < 0.01
Simulation CPU 0 panic: IPC 2.8e-06 < 0.01
Simulation CPU 0 panic: IPC 7.21e-05 < 0.01
Simulation CPU 0 panic: IPC 0.0003807 < 0.01
Simulation CPU 0 panic: IPC 0.0004946 < 0.01
Simulation CPU 0 panic: IPC 0.0003261 < 0.01
Simulation CPU 0 panic: IPC 0.0004985 < 0.01
Simulation CPU 0 panic: IPC 0.0001152 < 0.01
Simulation CPU 0 panic: IPC 0.0009513 < 0.01
Simulation CPU 0 panic: IPC 0.0009612 < 0.01
Simulation CPU 0 panic: IPC 8.32e-05 < 0.01
Simulation CPU 0 panic: IPC 0.0004864 < 0.01
Simulation CPU 0 panic: IPC 8.65e-05 < 0.01
Simulation CPU 0 panic: IPC 0.0007665 < 0.01
Simulation CPU 0 panic: IPC 0.0004636 < 0.01
Simulation CPU 0 panic: IPC 0.0003405 < 0.01
Simulation CPU 0 panic: IPC 0.0001647 < 0.01
Simulation CPU 0 panic: IPC 3.01e-05 < 0.01
Simulation CPU 0 panic: IPC 0.000104 < 0.01
Simulation CPU 0 panic: IPC 6.9e-06 < 0.01
Simulation CPU 0 panic: IPC 4.2e-05 < 0.01
Simulation CPU 0 panic: IPC 0.0002971 < 0.01
Simulation CPU 0 panic: IPC 0.0008249 < 0.01
Simulation CPU 0 panic: IPC 4.2e-05 < 0.01
Simulation CPU 0 panic: IPC 7.98e-05 < 0.01
Simulation CPU 0 panic: IPC 0.0001563 < 0.01
Simulation CPU 0 panic: IPC 0.0002212 < 0.01
Simulation CPU 0 panic: IPC 0.0002193 < 0.01
Simulation CPU 0 panic: IPC 0.0001872 < 0.01
Simulation CPU 0 panic: IPC 0.0014846 < 0.01
Simulation CPU 0 panic: IPC 0.0002043 < 0.01
Simulation CPU 0 panic: IPC 0.0003212 < 0.01
Simulation CPU 0 panic: IPC 0.0006029 < 0.01
Simulation CPU 0 panic: IPC 0.0002415 < 0.01
Simulation CPU 0 panic: IPC 0.0018835 < 0.01
Simulation CPU 0 panic: IPC 0.000788 < 0.01
Simulation CPU 0 panic: IPC 6.58e-05 < 0.01
Simulation CPU 0 panic: IPC 0.000169 < 0.01
Simulation CPU 0 panic: IPC 0.0048339 < 0.01
Simulation CPU 0 panic: IPC 0.0019413 < 0.01
Simulation CPU 0 panic: IPC 7.95e-05 < 0.01
Simulation CPU 0 panic: IPC 0.000563 < 0.01
Simulation CPU 0 panic: IPC 6.52e-05 < 0.01
Simulation CPU 0 panic: IPC 0.0007563 < 0.01
Simulation CPU 0 panic: IPC 0.0006593 < 0.01
Simulation CPU 0 panic: IPC 0.0006741 < 0.01
Simulation CPU 0 panic: IPC 0.0005227 < 0.01
Simulation CPU 0 panic: IPC 0.0034973 < 0.01
Heartbeat CPU 0 instructions: 10000001 cycles: 3353784274 heartbeat IPC: 0.002982 cumulative IPC: 0.002982 (Simulation time: 04 hr 46 min 27 sec)
Simulation CPU 0 panic: IPC 7e-06 < 0.01
Simulation CPU 0 panic: IPC 4.4e-06 < 0.01
Simulation CPU 0 panic: IPC 1.3e-05 < 0.01
Simulation CPU 0 panic: IPC 9.6e-06 < 0.01
Simulation CPU 0 panic: IPC 4.6e-06 < 0.01
Simulation CPU 0 panic: IPC 5.3e-06 < 0.01
Simulation CPU 0 panic: IPC 6.8e-06 < 0.01
Simulation CPU 0 panic: IPC 2.3e-06 < 0.01
Simulation CPU 0 panic: IPC 9.2e-06 < 0.01
Simulation CPU 0 panic: IPC 2.8e-06 < 0.01
Simulation CPU 0 panic: IPC 4.3e-06 < 0.01
Simulation CPU 0 panic: IPC 5.1e-06 < 0.01
Simulation CPU 0 panic: IPC 7.1e-06 < 0.01
Simulation CPU 0 panic: IPC 9.4e-06 < 0.01
Simulation CPU 0 panic: IPC 1.42e-05 < 0.01
Simulation CPU 0 panic: IPC 6.6e-06 < 0.01
Simulation CPU 0 panic: IPC 2.3e-06 < 0.01
Simulation CPU 0 panic: IPC 1.22e-05 < 0.01
Simulation CPU 0 panic: IPC 3.32e-05 < 0.01
Simulation CPU 0 panic: IPC 2.12e-05 < 0.01
Simulation CPU 0 panic: IPC 9.6e-06 < 0.01
Simulation CPU 0 panic: IPC 1.24e-05 < 0.01
Simulation CPU 0 panic: IPC 1.14e-05 < 0.01
Simulation CPU 0 panic: IPC 6.9e-06 < 0.01
Simulation CPU 0 panic: IPC 2.8e-06 < 0.01
Simulation CPU 0 panic: IPC 7.1e-06 < 0.01
Simulation CPU 0 panic: IPC 2.5e-06 < 0.01
Simulation CPU 0 panic: IPC 9.6e-06 < 0.01
Simulation CPU 0 panic: IPC 1.19e-05 < 0.01
Simulation CPU 0 panic: IPC 3.52e-05 < 0.01
Simulation CPU 0 panic: IPC 5.3e-06 < 0.01
Simulation CPU 0 panic: IPC 9.6e-06 < 0.01
Simulation CPU 0 panic: IPC 1.25e-05 < 0.01
Simulation CPU 0 panic: IPC 9.6e-06 < 0.01
Simulation CPU 0 panic: IPC 2.37e-05 < 0.01
Simulation CPU 0 panic: IPC 5.1e-06 < 0.01
Simulation CPU 0 panic: IPC 1.85e-05 < 0.01
Simulation CPU 0 panic: IPC 2.3e-06 < 0.01
Simulation CPU 0 panic: IPC 2.3e-06 < 0.01
Simulation CPU 0 panic: IPC 5.3e-06 < 0.01
Simulation CPU 0 panic: IPC 2.58e-05 < 0.01
Simulation CPU 0 panic: IPC 4.51e-05 < 0.01
Simulation CPU 0 panic: IPC 1.93e-05 < 0.01
Simulation CPU 0 panic: IPC 1.88e-05 < 0.01
Simulation CPU 0 panic: IPC 1.42e-05 < 0.01
Simulation CPU 0 panic: IPC 2.34e-05 < 0.01
Simulation CPU 0 panic: IPC 9.6e-06 < 0.01
Simulation CPU 0 panic: IPC 9.6e-06 < 0.01
Simulation CPU 0 panic: IPC 9.4e-06 < 0.01
Simulation CPU 0 panic: IPC 1.67e-05 < 0.01
Simulation CPU 0 panic: IPC 1.64e-05 < 0.01
Simulation CPU 0 panic: IPC 3.13e-05 < 0.01
Simulation CPU 0 panic: IPC 2.36e-05 < 0.01
Simulation CPU 0 panic: IPC 3.12e-05 < 0.01
Simulation CPU 0 panic: IPC 7.1e-06 < 0.01
Simulation CPU 0 panic: IPC 2.38e-05 < 0.01
Simulation CPU 0 panic: IPC 5.25e-05 < 0.01
Simulation CPU 0 panic: IPC 2.3e-06 < 0.01
Simulation CPU 0 panic: IPC 1.7e-05 < 0.01
Simulation CPU 0 panic: IPC 3.25e-05 < 0.01
Simulation CPU 0 panic: IPC 2.91e-05 < 0.01
Simulation CPU 0 panic: IPC 4.96e-05 < 0.01
Simulation CPU 0 panic: IPC 8.05e-05 < 0.01
Simulation CPU 0 panic: IPC 3.07e-05 < 0.01
Simulation CPU 0 panic: IPC 7.36e-05 < 0.01
Simulation CPU 0 panic: IPC 0.0002783 < 0.01
Simulation CPU 0 panic: IPC 2.43e-05 < 0.01
Simulation CPU 0 panic: IPC 3.09e-05 < 0.01
Simulation CPU 0 panic: IPC 1.92e-05 < 0.01
Simulation CPU 0 panic: IPC 3.12e-05 < 0.01
Simulation CPU 0 panic: IPC 0.0001283 < 0.01
Simulation CPU 0 panic: IPC 2.5e-06 < 0.01
Simulation CPU 0 panic: IPC 1.83e-05 < 0.01
Simulation CPU 0 panic: IPC 1.63e-05 < 0.01
Simulation CPU 0 panic: IPC 5.45e-05 < 0.01
Simulation CPU 0 panic: IPC 1.74e-05 < 0.01
Simulation CPU 0 panic: IPC 3.55e-05 < 0.01
Simulation CPU 0 panic: IPC 0.0001108 < 0.01
Simulation CPU 0 panic: IPC 3.51e-05 < 0.01
Simulation CPU 0 panic: IPC 9.4e-06 < 0.01
Simulation CPU 0 panic: IPC 4.29e-05 < 0.01
Simulation CPU 0 panic: IPC 0.0002013 < 0.01
Simulation CPU 0 panic: IPC 7.34e-05 < 0.01
Simulation CPU 0 panic: IPC 1.88e-05 < 0.01
Simulation CPU 0 panic: IPC 5.3e-06 < 0.01
Simulation CPU 0 panic: IPC 4.03e-05 < 0.01
Simulation CPU 0 panic: IPC 1.6e-05 < 0.01
Simulation CPU 0 panic: IPC 2.85e-05 < 0.01
Simulation CPU 0 panic: IPC 4.93e-05 < 0.01
Simulation CPU 0 panic: IPC 4.85e-05 < 0.01
Simulation CPU 0 panic: IPC 0.0001422 < 0.01
Simulation CPU 0 panic: IPC 5.04e-05 < 0.01
Simulation CPU 0 panic: IPC 4e-05 < 0.01
Simulation CPU 0 panic: IPC 7.85e-05 < 0.01
Simulation CPU 0 panic: IPC 3.83e-05 < 0.01
Simulation CPU 0 panic: IPC 2.5e-06 < 0.01
Simulation CPU 0 panic: IPC 0.0001909 < 0.01
Simulation CPU 0 panic: IPC 9.9e-06 < 0.01
Simulation CPU 0 panic: IPC 0.0001807 < 0.01
Simulation CPU 0 panic: IPC 0.0001314 < 0.01
Simulation CPU 0 panic: IPC 0.0001063 < 0.01
Simulation CPU 0 panic: IPC 0.0001095 < 0.01
Simulation CPU 0 panic: IPC 0.0002187 < 0.01
Simulation CPU 0 panic: IPC 0.0001561 < 0.01
Simulation CPU 0 panic: IPC 0.0001679 < 0.01
Simulation CPU 0 panic: IPC 5.89e-05 < 0.01
Simulation CPU 0 panic: IPC 0.0001449 < 0.01
Simulation CPU 0 panic: IPC 3.41e-05 < 0.01
Simulation CPU 0 panic: IPC 0.0004179 < 0.01
Simulation CPU 0 panic: IPC 0.0002767 < 0.01
Simulation CPU 0 panic: IPC 0.0002127 < 0.01
Simulation CPU 0 panic: IPC 0.0009855 < 0.01
Simulation CPU 0 panic: IPC 0.0002115 < 0.01
Simulation CPU 0 panic: IPC 5.75e-05 < 0.01
Simulation CPU 0 panic: IPC 0.0001526 < 0.01
Simulation CPU 0 panic: IPC 0.0006533 < 0.01
Simulation CPU 0 panic: IPC 0.0002484 < 0.01
Simulation CPU 0 panic: IPC 0.0001168 < 0.01
Simulation CPU 0 panic: IPC 1.62e-05 < 0.01
Simulation CPU 0 panic: IPC 2.41e-05 < 0.01
Simulation CPU 0 panic: IPC 3.78e-05 < 0.01
Simulation CPU 0 panic: IPC 5.17e-05 < 0.01
Simulation CPU 0 panic: IPC 4.95e-05 < 0.01
Simulation CPU 0 panic: IPC 0.0002053 < 0.01
Simulation CPU 0 panic: IPC 0.0003816 < 0.01
Simulation CPU 0 panic: IPC 0.0003535 < 0.01
Simulation CPU 0 panic: IPC 0.000252 < 0.01
Simulation CPU 0 panic: IPC 0.0006812 < 0.01
Simulation CPU 0 panic: IPC 3.96e-05 < 0.01
Simulation CPU 0 panic: IPC 0.0001518 < 0.01
Simulation CPU 0 panic: IPC 0.0003459 < 0.01
Simulation CPU 0 panic: IPC 1.39e-05 < 0.01
Simulation CPU 0 panic: IPC 0.0004057 < 0.01
Simulation CPU 0 panic: IPC 3.12e-05 < 0.01
Simulation CPU 0 panic: IPC 1.88e-05 < 0.01
Simulation CPU 0 panic: IPC 1.14e-05 < 0.01
Simulation CPU 0 panic: IPC 0.000274 < 0.01
Simulation CPU 0 panic: IPC 9.67e-05 < 0.01
Simulation CPU 0 panic: IPC 0.0001446 < 0.01
Simulation CPU 0 panic: IPC 0.0004042 < 0.01
Simulation CPU 0 panic: IPC 0.0008982 < 0.01
Simulation CPU 0 panic: IPC 0.0002563 < 0.01
Simulation CPU 0 panic: IPC 0.000161 < 0.01
Simulation CPU 0 panic: IPC 0.0001234 < 0.01
Simulation CPU 0 panic: IPC 0.0001119 < 0.01
Simulation CPU 0 panic: IPC 7.83e-05 < 0.01
Simulation CPU 0 panic: IPC 0.0006044 < 0.01
Simulation CPU 0 panic: IPC 1.49e-05 < 0.01
Simulation CPU 0 panic: IPC 0.0003012 < 0.01
Simulation CPU 0 panic: IPC 0.0002754 < 0.01
Simulation CPU 0 panic: IPC 5.3e-06 < 0.01
Simulation CPU 0 panic: IPC 0.0005412 < 0.01
Simulation CPU 0 panic: IPC 0.0002292 < 0.01
Simulation CPU 0 panic: IPC 0.0006179 < 0.01
Simulation CPU 0 panic: IPC 1.62e-05 < 0.01
Simulation CPU 0 panic: IPC 0.000624 < 0.01
Simulation CPU 0 panic: IPC 0.0004406 < 0.01
Simulation CPU 0 panic: IPC 0.0002682 < 0.01
Simulation CPU 0 panic: IPC 0.0004035 < 0.01
Simulation CPU 0 panic: IPC 0.0007626 < 0.01
Simulation CPU 0 panic: IPC 0.0001954 < 0.01
Simulation CPU 0 panic: IPC 4.92e-05 < 0.01
Simulation CPU 0 panic: IPC 0.0002524 < 0.01
Simulation CPU 0 panic: IPC 0.0003848 < 0.01
Simulation CPU 0 panic: IPC 0.0001417 < 0.01
Simulation CPU 0 panic: IPC 0.0002578 < 0.01
Simulation CPU 0 panic: IPC 0.0002692 < 0.01
Simulation CPU 0 panic: IPC 5.2e-05 < 0.01
Simulation CPU 0 panic: IPC 2.56e-05 < 0.01
Simulation CPU 0 panic: IPC 0.0006772 < 0.01
Simulation CPU 0 panic: IPC 6.41e-05 < 0.01
Simulation CPU 0 panic: IPC 7.36e-05 < 0.01
Simulation CPU 0 panic: IPC 0.0001944 < 0.01
Simulation CPU 0 panic: IPC 7.32e-05 < 0.01
Simulation CPU 0 panic: IPC 0.0009355 < 0.01
Simulation CPU 0 panic: IPC 0.0004862 < 0.01
Simulation CPU 0 panic: IPC 0.0016742 < 0.01
Simulation CPU 0 panic: IPC 0.0002276 < 0.01
Simulation CPU 0 panic: IPC 0.0006109 < 0.01
Simulation CPU 0 panic: IPC 0.0003269 < 0.01
Simulation CPU 0 panic: IPC 0.0001231 < 0.01
Simulation CPU 0 panic: IPC 5.91e-05 < 0.01
Simulation CPU 0 panic: IPC 0.0001871 < 0.01
Simulation CPU 0 panic: IPC 0.0003582 < 0.01
Simulation CPU 0 panic: IPC 2.36e-05 < 0.01
Simulation CPU 0 panic: IPC 0.0008499 < 0.01
Simulation CPU 0 panic: IPC 4.06e-05 < 0.01
Simulation CPU 0 panic: IPC 5.74e-05 < 0.01
Simulation CPU 0 panic: IPC 0.0007567 < 0.01
Simulation CPU 0 panic: IPC 5.69e-05 < 0.01
Simulation CPU 0 panic: IPC 9.01e-05 < 0.01
Simulation CPU 0 panic: IPC 0.0001665 < 0.01
Simulation CPU 0 panic: IPC 0.0002031 < 0.01
Simulation CPU 0 panic: IPC 0.0001226 < 0.01
Simulation CPU 0 panic: IPC 0.0004496 < 0.01
Simulation CPU 0 panic: IPC 2.38e-05 < 0.01
Simulation CPU 0 panic: IPC 0.0011129 < 0.01
Simulation CPU 0 panic: IPC 0.000271 < 0.01
Simulation CPU 0 panic: IPC 0.0003288 < 0.01
Simulation CPU 0 panic: IPC 8.96e-05 < 0.01
Simulation CPU 0 panic: IPC 0.0011216 < 0.01
Simulation CPU 0 panic: IPC 1.21e-05 < 0.01
Simulation CPU 0 panic: IPC 0.0017167 < 0.01
Simulation CPU 0 panic: IPC 0.0001702 < 0.01
Simulation CPU 0 panic: IPC 0.0010633 < 0.01
Simulation CPU 0 panic: IPC 9.7e-05 < 0.01
Simulation CPU 0 panic: IPC 0.0004995 < 0.01
Simulation CPU 0 panic: IPC 4.22e-05 < 0.01
Simulation CPU 0 panic: IPC 0.0020236 < 0.01
Simulation CPU 0 panic: IPC 0.0004137 < 0.01
Simulation CPU 0 panic: IPC 0.0002729 < 0.01
Simulation CPU 0 panic: IPC 0.0035213 < 0.01
Simulation CPU 0 panic: IPC 0.0005776 < 0.01
Simulation CPU 0 panic: IPC 0.0015934 < 0.01
Simulation CPU 0 panic: IPC 0.0002011 < 0.01
Simulation CPU 0 panic: IPC 8.12e-05 < 0.01
Simulation CPU 0 panic: IPC 0.0003724 < 0.01
Simulation CPU 0 panic: IPC 0.0004801 < 0.01
Simulation CPU 0 panic: IPC 0.0005158 < 0.01
Simulation CPU 0 panic: IPC 6.88e-05 < 0.01
Simulation CPU 0 panic: IPC 0.0004272 < 0.01
Simulation CPU 0 panic: IPC 4.98e-05 < 0.01
Simulation CPU 0 panic: IPC 0.0019386 < 0.01
Simulation CPU 0 panic: IPC 0.0006044 < 0.01
Simulation CPU 0 panic: IPC 0.0011745 < 0.01
Simulation CPU 0 panic: IPC 0.0009843 < 0.01
Simulation CPU 0 panic: IPC 0.0023565 < 0.01
Simulation CPU 0 panic: IPC 2.31e-05 < 0.01
Simulation CPU 0 panic: IPC 0.0017323 < 0.01
Simulation CPU 0 panic: IPC 0.0008731 < 0.01
Simulation CPU 0 panic: IPC 0.0003639 < 0.01
Simulation CPU 0 panic: IPC 0.0002037 < 0.01
Simulation CPU 0 panic: IPC 0.0004434 < 0.01
Simulation CPU 0 panic: IPC 0.0003872 < 0.01
Simulation CPU 0 panic: IPC 0.0010376 < 0.01
Simulation CPU 0 panic: IPC 0.0003176 < 0.01
Simulation CPU 0 panic: IPC 0.0002075 < 0.01
Simulation CPU 0 panic: IPC 0.001792 < 0.01
Simulation CPU 0 panic: IPC 0.0024222 < 0.01
Simulation CPU 0 panic: IPC 0.0010144 < 0.01
Simulation CPU 0 panic: IPC 0.0014461 < 0.01
Simulation CPU 0 panic: IPC 0.0032179 < 0.01
Simulation CPU 0 panic: IPC 0.0002517 < 0.01
Simulation CPU 0 panic: IPC 0.0011276 < 0.01
Simulation CPU 0 panic: IPC 0.0011061 < 0.01
Simulation CPU 0 panic: IPC 0.0001502 < 0.01
Simulation CPU 0 panic: IPC 0.0002236 < 0.01
Simulation CPU 0 panic: IPC 0.0005721 < 0.01
Simulation CPU 0 panic: IPC 0.0049299 < 0.01
Heartbeat CPU 0 instructions: 20000002 cycles: 5859623565 heartbeat IPC: 0.003991 cumulative IPC: 0.003413 (Simulation time: 08 hr 14 min 41 sec)
Simulation CPU 0 panic: IPC 2e-07 < 0.01
Simulation CPU 0 panic: IPC 1.3e-06 < 0.01
Simulation CPU 0 panic: IPC 4.5e-06 < 0.01
Simulation CPU 0 panic: IPC 1.2e-06 < 0.01
Simulation CPU 0 panic: IPC 2.5e-06 < 0.01
Simulation CPU 0 panic: IPC 1.2e-05 < 0.01
Simulation CPU 0 panic: IPC 1.1e-05 < 0.01
Simulation CPU 0 panic: IPC 4.6e-06 < 0.01
Simulation CPU 0 panic: IPC 5.1e-06 < 0.01
Simulation CPU 0 panic: IPC 6.8e-06 < 0.01
Simulation CPU 0 panic: IPC 8.7e-06 < 0.01
Simulation CPU 0 panic: IPC 1.12e-05 < 0.01
Simulation CPU 0 panic: IPC 1.8e-06 < 0.01
Simulation CPU 0 panic: IPC 1.66e-05 < 0.01
Simulation CPU 0 panic: IPC 8.7e-06 < 0.01
Simulation CPU 0 panic: IPC 4.3e-06 < 0.01
Simulation CPU 0 panic: IPC 1.51e-05 < 0.01
Simulation CPU 0 panic: IPC 1.39e-05 < 0.01
Simulation CPU 0 panic: IPC 8.9e-06 < 0.01
Simulation CPU 0 panic: IPC 1.04e-05 < 0.01
Simulation CPU 0 panic: IPC 2.33e-05 < 0.01
Simulation CPU 0 panic: IPC 7.1e-06 < 0.01
Simulation CPU 0 panic: IPC 3.09e-05 < 0.01
Simulation CPU 0 panic: IPC 3.95e-05 < 0.01
Simulation CPU 0 panic: IPC 1.71e-05 < 0.01
Simulation CPU 0 panic: IPC 6.8e-06 < 0.01
Simulation CPU 0 panic: IPC 3.7e-05 < 0.01
Simulation CPU 0 panic: IPC 2.14e-05 < 0.01
Simulation CPU 0 panic: IPC 4.3e-06 < 0.01
Simulation CPU 0 panic: IPC 2.76e-05 < 0.01
Simulation CPU 0 panic: IPC 7.9e-05 < 0.01
Simulation CPU 0 panic: IPC 4.05e-05 < 0.01
Simulation CPU 0 panic: IPC 7.17e-05 < 0.01
Simulation CPU 0 panic: IPC 3.55e-05 < 0.01
Simulation CPU 0 panic: IPC 5.04e-05 < 0.01
Simulation CPU 0 panic: IPC 3.5e-05 < 0.01
Simulation CPU 0 panic: IPC 1.1e-05 < 0.01
Simulation CPU 0 panic: IPC 2.94e-05 < 0.01
Simulation CPU 0 panic: IPC 3.97e-05 < 0.01
Simulation CPU 0 panic: IPC 0.000125 < 0.01
Simulation CPU 0 panic: IPC 1.17e-05 < 0.01
Simulation CPU 0 panic: IPC 3.17e-05 < 0.01
Simulation CPU 0 panic: IPC 0.0001939 < 0.01
Simulation CPU 0 panic: IPC 4.3e-06 < 0.01
Simulation CPU 0 panic: IPC 0.0001068 < 0.01
Simulation CPU 0 panic: IPC 4.11e-05 < 0.01
Simulation CPU 0 panic: IPC 0.0003488 < 0.01
Simulation CPU 0 panic: IPC 4.22e-05 < 0.01
Simulation CPU 0 panic: IPC 4.13e-05 < 0.01
Simulation CPU 0 panic: IPC 7.77e-05 < 0.01
Simulation CPU 0 panic: IPC 8.14e-05 < 0.01
Simulation CPU 0 panic: IPC 9.46e-05 < 0.01
Simulation CPU 0 panic: IPC 0.0001569 < 0.01
Simulation CPU 0 panic: IPC 1.96e-05 < 0.01
Simulation CPU 0 panic: IPC 0.0001126 < 0.01
Simulation CPU 0 panic: IPC 0.0001277 < 0.01
Simulation CPU 0 panic: IPC 8.51e-05 < 0.01
Simulation CPU 0 panic: IPC 0.0001768 < 0.01
Simulation CPU 0 panic: IPC 3.95e-05 < 0.01
Simulation CPU 0 panic: IPC 0.0001695 < 0.01
Simulation CPU 0 panic: IPC 0.0001111 < 0.01
Simulation CPU 0 panic: IPC 4.78e-05 < 0.01
Simulation CPU 0 panic: IPC 0.0001252 < 0.01
Simulation CPU 0 panic: IPC 0.0008467 < 0.01
Simulation CPU 0 panic: IPC 2.17e-05 < 0.01
Simulation CPU 0 panic: IPC 1.62e-05 < 0.01
Simulation CPU 0 panic: IPC 7.3e-05 < 0.01
Simulation CPU 0 panic: IPC 0.0002533 < 0.01
Simulation CPU 0 panic: IPC 0.0002499 < 0.01
Simulation CPU 0 panic: IPC 2.04e-05 < 0.01
Simulation CPU 0 panic: IPC 4.33e-05 < 0.01
Simulation CPU 0 panic: IPC 0.0001348 < 0.01
Simulation CPU 0 panic: IPC 7.92e-05 < 0.01
Simulation CPU 0 panic: IPC 8.1e-05 < 0.01
Simulation CPU 0 panic: IPC 2.71e-05 < 0.01
Simulation CPU 0 panic: IPC 0.0001528 < 0.01
Simulation CPU 0 panic: IPC 6.01e-05 < 0.01
Simulation CPU 0 panic: IPC 1.54e-05 < 0.01
Simulation CPU 0 panic: IPC 2.63e-05 < 0.01
Simulation CPU 0 panic: IPC 5.7e-06 < 0.01
Simulation CPU 0 panic: IPC 0.0001868 < 0.01
Simulation CPU 0 panic: IPC 2.55e-05 < 0.01
Simulation CPU 0 panic: IPC 1.31e-05 < 0.01
Simulation CPU 0 panic: IPC 0.0004005 < 0.01
Simulation CPU 0 panic: IPC 0.0001294 < 0.01
Simulation CPU 0 panic: IPC 7.55e-05 < 0.01
Simulation CPU 0 panic: IPC 0.00038 < 0.01
Simulation CPU 0 panic: IPC 5.57e-05 < 0.01
Simulation CPU 0 panic: IPC 0.0001974 < 0.01
Simulation CPU 0 panic: IPC 0.0005786 < 0.01
Simulation CPU 0 panic: IPC 9.4e-06 < 0.01
Simulation CPU 0 panic: IPC 1.19e-05 < 0.01
Simulation CPU 0 panic: IPC 0.0002427 < 0.01
Simulation CPU 0 panic: IPC 0.0002509 < 0.01
Simulation CPU 0 panic: IPC 5.56e-05 < 0.01
Simulation CPU 0 panic: IPC 0.0001706 < 0.01
Simulation CPU 0 panic: IPC 4.04e-05 < 0.01
Simulation CPU 0 panic: IPC 0.0001518 < 0.01
Simulation CPU 0 panic: IPC 0.0001326 < 0.01
Simulation CPU 0 panic: IPC 6.49e-05 < 0.01
Simulation CPU 0 panic: IPC 0.000194 < 0.01
Simulation CPU 0 panic: IPC 3.4e-05 < 0.01
Simulation CPU 0 panic: IPC 0.0005928 < 0.01
Simulation CPU 0 panic: IPC 0.0001694 < 0.01
Simulation CPU 0 panic: IPC 4.8e-05 < 0.01
Simulation CPU 0 panic: IPC 0.0001112 < 0.01
Simulation CPU 0 panic: IPC 6.21e-05 < 0.01
Simulation CPU 0 panic: IPC 0.0001095 < 0.01
Simulation CPU 0 panic: IPC 0.0001 < 0.01
Simulation CPU 0 panic: IPC 0.0001861 < 0.01
Simulation CPU 0 panic: IPC 0.0001314 < 0.01
Simulation CPU 0 panic: IPC 0.0002772 < 0.01
Simulation CPU 0 panic: IPC 0.0006487 < 0.01
Simulation CPU 0 panic: IPC 8.56e-05 < 0.01
Simulation CPU 0 panic: IPC 8.57e-05 < 0.01
Simulation CPU 0 panic: IPC 8.17e-05 < 0.01
Simulation CPU 0 panic: IPC 2.9e-05 < 0.01
Simulation CPU 0 panic: IPC 0.0001897 < 0.01
Simulation CPU 0 panic: IPC 2.61e-05 < 0.01
Simulation CPU 0 panic: IPC 1.86e-05 < 0.01
Simulation CPU 0 panic: IPC 3.14e-05 < 0.01
Simulation CPU 0 panic: IPC 8.29e-05 < 0.01
Simulation CPU 0 panic: IPC 0.0003039 < 0.01
Simulation CPU 0 panic: IPC 4.3e-05 < 0.01
Simulation CPU 0 panic: IPC 0.0003497 < 0.01
Simulation CPU 0 panic: IPC 0.0002626 < 0.01
Simulation CPU 0 panic: IPC 0.0002498 < 0.01
Simulation CPU 0 panic: IPC 0.000109 < 0.01
Simulation CPU 0 panic: IPC 0.0005098 < 0.01
Simulation CPU 0 panic: IPC 0.0002056 < 0.01
Simulation CPU 0 panic: IPC 9.7e-06 < 0.01
Simulation CPU 0 panic: IPC 5.89e-05 < 0.01
Simulation CPU 0 panic: IPC 0.0003568 < 0.01
Simulation CPU 0 panic: IPC 0.0001968 < 0.01
Simulation CPU 0 panic: IPC 0.0003042 < 0.01
Simulation CPU 0 panic: IPC 0.0001578 < 0.01
Simulation CPU 0 panic: IPC 1.3e-05 < 0.01
Simulation CPU 0 panic: IPC 0.0003903 < 0.01
Simulation CPU 0 panic: IPC 8.39e-05 < 0.01
Simulation CPU 0 panic: IPC 0.0003554 < 0.01
Simulation CPU 0 panic: IPC 0.0011507 < 0.01
Simulation CPU 0 panic: IPC 0.0003622 < 0.01
Simulation CPU 0 panic: IPC 0.0001338 < 0.01
Simulation CPU 0 panic: IPC 0.0002468 < 0.01
Simulation CPU 0 panic: IPC 0.000304 < 0.01
Simulation CPU 0 panic: IPC 1.71e-05 < 0.01
Simulation CPU 0 panic: IPC 5.51e-05 < 0.01
Simulation CPU 0 panic: IPC 2.9e-05 < 0.01
Simulation CPU 0 panic: IPC 0.0002507 < 0.01
Simulation CPU 0 panic: IPC 0.0005764 < 0.01
Simulation CPU 0 panic: IPC 1.04e-05 < 0.01
Simulation CPU 0 panic: IPC 3.87e-05 < 0.01
Simulation CPU 0 panic: IPC 0.00014 < 0.01
Simulation CPU 0 panic: IPC 4.4e-06 < 0.01
Simulation CPU 0 panic: IPC 0.0011559 < 0.01
Simulation CPU 0 panic: IPC 0.0002521 < 0.01
Simulation CPU 0 panic: IPC 0.0003425 < 0.01
Simulation CPU 0 panic: IPC 4.42e-05 < 0.01
Simulation CPU 0 panic: IPC 9.35e-05 < 0.01
Simulation CPU 0 panic: IPC 6.83e-05 < 0.01
Simulation CPU 0 panic: IPC 0.0001484 < 0.01
Simulation CPU 0 panic: IPC 0.0002789 < 0.01
Simulation CPU 0 panic: IPC 0.0001228 < 0.01
Simulation CPU 0 panic: IPC 1.46e-05 < 0.01
Simulation CPU 0 panic: IPC 0.0001518 < 0.01
Simulation CPU 0 panic: IPC 0.0001631 < 0.01
Simulation CPU 0 panic: IPC 0.0001727 < 0.01
Simulation CPU 0 panic: IPC 0.0003224 < 0.01
Simulation CPU 0 panic: IPC 9.1e-06 < 0.01
Simulation CPU 0 panic: IPC 4.28e-05 < 0.01
Simulation CPU 0 panic: IPC 0.0004744 < 0.01
Simulation CPU 0 panic: IPC 0.0006959 < 0.01
Simulation CPU 0 panic: IPC 0.0001137 < 0.01
Simulation CPU 0 panic: IPC 0.0002421 < 0.01
Simulation CPU 0 panic: IPC 0.0005428 < 0.01
Simulation CPU 0 panic: IPC 0.0007276 < 0.01
Simulation CPU 0 panic: IPC 4.4e-06 < 0.01
Simulation CPU 0 panic: IPC 0.0005376 < 0.01
Simulation CPU 0 panic: IPC 2.88e-05 < 0.01
Simulation CPU 0 panic: IPC 0.0004702 < 0.01
Simulation CPU 0 panic: IPC 9.84e-05 < 0.01
Simulation CPU 0 panic: IPC 0.0002854 < 0.01
Simulation CPU 0 panic: IPC 0.0001352 < 0.01
Simulation CPU 0 panic: IPC 1.11e-05 < 0.01
Simulation CPU 0 panic: IPC 0.000379 < 0.01
Simulation CPU 0 panic: IPC 8.5e-06 < 0.01
Simulation CPU 0 panic: IPC 0.0003148 < 0.01
Simulation CPU 0 panic: IPC 0.0003887 < 0.01
Simulation CPU 0 panic: IPC 0.0003474 < 0.01
Simulation CPU 0 panic: IPC 4.3e-06 < 0.01
Simulation CPU 0 panic: IPC 0.000223 < 0.01
Simulation CPU 0 panic: IPC 5.58e-05 < 0.01
Simulation CPU 0 panic: IPC 0.0001658 < 0.01
Simulation CPU 0 panic: IPC 0.0001228 < 0.01
Simulation CPU 0 panic: IPC 0.0006092 < 0.01
Simulation CPU 0 panic: IPC 0.0006614 < 0.01
Simulation CPU 0 panic: IPC 5.65e-05 < 0.01
Simulation CPU 0 panic: IPC 9.89e-05 < 0.01
Simulation CPU 0 panic: IPC 0.0004831 < 0.01
Simulation CPU 0 panic: IPC 2.11e-05 < 0.01
Simulation CPU 0 panic: IPC 0.000197 < 0.01
Simulation CPU 0 panic: IPC 2.19e-05 < 0.01
Simulation CPU 0 panic: IPC 0.0008169 < 0.01
Simulation CPU 0 panic: IPC 0.0008844 < 0.01
Simulation CPU 0 panic: IPC 0.0001471 < 0.01
Simulation CPU 0 panic: IPC 8.91e-05 < 0.01
Simulation CPU 0 panic: IPC 6.78e-05 < 0.01
Simulation CPU 0 panic: IPC 0.000334 < 0.01
Simulation CPU 0 panic: IPC 0.0002733 < 0.01
Simulation CPU 0 panic: IPC 0.000229 < 0.01
Simulation CPU 0 panic: IPC 0.0001019 < 0.01
Simulation CPU 0 panic: IPC 7.73e-05 < 0.01
Simulation CPU 0 panic: IPC 3.57e-05 < 0.01
Simulation CPU 0 panic: IPC 5.28e-05 < 0.01
Simulation CPU 0 panic: IPC 0.0001181 < 0.01
Simulation CPU 0 panic: IPC 7.77e-05 < 0.01
Simulation CPU 0 panic: IPC 6.23e-05 < 0.01
Simulation CPU 0 panic: IPC 0.0004393 < 0.01
Simulation CPU 0 panic: IPC 5.1e-06 < 0.01
Simulation CPU 0 panic: IPC 8.9e-05 < 0.01
Simulation CPU 0 panic: IPC 0.0002086 < 0.01
Simulation CPU 0 panic: IPC 0.00029 < 0.01
Simulation CPU 0 panic: IPC 1.76e-05 < 0.01
Simulation CPU 0 panic: IPC 0.0003894 < 0.01
Simulation CPU 0 panic: IPC 4.15e-05 < 0.01
Simulation CPU 0 panic: IPC 8.53e-05 < 0.01
Simulation CPU 0 panic: IPC 1.94e-05 < 0.01
Simulation CPU 0 panic: IPC 7.81e-05 < 0.01
Simulation CPU 0 panic: IPC 0.0001928 < 0.01
Simulation CPU 0 panic: IPC 4.21e-05 < 0.01
Simulation CPU 0 panic: IPC 1.76e-05 < 0.01
Simulation CPU 0 panic: IPC 1.07e-05 < 0.01
Simulation CPU 0 panic: IPC 4.17e-05 < 0.01
Simulation CPU 0 panic: IPC 1.53e-05 < 0.01
Simulation CPU 0 panic: IPC 0.0003122 < 0.01
Simulation CPU 0 panic: IPC 0.000202 < 0.01
Simulation CPU 0 panic: IPC 5.1e-06 < 0.01
Simulation CPU 0 panic: IPC 6.38e-05 < 0.01
Simulation CPU 0 panic: IPC 0.0004373 < 0.01
Simulation CPU 0 panic: IPC 0.0001486 < 0.01
Simulation CPU 0 panic: IPC 0.0002091 < 0.01
Simulation CPU 0 panic: IPC 0.0001072 < 0.01
Simulation CPU 0 panic: IPC 0.0001429 < 0.01
Simulation CPU 0 panic: IPC 8.17e-05 < 0.01
Simulation CPU 0 panic: IPC 2.1e-05 < 0.01
Simulation CPU 0 panic: IPC 0.0003139 < 0.01
Simulation CPU 0 panic: IPC 0.0001264 < 0.01
Simulation CPU 0 panic: IPC 0.0006449 < 0.01
Simulation CPU 0 panic: IPC 0.0001074 < 0.01
Simulation CPU 0 panic: IPC 0.0001296 < 0.01
Simulation CPU 0 panic: IPC 6.27e-05 < 0.01
Simulation CPU 0 panic: IPC 2.46e-05 < 0.01
Simulation CPU 0 panic: IPC 0.00022 < 0.01
Simulation CPU 0 panic: IPC 0.0008485 < 0.01
Simulation CPU 0 panic: IPC 0.0002906 < 0.01
Simulation CPU 0 panic: IPC 0.0001656 < 0.01
Simulation CPU 0 panic: IPC 0.0001319 < 0.01
Simulation CPU 0 panic: IPC 0.0002867 < 0.01
Simulation CPU 0 panic: IPC 0.000108 < 0.01
Simulation CPU 0 panic: IPC 0.0003691 < 0.01
Simulation CPU 0 panic: IPC 0.0003023 < 0.01
Simulation CPU 0 panic: IPC 0.0002531 < 0.01
Simulation CPU 0 panic: IPC 9.06e-05 < 0.01
Simulation CPU 0 panic: IPC 3.13e-05 < 0.01
Simulation CPU 0 panic: IPC 0.0005034 < 0.01
Simulation CPU 0 panic: IPC 3.01e-05 < 0.01
Simulation CPU 0 panic: IPC 0.0011624 < 0.01
Simulation CPU 0 panic: IPC 0.0004178 < 0.01
Simulation CPU 0 panic: IPC 0.0004944 < 0.01
Simulation CPU 0 panic: IPC 0.0001229 < 0.01
Simulation CPU 0 panic: IPC 0.0007805 < 0.01
Simulation CPU 0 panic: IPC 9.49e-05 < 0.01
Simulation CPU 0 panic: IPC 0.0002816 < 0.01
Simulation CPU 0 panic: IPC 2.1e-06 < 0.01
Simulation CPU 0 panic: IPC 0.0002647 < 0.01
Simulation CPU 0 panic: IPC 9.12e-05 < 0.01
Simulation CPU 0 panic: IPC 0.0004271 < 0.01
Simulation CPU 0 panic: IPC 6.08e-05 < 0.01
Simulation CPU 0 panic: IPC 0.0001186 < 0.01
Simulation CPU 0 panic: IPC 0.0001622 < 0.01
Simulation CPU 0 panic: IPC 0.000209 < 0.01
Simulation CPU 0 panic: IPC 0.0001247 < 0.01
Simulation CPU 0 panic: IPC 4.03e-05 < 0.01
Simulation CPU 0 panic: IPC 2.24e-05 < 0.01
Simulation CPU 0 panic: IPC 0.000262 < 0.01
Simulation CPU 0 panic: IPC 3.53e-05 < 0.01
Simulation CPU 0 panic: IPC 0.000102 < 0.01
Simulation CPU 0 panic: IPC 0.0001811 < 0.01
Simulation CPU 0 panic: IPC 4.36e-05 < 0.01
Simulation CPU 0 panic: IPC 0.0005 < 0.01
Simulation CPU 0 panic: IPC 0.0002208 < 0.01
Simulation CPU 0 panic: IPC 0.0006199 < 0.01
Simulation CPU 0 panic: IPC 2.53e-05 < 0.01
Simulation CPU 0 panic: IPC 0.0001688 < 0.01
Simulation CPU 0 panic: IPC 0.0007948 < 0.01
Simulation CPU 0 panic: IPC 0.0002768 < 0.01
Simulation CPU 0 panic: IPC 8.6e-06 < 0.01
Simulation CPU 0 panic: IPC 0.0003499 < 0.01
Simulation CPU 0 panic: IPC 0.000323 < 0.01
Simulation CPU 0 panic: IPC 7.77e-05 < 0.01
Simulation CPU 0 panic: IPC 5.61e-05 < 0.01
Simulation CPU 0 panic: IPC 0.0002608 < 0.01
Simulation CPU 0 panic: IPC 7.46e-05 < 0.01
Simulation CPU 0 panic: IPC 0.0002379 < 0.01
Simulation CPU 0 panic: IPC 0.0001566 < 0.01
Simulation CPU 0 panic: IPC 1.14e-05 < 0.01
Simulation CPU 0 panic: IPC 0.0001794 < 0.01
Simulation CPU 0 panic: IPC 0.0003136 < 0.01
Simulation CPU 0 panic: IPC 0.0005114 < 0.01
Simulation CPU 0 panic: IPC 0.0001045 < 0.01
Simulation CPU 0 panic: IPC 0.0007922 < 0.01
Simulation CPU 0 panic: IPC 0.000485 < 0.01
Simulation CPU 0 panic: IPC 0.0002233 < 0.01
Simulation CPU 0 panic: IPC 0.0002474 < 0.01
Simulation CPU 0 panic: IPC 0.0001173 < 0.01
Simulation CPU 0 panic: IPC 1.81e-05 < 0.01
Simulation CPU 0 panic: IPC 0.0002717 < 0.01
Simulation CPU 0 panic: IPC 0.0002939 < 0.01
Simulation CPU 0 panic: IPC 4e-05 < 0.01
Simulation CPU 0 panic: IPC 6.4e-06 < 0.01
Simulation CPU 0 panic: IPC 0.0012433 < 0.01
Simulation CPU 0 panic: IPC 0.000115 < 0.01
Simulation CPU 0 panic: IPC 5.38e-05 < 0.01
Simulation CPU 0 panic: IPC 0.0006427 < 0.01
Simulation CPU 0 panic: IPC 6.99e-05 < 0.01
Simulation CPU 0 panic: IPC 0.0002371 < 0.01
Simulation CPU 0 panic: IPC 8.97e-05 < 0.01
Simulation CPU 0 panic: IPC 0.0002711 < 0.01
Simulation CPU 0 panic: IPC 0.0005678 < 0.01
Simulation CPU 0 panic: IPC 0.0002065 < 0.01
Simulation CPU 0 panic: IPC 0.0001829 < 0.01
Simulation CPU 0 panic: IPC 0.0001029 < 0.01
Simulation CPU 0 panic: IPC 3.13e-05 < 0.01
Simulation CPU 0 panic: IPC 4.35e-05 < 0.01
Simulation CPU 0 panic: IPC 0.000262 < 0.01
Simulation CPU 0 panic: IPC 0.000339 < 0.01
Simulation CPU 0 panic: IPC 0.0001928 < 0.01
Simulation CPU 0 panic: IPC 0.000647 < 0.01
Simulation CPU 0 panic: IPC 0.0003275 < 0.01
Simulation CPU 0 panic: IPC 7.3e-05 < 0.01
Simulation CPU 0 panic: IPC 0.0001096 < 0.01
Simulation CPU 0 panic: IPC 0.0002002 < 0.01
Simulation CPU 0 panic: IPC 0.0001027 < 0.01
Simulation CPU 0 panic: IPC 3.77e-05 < 0.01
Simulation CPU 0 panic: IPC 7.95e-05 < 0.01
Simulation CPU 0 panic: IPC 3.04e-05 < 0.01
Simulation CPU 0 panic: IPC 0.0003393 < 0.01
Simulation CPU 0 panic: IPC 0.0001866 < 0.01
Simulation CPU 0 panic: IPC 0.0003179 < 0.01
Simulation CPU 0 panic: IPC 0.0002887 < 0.01
Simulation CPU 0 panic: IPC 0.000205 < 0.01
Simulation CPU 0 panic: IPC 2.87e-05 < 0.01
Simulation CPU 0 panic: IPC 6.03e-05 < 0.01
Simulation CPU 0 panic: IPC 0.0002131 < 0.01
Simulation CPU 0 panic: IPC 0.0002862 < 0.01
Simulation CPU 0 panic: IPC 3.92e-05 < 0.01
Simulation CPU 0 panic: IPC 3.46e-05 < 0.01
Simulation CPU 0 panic: IPC 0.0002005 < 0.01
Simulation CPU 0 panic: IPC 0.0005747 < 0.01
Simulation CPU 0 panic: IPC 0.0001108 < 0.01
Simulation CPU 0 panic: IPC 0.0001899 < 0.01
Simulation CPU 0 panic: IPC 0.000147 < 0.01
Simulation CPU 0 panic: IPC 0.0002102 < 0.01
Simulation CPU 0 panic: IPC 0.0002241 < 0.01
Simulation CPU 0 panic: IPC 0.0004685 < 0.01
Simulation CPU 0 panic: IPC 0.0001088 < 0.01
Simulation CPU 0 panic: IPC 0.0002746 < 0.01
Simulation CPU 0 panic: IPC 5.02e-05 < 0.01
Simulation CPU 0 panic: IPC 9.95e-05 < 0.01
Simulation CPU 0 panic: IPC 4.41e-05 < 0.01
Simulation CPU 0 panic: IPC 0.0001172 < 0.01
Simulation CPU 0 panic: IPC 0.0004682 < 0.01
Simulation CPU 0 panic: IPC 0.0003783 < 0.01
Simulation CPU 0 panic: IPC 5.91e-05 < 0.01
Simulation CPU 0 panic: IPC 0.0005729 < 0.01
Simulation CPU 0 panic: IPC 5.59e-05 < 0.01
Simulation CPU 0 panic: IPC 1.87e-05 < 0.01
Simulation CPU 0 panic: IPC 0.0001355 < 0.01
Simulation CPU 0 panic: IPC 8.82e-05 < 0.01
Simulation CPU 0 panic: IPC 0.0006069 < 0.01
Simulation CPU 0 panic: IPC 2.18e-05 < 0.01
Simulation CPU 0 panic: IPC 0.0002503 < 0.01
Simulation CPU 0 panic: IPC 0.0002295 < 0.01
Simulation CPU 0 panic: IPC 0.0007559 < 0.01
Simulation CPU 0 panic: IPC 0.0004173 < 0.01
Simulation CPU 0 panic: IPC 3.09e-05 < 0.01
Simulation CPU 0 panic: IPC 0.0008507 < 0.01
Simulation CPU 0 panic: IPC 0.0001961 < 0.01
Simulation CPU 0 panic: IPC 2.97e-05 < 0.01
Simulation CPU 0 panic: IPC 0.0008716 < 0.01
Simulation CPU 0 panic: IPC 0.0004794 < 0.01
Simulation CPU 0 panic: IPC 2.82e-05 < 0.01
Simulation CPU 0 panic: IPC 0.0003551 < 0.01
Simulation CPU 0 panic: IPC 2.44e-05 < 0.01
Simulation CPU 0 panic: IPC 0.0018517 < 0.01
Simulation CPU 0 panic: IPC 0.000683 < 0.01
Simulation CPU 0 panic: IPC 0.0010219 < 0.01
Simulation CPU 0 panic: IPC 0.0001906 < 0.01
Simulation CPU 0 panic: IPC 0.0003783 < 0.01
Simulation CPU 0 panic: IPC 0.0004302 < 0.01
Simulation CPU 0 panic: IPC 2.3e-06 < 0.01
Simulation CPU 0 panic: IPC 0.0002825 < 0.01
Simulation CPU 0 panic: IPC 7.46e-05 < 0.01
Simulation CPU 0 panic: IPC 4.15e-05 < 0.01
Simulation CPU 0 panic: IPC 6.1e-06 < 0.01
Simulation CPU 0 panic: IPC 0.0004331 < 0.01
Simulation CPU 0 panic: IPC 6.17e-05 < 0.01
Simulation CPU 0 panic: IPC 0.0001894 < 0.01
Simulation CPU 0 panic: IPC 0.0002855 < 0.01
Simulation CPU 0 panic: IPC 0.0001729 < 0.01
Simulation CPU 0 panic: IPC 0.0002951 < 0.01
Simulation CPU 0 panic: IPC 4.1e-05 < 0.01
Simulation CPU 0 panic: IPC 9.01e-05 < 0.01
Simulation CPU 0 panic: IPC 4.96e-05 < 0.01
Simulation CPU 0 panic: IPC 5.58e-05 < 0.01
Simulation CPU 0 panic: IPC 0.0003167 < 0.01
Simulation CPU 0 panic: IPC 0.0002774 < 0.01
Simulation CPU 0 panic: IPC 0.0002782 < 0.01
Simulation CPU 0 panic: IPC 3.43e-05 < 0.01
Simulation CPU 0 panic: IPC 8.24e-05 < 0.01
Simulation CPU 0 panic: IPC 0.0007259 < 0.01
Simulation CPU 0 panic: IPC 0.0003604 < 0.01
Simulation CPU 0 panic: IPC 1.56e-05 < 0.01
Simulation CPU 0 panic: IPC 0.0001762 < 0.01
Simulation CPU 0 panic: IPC 0.0002859 < 0.01
Simulation CPU 0 panic: IPC 0.0010916 < 0.01
Simulation CPU 0 panic: IPC 0.001065 < 0.01
Simulation CPU 0 panic: IPC 1.8e-06 < 0.01
Simulation CPU 0 panic: IPC 0.0011213 < 0.01
Simulation CPU 0 panic: IPC 0.0002427 < 0.01
Simulation CPU 0 panic: IPC 0.0005411 < 0.01
Simulation CPU 0 panic: IPC 0.0003029 < 0.01
Simulation CPU 0 panic: IPC 0.0001096 < 0.01
Simulation CPU 0 panic: IPC 0.0004023 < 0.01
Simulation CPU 0 panic: IPC 0.0005972 < 0.01
Simulation CPU 0 panic: IPC 8.07e-05 < 0.01
Simulation CPU 0 panic: IPC 0.0003685 < 0.01
Simulation CPU 0 panic: IPC 0.0001653 < 0.01
Simulation CPU 0 panic: IPC 0.0008265 < 0.01
Simulation CPU 0 panic: IPC 0.001385 < 0.01
Simulation CPU 0 panic: IPC 8.43e-05 < 0.01
Simulation CPU 0 panic: IPC 0.0012837 < 0.01
Simulation CPU 0 panic: IPC 0.0018117 < 0.01
Simulation CPU 0 panic: IPC 2.33e-05 < 0.01
Simulation CPU 0 panic: IPC 0.001022 < 0.01
Simulation CPU 0 panic: IPC 0.0008945 < 0.01
Simulation CPU 0 panic: IPC 9.55e-05 < 0.01
Simulation CPU 0 panic: IPC 0.0011197 < 0.01
Heartbeat CPU 0 instructions: 30000002 cycles: 10362439775 heartbeat IPC: 0.002221 cumulative IPC: 0.002895 (Simulation time: 14 hr 16 min 16 sec)
Heartbeat CPU 0 instructions: 40000005 cycles: 10372598613 heartbeat IPC: 0.9844 cumulative IPC: 0.003856 (Simulation time: 14 hr 17 min 30 sec)
Simulation CPU 0 panic: IPC 1.09e-05 < 0.01
Simulation CPU 0 panic: IPC 0.0002232 < 0.01
Simulation CPU 0 panic: IPC 0.0001449 < 0.01
Simulation CPU 0 panic: IPC 0.0005373 < 0.01
Simulation CPU 0 panic: IPC 0.000802 < 0.01
Simulation CPU 0 panic: IPC 0.0018511 < 0.01
Simulation CPU 0 panic: IPC 0.0006917 < 0.01
Simulation CPU 0 panic: IPC 0.0043945 < 0.01
Simulation CPU 0 panic: IPC 0.0001536 < 0.01
Simulation CPU 0 panic: IPC 0.0001136 < 0.01
Simulation CPU 0 panic: IPC 0.001236 < 0.01
Simulation CPU 0 panic: IPC 0.0011719 < 0.01
Simulation CPU 0 panic: IPC 0.0008616 < 0.01
Simulation CPU 0 panic: IPC 0.0004781 < 0.01
Simulation CPU 0 panic: IPC 0.0003362 < 0.01
Simulation CPU 0 panic: IPC 0.0004577 < 0.01
Simulation CPU 0 panic: IPC 0.0014182 < 0.01
Simulation CPU 0 panic: IPC 0.003327 < 0.01
Simulation CPU 0 panic: IPC 0.0042695 < 0.01
Simulation CPU 0 panic: IPC 0.0004507 < 0.01
Simulation CPU 0 panic: IPC 0.0039655 < 0.01
Simulation CPU 0 panic: IPC 0.0001885 < 0.01
Simulation CPU 0 panic: IPC 0.0010644 < 0.01
Simulation CPU 0 panic: IPC 0.0027768 < 0.01
Simulation CPU 0 panic: IPC 0.0009948 < 0.01
Simulation CPU 0 panic: IPC 0.0002379 < 0.01
Simulation CPU 0 panic: IPC 0.0038665 < 0.01
Simulation CPU 0 panic: IPC 8.26e-05 < 0.01
Simulation CPU 0 panic: IPC 0.002507 < 0.01
Simulation CPU 0 panic: IPC 0.0040519 < 0.01
Simulation CPU 0 panic: IPC 0.0036955 < 0.01
Simulation CPU 0 panic: IPC 0.0023399 < 0.01
Simulation CPU 0 panic: IPC 0.0050389 < 0.01
Simulation CPU 0 panic: IPC 0.0023981 < 0.01
Simulation CPU 0 panic: IPC 0.0009652 < 0.01
Simulation CPU 0 panic: IPC 0.0014659 < 0.01
Simulation CPU 0 panic: IPC 0.0016552 < 0.01
Simulation CPU 0 panic: IPC 0.0012115 < 0.01
Simulation CPU 0 panic: IPC 0.0019959 < 0.01
Simulation CPU 0 panic: IPC 0.0013098 < 0.01
Simulation CPU 0 panic: IPC 0.0041551 < 0.01
Simulation CPU 0 panic: IPC 0.0025454 < 0.01
Simulation CPU 0 panic: IPC 0.0017551 < 0.01
Simulation CPU 0 panic: IPC 0.0009659 < 0.01
Simulation CPU 0 critical: IPC 0.011097 < 0.02
Simulation CPU 0 panic: IPC 0.001022 < 0.01
Simulation CPU 0 panic: IPC 0.0005779 < 0.01
Simulation CPU 0 panic: IPC 0.0023576 < 0.01
Simulation CPU 0 panic: IPC 0.0058939 < 0.01
Simulation CPU 0 panic: IPC 0.0009893 < 0.01
Simulation CPU 0 panic: IPC 0.0005063 < 0.01
Simulation CPU 0 panic: IPC 0.005345 < 0.01
Simulation CPU 0 panic: IPC 0.0016333 < 0.01
Simulation CPU 0 panic: IPC 0.0038256 < 0.01
Simulation CPU 0 panic: IPC 0.0008069 < 0.01
Simulation CPU 0 panic: IPC 0.0005036 < 0.01
Simulation CPU 0 panic: IPC 0.000706 < 0.01
Simulation CPU 0 panic: IPC 0.002116 < 0.01
Simulation CPU 0 panic: IPC 0.0039969 < 0.01
Simulation CPU 0 panic: IPC 0.0004757 < 0.01
Simulation CPU 0 panic: IPC 0.004217 < 0.01
Simulation CPU 0 panic: IPC 0.0035931 < 0.01
Simulation CPU 0 panic: IPC 0.0014995 < 0.01
Simulation CPU 0 panic: IPC 0.0018213 < 0.01
Simulation CPU 0 panic: IPC 0.0002664 < 0.01
Simulation CPU 0 panic: IPC 0.0019407 < 0.01
Simulation CPU 0 panic: IPC 0.0026608 < 0.01
Simulation CPU 0 panic: IPC 0.0018177 < 0.01
Simulation CPU 0 panic: IPC 0.0039653 < 0.01
Simulation CPU 0 panic: IPC 0.0035213 < 0.01
Simulation CPU 0 panic: IPC 0.0009275 < 0.01
Simulation CPU 0 panic: IPC 0.0025717 < 0.01
Simulation CPU 0 panic: IPC 0.0001925 < 0.01
Simulation CPU 0 panic: IPC 0.004238 < 0.01
Simulation CPU 0 panic: IPC 0.0004441 < 0.01
Simulation CPU 0 panic: IPC 0.0049101 < 0.01
Simulation CPU 0 panic: IPC 0.0033325 < 0.01
Simulation CPU 0 panic: IPC 0.0013515 < 0.01
Simulation CPU 0 panic: IPC 0.0043376 < 0.01
Simulation CPU 0 panic: IPC 0.0024248 < 0.01
Simulation CPU 0 panic: IPC 0.0055995 < 0.01
Simulation CPU 0 panic: IPC 0.0002012 < 0.01
Simulation CPU 0 panic: IPC 0.0060398 < 0.01
Simulation CPU 0 panic: IPC 0.0002445 < 0.01
Simulation CPU 0 panic: IPC 0.0001638 < 0.01
Simulation CPU 0 panic: IPC 0.0013849 < 0.01
Simulation CPU 0 panic: IPC 0.0006916 < 0.01
Simulation CPU 0 panic: IPC 0.0008969 < 0.01
Simulation CPU 0 panic: IPC 0.0058898 < 0.01
Simulation CPU 0 panic: IPC 0.0018609 < 0.01
Simulation CPU 0 panic: IPC 0.0046014 < 0.01
Simulation CPU 0 panic: IPC 0.0010527 < 0.01
Simulation CPU 0 panic: IPC 0.0037237 < 0.01
Simulation CPU 0 panic: IPC 0.0018712 < 0.01
Simulation CPU 0 panic: IPC 0.0001619 < 0.01
Simulation CPU 0 panic: IPC 0.0002635 < 0.01
Simulation CPU 0 panic: IPC 0.0027166 < 0.01
Simulation CPU 0 panic: IPC 0.0001772 < 0.01
Simulation CPU 0 panic: IPC 0.0011788 < 0.01
Simulation CPU 0 panic: IPC 0.0005091 < 0.01
Simulation CPU 0 panic: IPC 7.05e-05 < 0.01
Simulation CPU 0 panic: IPC 0.0001396 < 0.01
Simulation CPU 0 panic: IPC 0.0016226 < 0.01
Simulation CPU 0 panic: IPC 0.0023876 < 0.01
Simulation CPU 0 panic: IPC 9.71e-05 < 0.01
Simulation CPU 0 panic: IPC 0.0049168 < 0.01
Simulation CPU 0 critical: IPC 0.011131 < 0.02
Simulation CPU 0 panic: IPC 0.0021724 < 0.01
Simulation CPU 0 panic: IPC 0.0020781 < 0.01
Simulation CPU 0 panic: IPC 0.0003764 < 0.01
Simulation CPU 0 panic: IPC 0.0047292 < 0.01
Simulation CPU 0 panic: IPC 0.000702 < 0.01
Simulation CPU 0 panic: IPC 0.0047868 < 0.01
Simulation CPU 0 panic: IPC 0.0002701 < 0.01
Simulation CPU 0 panic: IPC 0.0024955 < 0.01
Simulation CPU 0 panic: IPC 0.0006319 < 0.01
Simulation CPU 0 panic: IPC 0.0038167 < 0.01
Simulation CPU 0 panic: IPC 5.04e-05 < 0.01
Simulation CPU 0 panic: IPC 0.0088605 < 0.01
Simulation CPU 0 panic: IPC 0.0030732 < 0.01
Simulation CPU 0 panic: IPC 0.0003776 < 0.01
Simulation CPU 0 panic: IPC 0.0033511 < 0.01
Simulation CPU 0 panic: IPC 0.0086842 < 0.01
Simulation CPU 0 panic: IPC 0.0008329 < 0.01
Simulation CPU 0 panic: IPC 0.0063675 < 0.01
Simulation CPU 0 panic: IPC 0.0010047 < 0.01
Simulation CPU 0 panic: IPC 0.0008566 < 0.01
Simulation CPU 0 panic: IPC 0.0005742 < 0.01
Simulation CPU 0 panic: IPC 0.00121 < 0.01
Simulation CPU 0 panic: IPC 0.001071 < 0.01
Simulation CPU 0 panic: IPC 0.0028446 < 0.01
Simulation CPU 0 panic: IPC 0.0017474 < 0.01
Simulation CPU 0 panic: IPC 0.0043461 < 0.01
Simulation CPU 0 panic: IPC 0.0055777 < 0.01
Simulation CPU 0 panic: IPC 0.0017838 < 0.01
Simulation CPU 0 panic: IPC 0.0018997 < 0.01
Simulation CPU 0 panic: IPC 0.0017735 < 0.01
Simulation CPU 0 panic: IPC 0.001565 < 0.01
Simulation CPU 0 panic: IPC 0.002997 < 0.01
Simulation CPU 0 panic: IPC 0.0002374 < 0.01
Simulation CPU 0 panic: IPC 0.0023981 < 0.01
Simulation CPU 0 panic: IPC 0.0010499 < 0.01
Simulation CPU 0 panic: IPC 0.0026072 < 0.01
Simulation CPU 0 panic: IPC 0.0010872 < 0.01
Simulation CPU 0 panic: IPC 0.0018779 < 0.01
Simulation CPU 0 panic: IPC 0.0005511 < 0.01
Simulation CPU 0 panic: IPC 0.0061565 < 0.01
Simulation CPU 0 panic: IPC 0.0030584 < 0.01
Simulation CPU 0 panic: IPC 1.18e-05 < 0.01
Simulation CPU 0 panic: IPC 0.0005595 < 0.01
Simulation CPU 0 panic: IPC 0.0007938 < 0.01
Simulation CPU 0 panic: IPC 0.0009042 < 0.01
Simulation CPU 0 panic: IPC 0.0005772 < 0.01
Simulation CPU 0 panic: IPC 0.0006617 < 0.01
Simulation CPU 0 panic: IPC 0.0056233 < 0.01
Simulation CPU 0 panic: IPC 0.0024556 < 0.01
Simulation CPU 0 panic: IPC 0.0009825 < 0.01
Simulation CPU 0 panic: IPC 0.0013106 < 0.01
Simulation CPU 0 panic: IPC 0.0001617 < 0.01
Simulation CPU 0 panic: IPC 0.0016575 < 0.01
Simulation CPU 0 panic: IPC 0.004623 < 0.01
Simulation CPU 0 panic: IPC 0.0012968 < 0.01
Simulation CPU 0 panic: IPC 0.0006322 < 0.01
Simulation CPU 0 panic: IPC 0.0006884 < 0.01
Simulation CPU 0 panic: IPC 0.001009 < 0.01
Simulation CPU 0 panic: IPC 0.0038769 < 0.01
Simulation CPU 0 panic: IPC 0.0007594 < 0.01
Simulation CPU 0 panic: IPC 0.0019421 < 0.01
Simulation CPU 0 panic: IPC 0.0006368 < 0.01
Simulation CPU 0 panic: IPC 0.0012415 < 0.01
Simulation CPU 0 panic: IPC 0.0062068 < 0.01
Simulation CPU 0 panic: IPC 0.0053697 < 0.01
Simulation CPU 0 panic: IPC 2.92e-05 < 0.01
Simulation CPU 0 panic: IPC 0.00192 < 0.01
Simulation CPU 0 panic: IPC 0.001401 < 0.01
Simulation CPU 0 panic: IPC 0.0014887 < 0.01
Simulation CPU 0 panic: IPC 0.0036257 < 0.01
Simulation CPU 0 panic: IPC 0.0005362 < 0.01
Simulation CPU 0 panic: IPC 0.0007185 < 0.01
Simulation CPU 0 panic: IPC 0.0031278 < 0.01
Simulation CPU 0 panic: IPC 0.0001112 < 0.01
Simulation CPU 0 panic: IPC 0.0063878 < 0.01
Simulation CPU 0 panic: IPC 0.0020873 < 0.01
Simulation CPU 0 panic: IPC 0.0009473 < 0.01
Simulation CPU 0 panic: IPC 0.0027472 < 0.01
Simulation CPU 0 panic: IPC 0.0023522 < 0.01
Simulation CPU 0 panic: IPC 0.0009493 < 0.01
Simulation CPU 0 panic: IPC 0.0005279 < 0.01
Simulation CPU 0 panic: IPC 0.0035134 < 0.01
Simulation CPU 0 panic: IPC 0.0055791 < 0.01
Simulation CPU 0 warning: IPC 0.042241 < 0.05
Heartbeat CPU 0 instructions: 50000005 cycles: 12301042494 heartbeat IPC: 0.005186 cumulative IPC: 0.004065 (Simulation time: 16 hr 50 min 38 sec)
Heartbeat CPU 0 instructions: 60000005 cycles: 12316045445 heartbeat IPC: 0.6665 cumulative IPC: 0.004872 (Simulation time: 16 hr 52 min 18 sec)
Heartbeat CPU 0 instructions: 70000005 cycles: 12331682045 heartbeat IPC: 0.6395 cumulative IPC: 0.005676 (Simulation time: 16 hr 54 min 04 sec)
Heartbeat CPU 0 instructions: 80000007 cycles: 12341467017 heartbeat IPC: 1.022 cumulative IPC: 0.006482 (Simulation time: 16 hr 55 min 18 sec)
Heartbeat CPU 0 instructions: 90000007 cycles: 12351827785 heartbeat IPC: 0.9652 cumulative IPC: 0.007286 (Simulation time: 16 hr 56 min 36 sec)
Heartbeat CPU 0 instructions: 100000008 cycles: 12361089499 heartbeat IPC: 1.08 cumulative IPC: 0.00809 (Simulation time: 16 hr 57 min 46 sec)
Heartbeat CPU 0 instructions: 110000012 cycles: 12380696725 heartbeat IPC: 0.51 cumulative IPC: 0.008885 (Simulation time: 16 hr 59 min 54 sec)
Heartbeat CPU 0 instructions: 120000014 cycles: 12394098669 heartbeat IPC: 0.7462 cumulative IPC: 0.009682 (Simulation time: 17 hr 01 min 22 sec)
Heartbeat CPU 0 instructions: 130000016 cycles: 12404672371 heartbeat IPC: 0.9457 cumulative IPC: 0.01048 (Simulation time: 17 hr 02 min 25 sec)
Simulation CPU 0 critical: IPC 0.015499 < 0.02
Simulation CPU 0 panic: IPC 0.0045065 < 0.01
Simulation CPU 0 panic: IPC 0.0002275 < 0.01
Simulation CPU 0 warning: IPC 0.03943 < 0.05
Simulation CPU 0 panic: IPC 0.0035797 < 0.01
Simulation CPU 0 panic: IPC 0.000357 < 0.01
Simulation CPU 0 panic: IPC 0.0001088 < 0.01
Simulation CPU 0 critical: IPC 0.016886 < 0.02
Simulation CPU 0 panic: IPC 0.0035105 < 0.01
Simulation CPU 0 panic: IPC 0.0028688 < 0.01
Simulation CPU 0 panic: IPC 0.0045273 < 0.01
Simulation CPU 0 panic: IPC 0.0014785 < 0.01
Simulation CPU 0 panic: IPC 0.0093019 < 0.01
Simulation CPU 0 critical: IPC 0.012603 < 0.02
Simulation CPU 0 panic: IPC 0.0019676 < 0.01
Simulation CPU 0 panic: IPC 0.0079056 < 0.01
Simulation CPU 0 panic: IPC 6.29e-05 < 0.01
Simulation CPU 0 panic: IPC 0.0045969 < 0.01
Simulation CPU 0 panic: IPC 0.0067695 < 0.01
Simulation CPU 0 panic: IPC 0.0034548 < 0.01
Simulation CPU 0 panic: IPC 0.0087781 < 0.01
Simulation CPU 0 critical: IPC 0.014632 < 0.02
Simulation CPU 0 panic: IPC 0.0010875 < 0.01
Simulation CPU 0 critical: IPC 0.011929 < 0.02
Simulation CPU 0 critical: IPC 0.010006 < 0.02
Simulation CPU 0 critical: IPC 0.016832 < 0.02
Simulation CPU 0 panic: IPC 0.0064024 < 0.01
Heartbeat CPU 0 instructions: 140000020 cycles: 12698831834 heartbeat IPC: 0.034 cumulative IPC: 0.01102 (Simulation time: 17 hr 25 min 16 sec)
Simulation CPU 0 warning: IPC 0.025293 < 0.05
Simulation CPU 0 panic: IPC 0.0067201 < 0.01
Simulation CPU 0 panic: IPC 0.0091198 < 0.01
Simulation CPU 0 panic: IPC 0.0042005 < 0.01
Simulation CPU 0 panic: IPC 0.0039546 < 0.01
Simulation CPU 0 panic: IPC 0.0082611 < 0.01
Simulation CPU 0 panic: IPC 0.0066303 < 0.01
Simulation CPU 0 panic: IPC 0.0023496 < 0.01
Simulation CPU 0 panic: IPC 0.0063523 < 0.01
Simulation CPU 0 panic: IPC 0.0023258 < 0.01
Simulation CPU 0 panic: IPC 0.0068166 < 0.01
Simulation CPU 0 warning: IPC 0.02462 < 0.05
Simulation CPU 0 critical: IPC 0.017064 < 0.02
Simulation CPU 0 panic: IPC 0.0071573 < 0.01
Simulation CPU 0 warning: IPC 0.038399 < 0.05
Simulation CPU 0 panic: IPC 0.0009689 < 0.01
Simulation CPU 0 panic: IPC 0.0029348 < 0.01
Simulation CPU 0 critical: IPC 0.01162 < 0.02
Simulation CPU 0 critical: IPC 0.011349 < 0.02
Simulation CPU 0 panic: IPC 0.0039513 < 0.01
Simulation CPU 0 panic: IPC 0.009105 < 0.01
Simulation CPU 0 panic: IPC 0.0089175 < 0.01
Simulation CPU 0 panic: IPC 0.0090605 < 0.01
Simulation CPU 0 critical: IPC 0.013525 < 0.02
Simulation CPU 0 panic: IPC 0.0036368 < 0.01
Simulation CPU 0 critical: IPC 0.014236 < 0.02
Simulation CPU 0 panic: IPC 0.0028467 < 0.01
Simulation CPU 0 critical: IPC 0.013253 < 0.02
Heartbeat CPU 0 instructions: 150000023 cycles: 12983069752 heartbeat IPC: 0.03518 cumulative IPC: 0.01155 (Simulation time: 17 hr 47 min 24 sec)
Heartbeat CPU 0 instructions: 160000024 cycles: 12994011386 heartbeat IPC: 0.9139 cumulative IPC: 0.01231 (Simulation time: 17 hr 48 min 32 sec)
Heartbeat CPU 0 instructions: 170000024 cycles: 13002070130 heartbeat IPC: 1.241 cumulative IPC: 0.01307 (Simulation time: 17 hr 49 min 25 sec)
Heartbeat CPU 0 instructions: 180000027 cycles: 13030743896 heartbeat IPC: 0.3488 cumulative IPC: 0.01381 (Simulation time: 17 hr 51 min 43 sec)
Heartbeat CPU 0 instructions: 190000027 cycles: 13039217947 heartbeat IPC: 1.18 cumulative IPC: 0.01457 (Simulation time: 17 hr 52 min 34 sec)
Heartbeat CPU 0 instructions: 200000027 cycles: 13050436399 heartbeat IPC: 0.8914 cumulative IPC: 0.01533 (Simulation time: 17 hr 53 min 47 sec)
Heartbeat CPU 0 instructions: 210000027 cycles: 13066896942 heartbeat IPC: 0.6075 cumulative IPC: 0.01607 (Simulation time: 17 hr 55 min 09 sec)
Heartbeat CPU 0 instructions: 220000029 cycles: 13088726098 heartbeat IPC: 0.4581 cumulative IPC: 0.01681 (Simulation time: 17 hr 57 min 07 sec)
Heartbeat CPU 0 instructions: 230000032 cycles: 13099134894 heartbeat IPC: 0.9607 cumulative IPC: 0.01756 (Simulation time: 17 hr 58 min 17 sec)
Heartbeat CPU 0 instructions: 240000033 cycles: 13110661568 heartbeat IPC: 0.8676 cumulative IPC: 0.01831 (Simulation time: 17 hr 59 min 22 sec)
Heartbeat CPU 0 instructions: 250000033 cycles: 13119230195 heartbeat IPC: 1.167 cumulative IPC: 0.01906 (Simulation time: 18 hr 00 min 12 sec)
Simulation CPU 0 panic: IPC 5.3e-06 < 0.01
Simulation CPU 0 panic: IPC 1.2e-06 < 0.01
Simulation CPU 0 warning: IPC 0.04828 < 0.05
Simulation CPU 0 warning: IPC 0.040327 < 0.05
Simulation CPU 0 warning: IPC 0.021081 < 0.05
Simulation CPU 0 warning: IPC 0.034375 < 0.05
Simulation CPU 0 warning: IPC 0.022789 < 0.05
Simulation CPU 0 critical: IPC 0.019893 < 0.02
Simulation CPU 0 warning: IPC 0.024476 < 0.05
Simulation CPU 0 critical: IPC 0.015792 < 0.02
Heartbeat CPU 0 instructions: 260000033 cycles: 13287948294 heartbeat IPC: 0.05927 cumulative IPC: 0.01957 (Simulation time: 18 hr 13 min 57 sec)
Simulation CPU 0 warning: IPC 0.032956 < 0.05
Simulation CPU 0 warning: IPC 0.022298 < 0.05
Simulation CPU 0 critical: IPC 0.011019 < 0.02
Simulation CPU 0 warning: IPC 0.021979 < 0.05
Heartbeat CPU 0 instructions: 270000035 cycles: 13401646672 heartbeat IPC: 0.08795 cumulative IPC: 0.02015 (Simulation time: 18 hr 24 min 00 sec)
Heartbeat CPU 0 instructions: 280000039 cycles: 13418513675 heartbeat IPC: 0.5929 cumulative IPC: 0.02087 (Simulation time: 18 hr 25 min 53 sec)
Heartbeat CPU 0 instructions: 290000039 cycles: 13435275468 heartbeat IPC: 0.5966 cumulative IPC: 0.02158 (Simulation time: 18 hr 27 min 44 sec)
Heartbeat CPU 0 instructions: 300000040 cycles: 13453346937 heartbeat IPC: 0.5534 cumulative IPC: 0.0223 (Simulation time: 18 hr 29 min 42 sec)
Heartbeat CPU 0 instructions: 310000043 cycles: 13464093478 heartbeat IPC: 0.9305 cumulative IPC: 0.02302 (Simulation time: 18 hr 31 min 00 sec)
Heartbeat CPU 0 instructions: 320000043 cycles: 13474731774 heartbeat IPC: 0.94 cumulative IPC: 0.02375 (Simulation time: 18 hr 32 min 17 sec)
Heartbeat CPU 0 instructions: 330000046 cycles: 13497385943 heartbeat IPC: 0.4414 cumulative IPC: 0.02445 (Simulation time: 18 hr 34 min 41 sec)
Heartbeat CPU 0 instructions: 340000049 cycles: 13508040956 heartbeat IPC: 0.9385 cumulative IPC: 0.02517 (Simulation time: 18 hr 35 min 59 sec)
Heartbeat CPU 0 instructions: 350000049 cycles: 13516140584 heartbeat IPC: 1.235 cumulative IPC: 0.02589 (Simulation time: 18 hr 37 min 00 sec)
Heartbeat CPU 0 instructions: 360000050 cycles: 13536543157 heartbeat IPC: 0.4901 cumulative IPC: 0.02659 (Simulation time: 18 hr 39 min 10 sec)
Heartbeat CPU 0 instructions: 370000050 cycles: 13548823087 heartbeat IPC: 0.8143 cumulative IPC: 0.02731 (Simulation time: 18 hr 40 min 33 sec)
Heartbeat CPU 0 instructions: 380000050 cycles: 13558182177 heartbeat IPC: 1.068 cumulative IPC: 0.02803 (Simulation time: 18 hr 41 min 44 sec)
Heartbeat CPU 0 instructions: 390000052 cycles: 13582761766 heartbeat IPC: 0.4068 cumulative IPC: 0.02871 (Simulation time: 18 hr 43 min 51 sec)
Heartbeat CPU 0 instructions: 400000054 cycles: 13606723448 heartbeat IPC: 0.4173 cumulative IPC: 0.0294 (Simulation time: 18 hr 46 min 17 sec)
Heartbeat CPU 0 instructions: 410000054 cycles: 13617223983 heartbeat IPC: 0.9523 cumulative IPC: 0.03011 (Simulation time: 18 hr 47 min 35 sec)
Heartbeat CPU 0 instructions: 420000055 cycles: 13626082869 heartbeat IPC: 1.129 cumulative IPC: 0.03082 (Simulation time: 18 hr 48 min 44 sec)
Heartbeat CPU 0 instructions: 430000056 cycles: 13639554655 heartbeat IPC: 0.7423 cumulative IPC: 0.03153 (Simulation time: 18 hr 50 min 17 sec)
Heartbeat CPU 0 instructions: 440000056 cycles: 13671225422 heartbeat IPC: 0.3157 cumulative IPC: 0.03218 (Simulation time: 18 hr 53 min 32 sec)
Heartbeat CPU 0 instructions: 450000059 cycles: 13679657186 heartbeat IPC: 1.186 cumulative IPC: 0.0329 (Simulation time: 18 hr 54 min 38 sec)
Heartbeat CPU 0 instructions: 460000059 cycles: 13693019546 heartbeat IPC: 0.7484 cumulative IPC: 0.03359 (Simulation time: 18 hr 55 min 55 sec)
Heartbeat CPU 0 instructions: 470000061 cycles: 13701862613 heartbeat IPC: 1.131 cumulative IPC: 0.0343 (Simulation time: 18 hr 57 min 03 sec)
Heartbeat CPU 0 instructions: 480000061 cycles: 13711681981 heartbeat IPC: 1.018 cumulative IPC: 0.03501 (Simulation time: 18 hr 58 min 17 sec)
Heartbeat CPU 0 instructions: 490000061 cycles: 13736847305 heartbeat IPC: 0.3974 cumulative IPC: 0.03567 (Simulation time: 19 hr 00 min 27 sec)
Heartbeat CPU 0 instructions: 500000064 cycles: 13746848868 heartbeat IPC: 0.9998 cumulative IPC: 0.03637 (Simulation time: 19 hr 01 min 20 sec)
Heartbeat CPU 0 instructions: 510000067 cycles: 13758063517 heartbeat IPC: 0.8917 cumulative IPC: 0.03707 (Simulation time: 19 hr 02 min 20 sec)
Heartbeat CPU 0 instructions: 520000068 cycles: 13766610370 heartbeat IPC: 1.17 cumulative IPC: 0.03777 (Simulation time: 19 hr 03 min 15 sec)
Heartbeat CPU 0 instructions: 530000072 cycles: 13776845050 heartbeat IPC: 0.9771 cumulative IPC: 0.03847 (Simulation time: 19 hr 04 min 10 sec)
Simulation CPU 0 panic: IPC 1.3e-06 < 0.01
Simulation CPU 0 panic: IPC 3.8e-06 < 0.01
Simulation CPU 0 panic: IPC 1.3e-06 < 0.01
Simulation CPU 0 panic: IPC 4.1e-06 < 0.01
Simulation CPU 0 panic: IPC 1.2e-06 < 0.01
Simulation CPU 0 warning: IPC 0.033301 < 0.05
Simulation CPU 0 critical: IPC 0.01711 < 0.02
Simulation CPU 0 critical: IPC 0.01688 < 0.02
Simulation CPU 0 critical: IPC 0.012461 < 0.02
Simulation CPU 0 critical: IPC 0.014784 < 0.02
Simulation CPU 0 warning: IPC 0.028683 < 0.05
Simulation CPU 0 critical: IPC 0.018677 < 0.02
Simulation CPU 0 warning: IPC 0.029604 < 0.05
Simulation CPU 0 panic: IPC 0.0068826 < 0.01
Simulation CPU 0 warning: IPC 0.047257 < 0.05
Simulation CPU 0 panic: IPC 5.81e-05 < 0.01
Simulation CPU 0 warning: IPC 0.027268 < 0.05
Simulation CPU 0 critical: IPC 0.010337 < 0.02
Simulation CPU 0 warning: IPC 0.040249 < 0.05
Simulation CPU 0 critical: IPC 0.014793 < 0.02
Simulation CPU 0 critical: IPC 0.011298 < 0.02
Simulation CPU 0 warning: IPC 0.035708 < 0.05
Simulation CPU 0 critical: IPC 0.013475 < 0.02
Heartbeat CPU 0 instructions: 540000073 cycles: 14057925799 heartbeat IPC: 0.03558 cumulative IPC: 0.03841 (Simulation time: 19 hr 25 min 54 sec)
Simulation CPU 0 warning: IPC 0.034467 < 0.05
Simulation CPU 0 panic: IPC 0.0069732 < 0.01
Simulation CPU 0 warning: IPC 0.021373 < 0.05
Simulation CPU 0 warning: IPC 0.047834 < 0.05
Simulation CPU 0 warning: IPC 0.024219 < 0.05
Simulation CPU 0 warning: IPC 0.048049 < 0.05
Simulation CPU 0 critical: IPC 0.010094 < 0.02
Simulation CPU 0 panic: IPC 0.0038699 < 0.01
Simulation CPU 0 panic: IPC 0.003213 < 0.01
Simulation CPU 0 critical: IPC 0.014776 < 0.02
Simulation CPU 0 warning: IPC 0.042481 < 0.05
Simulation CPU 0 warning: IPC 0.024948 < 0.05
Simulation CPU 0 warning: IPC 0.044979 < 0.05
Simulation CPU 0 panic: IPC 0.0093349 < 0.01
Simulation CPU 0 warning: IPC 0.02741 < 0.05
Simulation CPU 0 warning: IPC 0.030843 < 0.05
Simulation CPU 0 warning: IPC 0.026509 < 0.05
Simulation CPU 0 panic: IPC 0.0010005 < 0.01
Simulation CPU 0 warning: IPC 0.044695 < 0.05
Simulation CPU 0 panic: IPC 0.0002928 < 0.01
Simulation CPU 0 critical: IPC 0.019849 < 0.02
Simulation CPU 0 warning: IPC 0.04462 < 0.05
Simulation CPU 0 critical: IPC 0.010106 < 0.02
Simulation CPU 0 warning: IPC 0.040338 < 0.05
Simulation CPU 0 warning: IPC 0.028017 < 0.05
Simulation CPU 0 critical: IPC 0.018078 < 0.02
Simulation CPU 0 critical: IPC 0.018059 < 0.02
Heartbeat CPU 0 instructions: 550000073 cycles: 14373076057 heartbeat IPC: 0.03173 cumulative IPC: 0.03827 (Simulation time: 19 hr 50 min 43 sec)
Simulation CPU 0 warning: IPC 0.032255 < 0.05
Simulation CPU 0 panic: IPC 0.0031207 < 0.01
Simulation CPU 0 panic: IPC 0.0091262 < 0.01
Simulation CPU 0 warning: IPC 0.040667 < 0.05
Simulation CPU 0 warning: IPC 0.028302 < 0.05
Simulation CPU 0 critical: IPC 0.012512 < 0.02
Simulation CPU 0 critical: IPC 0.018424 < 0.02
Simulation CPU 0 critical: IPC 0.017388 < 0.02
Simulation CPU 0 warning: IPC 0.035148 < 0.05
Simulation CPU 0 critical: IPC 0.018185 < 0.02
Simulation CPU 0 warning: IPC 0.023208 < 0.05
Simulation CPU 0 warning: IPC 0.031082 < 0.05
Simulation CPU 0 critical: IPC 0.014411 < 0.02
Simulation CPU 0 warning: IPC 0.021798 < 0.05
Simulation CPU 0 critical: IPC 0.010878 < 0.02
Simulation CPU 0 warning: IPC 0.024586 < 0.05
Simulation CPU 0 critical: IPC 0.017296 < 0.02
Simulation CPU 0 warning: IPC 0.026737 < 0.05
Simulation CPU 0 critical: IPC 0.019242 < 0.02
Simulation CPU 0 critical: IPC 0.016679 < 0.02
Simulation CPU 0 warning: IPC 0.025241 < 0.05
Simulation CPU 0 critical: IPC 0.010289 < 0.02
Simulation CPU 0 warning: IPC 0.025385 < 0.05
Simulation CPU 0 warning: IPC 0.034699 < 0.05
Heartbeat CPU 0 instructions: 560000073 cycles: 14683610962 heartbeat IPC: 0.0322 cumulative IPC: 0.03814 (Simulation time: 20 hr 17 min 49 sec)
Simulation CPU 0 warning: IPC 0.033308 < 0.05
Simulation CPU 0 warning: IPC 0.025707 < 0.05
Simulation CPU 0 critical: IPC 0.015364 < 0.02
Simulation CPU 0 warning: IPC 0.036629 < 0.05
Simulation CPU 0 critical: IPC 0.011111 < 0.02
Simulation CPU 0 warning: IPC 0.030909 < 0.05
Simulation CPU 0 critical: IPC 0.017139 < 0.02
Simulation CPU 0 warning: IPC 0.035095 < 0.05
Simulation CPU 0 panic: IPC 0.0002298 < 0.01
Simulation CPU 0 critical: IPC 0.010524 < 0.02
Simulation CPU 0 panic: IPC 0.0078878 < 0.01
Simulation CPU 0 warning: IPC 0.026456 < 0.05
Simulation CPU 0 critical: IPC 0.018831 < 0.02
Simulation CPU 0 warning: IPC 0.033282 < 0.05
Simulation CPU 0 warning: IPC 0.030388 < 0.05
Simulation CPU 0 critical: IPC 0.018478 < 0.02
Simulation CPU 0 warning: IPC 0.025989 < 0.05
Simulation CPU 0 panic: IPC 0.0023976 < 0.01
Simulation CPU 0 warning: IPC 0.03435 < 0.05
Simulation CPU 0 warning: IPC 0.033582 < 0.05
Heartbeat CPU 0 instructions: 570000073 cycles: 14957865746 heartbeat IPC: 0.03646 cumulative IPC: 0.03811 (Simulation time: 20 hr 41 min 46 sec)
Simulation CPU 0 critical: IPC 0.018544 < 0.02
Simulation CPU 0 warning: IPC 0.023998 < 0.05
Simulation CPU 0 warning: IPC 0.046819 < 0.05
Simulation CPU 0 panic: IPC 0.0071088 < 0.01
Simulation CPU 0 panic: IPC 0.0062214 < 0.01
Simulation CPU 0 warning: IPC 0.030995 < 0.05
Simulation CPU 0 critical: IPC 0.01748 < 0.02
Simulation CPU 0 critical: IPC 0.018102 < 0.02
Simulation CPU 0 warning: IPC 0.044109 < 0.05
Simulation CPU 0 warning: IPC 0.044658 < 0.05
Simulation CPU 0 critical: IPC 0.019941 < 0.02
Simulation CPU 0 critical: IPC 0.016808 < 0.02
Simulation CPU 0 warning: IPC 0.021585 < 0.05
Simulation CPU 0 critical: IPC 0.018697 < 0.02
Simulation CPU 0 warning: IPC 0.032509 < 0.05
Simulation CPU 0 critical: IPC 0.012886 < 0.02
Simulation CPU 0 warning: IPC 0.020668 < 0.05
Simulation CPU 0 warning: IPC 0.035275 < 0.05
Heartbeat CPU 0 instructions: 580000076 cycles: 15203589205 heartbeat IPC: 0.0407 cumulative IPC: 0.03815 (Simulation time: 21 hr 03 min 32 sec)
Simulation CPU 0 warning: IPC 0.029352 < 0.05
Simulation CPU 0 critical: IPC 0.015188 < 0.02
Simulation CPU 0 critical: IPC 0.016003 < 0.02
Simulation CPU 0 warning: IPC 0.041837 < 0.05
Simulation CPU 0 critical: IPC 0.01024 < 0.02
Simulation CPU 0 warning: IPC 0.026817 < 0.05
Simulation CPU 0 warning: IPC 0.024999 < 0.05
Simulation CPU 0 critical: IPC 0.017061 < 0.02
Simulation CPU 0 critical: IPC 0.011358 < 0.02
Simulation CPU 0 critical: IPC 0.017973 < 0.02
Simulation CPU 0 critical: IPC 0.016929 < 0.02
Simulation CPU 0 warning: IPC 0.029282 < 0.05
Simulation CPU 0 panic: IPC 0.002456 < 0.01
Simulation CPU 0 warning: IPC 0.029386 < 0.05
Simulation CPU 0 critical: IPC 0.013559 < 0.02
Simulation CPU 0 warning: IPC 0.033948 < 0.05
Simulation CPU 0 critical: IPC 0.017756 < 0.02
Simulation CPU 0 panic: IPC 0.007594 < 0.01
Heartbeat CPU 0 instructions: 590000079 cycles: 15468453058 heartbeat IPC: 0.03776 cumulative IPC: 0.03814 (Simulation time: 21 hr 25 min 48 sec)
Simulation CPU 0 panic: IPC 0.0041199 < 0.01
Simulation CPU 0 warning: IPC 0.027465 < 0.05
Simulation CPU 0 warning: IPC 0.04616 < 0.05
Simulation CPU 0 warning: IPC 0.024143 < 0.05
Simulation CPU 0 warning: IPC 0.023114 < 0.05
Simulation CPU 0 critical: IPC 0.017946 < 0.02
Simulation CPU 0 warning: IPC 0.039893 < 0.05
Simulation CPU 0 panic: IPC 0.0012692 < 0.01
Simulation CPU 0 warning: IPC 0.041674 < 0.05
Simulation CPU 0 panic: IPC 0.0068431 < 0.01
Simulation CPU 0 warning: IPC 0.048138 < 0.05
Simulation CPU 0 critical: IPC 0.019231 < 0.02
Simulation CPU 0 warning: IPC 0.048406 < 0.05
Simulation CPU 0 warning: IPC 0.039905 < 0.05
Simulation CPU 0 warning: IPC 0.029572 < 0.05
Simulation CPU 0 warning: IPC 0.039243 < 0.05
Simulation CPU 0 critical: IPC 0.010804 < 0.02
Simulation CPU 0 panic: IPC 3.64e-05 < 0.01
Simulation CPU 0 critical: IPC 0.011096 < 0.02
Simulation CPU 0 warning: IPC 0.047398 < 0.05
Simulation CPU 0 warning: IPC 0.045972 < 0.05
Simulation CPU 0 critical: IPC 0.016906 < 0.02
Heartbeat CPU 0 instructions: 600000079 cycles: 15741859519 heartbeat IPC: 0.03658 cumulative IPC: 0.03811 (Simulation time: 21 hr 46 min 51 sec)
Simulation CPU 0 warning: IPC 0.031075 < 0.05
Simulation CPU 0 critical: IPC 0.015344 < 0.02
Simulation CPU 0 panic: IPC 0.0054729 < 0.01
Simulation CPU 0 critical: IPC 0.017458 < 0.02
Simulation CPU 0 panic: IPC 0.0069889 < 0.01
Simulation CPU 0 warning: IPC 0.04136 < 0.05
Simulation CPU 0 critical: IPC 0.011574 < 0.02
Simulation CPU 0 warning: IPC 0.023846 < 0.05
Simulation CPU 0 critical: IPC 0.016907 < 0.02
Simulation CPU 0 critical: IPC 0.014379 < 0.02
Simulation CPU 0 panic: IPC 0.0013234 < 0.01
Simulation CPU 0 warning: IPC 0.044046 < 0.05
Simulation CPU 0 critical: IPC 0.012736 < 0.02
Simulation CPU 0 warning: IPC 0.047054 < 0.05
Simulation CPU 0 warning: IPC 0.023822 < 0.05
Simulation CPU 0 warning: IPC 0.029138 < 0.05
Simulation CPU 0 panic: IPC 0.0030157 < 0.01
Simulation CPU 0 warning: IPC 0.025471 < 0.05
Simulation CPU 0 warning: IPC 0.046593 < 0.05
Simulation CPU 0 panic: IPC 0.0017862 < 0.01
Heartbeat CPU 0 instructions: 610000079 cycles: 16024759915 heartbeat IPC: 0.03535 cumulative IPC: 0.03807 (Simulation time: 22 hr 10 min 07 sec)
Simulation CPU 0 warning: IPC 0.037617 < 0.05
Simulation CPU 0 warning: IPC 0.029143 < 0.05
Simulation CPU 0 panic: IPC 0.0091616 < 0.01
Heartbeat CPU 0 instructions: 620000083 cycles: 16100880235 heartbeat IPC: 0.1314 cumulative IPC: 0.03851 (Simulation time: 22 hr 16 min 36 sec)
Heartbeat CPU 0 instructions: 630000083 cycles: 16139534094 heartbeat IPC: 0.2587 cumulative IPC: 0.03903 (Simulation time: 22 hr 19 min 49 sec)
Heartbeat CPU 0 instructions: 640000083 cycles: 16176550248 heartbeat IPC: 0.2702 cumulative IPC: 0.03956 (Simulation time: 22 hr 23 min 13 sec)
Heartbeat CPU 0 instructions: 650000083 cycles: 16218952973 heartbeat IPC: 0.2358 cumulative IPC: 0.04008 (Simulation time: 22 hr 26 min 39 sec)
Heartbeat CPU 0 instructions: 660000084 cycles: 16265213970 heartbeat IPC: 0.2162 cumulative IPC: 0.04058 (Simulation time: 22 hr 30 min 50 sec)
Heartbeat CPU 0 instructions: 670000085 cycles: 16312167202 heartbeat IPC: 0.213 cumulative IPC: 0.04107 (Simulation time: 22 hr 35 min 19 sec)
Heartbeat CPU 0 instructions: 680000088 cycles: 16357869374 heartbeat IPC: 0.2188 cumulative IPC: 0.04157 (Simulation time: 22 hr 39 min 10 sec)
Heartbeat CPU 0 instructions: 690000088 cycles: 16389958640 heartbeat IPC: 0.3116 cumulative IPC: 0.0421 (Simulation time: 22 hr 42 min 34 sec)
Heartbeat CPU 0 instructions: 700000089 cycles: 16405049037 heartbeat IPC: 0.6627 cumulative IPC: 0.04267 (Simulation time: 22 hr 44 min 17 sec)
Heartbeat CPU 0 instructions: 710000089 cycles: 16414279416 heartbeat IPC: 1.083 cumulative IPC: 0.04326 (Simulation time: 22 hr 45 min 22 sec)
Heartbeat CPU 0 instructions: 720000089 cycles: 16427126759 heartbeat IPC: 0.7784 cumulative IPC: 0.04383 (Simulation time: 22 hr 46 min 47 sec)
Heartbeat CPU 0 instructions: 730000090 cycles: 16438532936 heartbeat IPC: 0.8767 cumulative IPC: 0.04441 (Simulation time: 22 hr 48 min 09 sec)
Heartbeat CPU 0 instructions: 740000091 cycles: 16446948471 heartbeat IPC: 1.188 cumulative IPC: 0.04499 (Simulation time: 22 hr 49 min 14 sec)
Heartbeat CPU 0 instructions: 750000093 cycles: 16462404166 heartbeat IPC: 0.647 cumulative IPC: 0.04556 (Simulation time: 22 hr 51 min 01 sec)
Heartbeat CPU 0 instructions: 760000093 cycles: 16470827861 heartbeat IPC: 1.187 cumulative IPC: 0.04614 (Simulation time: 22 hr 52 min 06 sec)
Heartbeat CPU 0 instructions: 770000094 cycles: 16480281745 heartbeat IPC: 1.058 cumulative IPC: 0.04672 (Simulation time: 22 hr 53 min 18 sec)
Heartbeat CPU 0 instructions: 780000096 cycles: 16493465777 heartbeat IPC: 0.7585 cumulative IPC: 0.04729 (Simulation time: 22 hr 54 min 49 sec)
Heartbeat CPU 0 instructions: 790000098 cycles: 16506147273 heartbeat IPC: 0.7886 cumulative IPC: 0.04786 (Simulation time: 22 hr 56 min 18 sec)
Heartbeat CPU 0 instructions: 800000098 cycles: 16532424236 heartbeat IPC: 0.3806 cumulative IPC: 0.04839 (Simulation time: 22 hr 59 min 00 sec)
Heartbeat CPU 0 instructions: 810000099 cycles: 16552452797 heartbeat IPC: 0.4993 cumulative IPC: 0.04894 (Simulation time: 23 hr 01 min 08 sec)
Heartbeat CPU 0 instructions: 820000099 cycles: 16566760039 heartbeat IPC: 0.6989 cumulative IPC: 0.0495 (Simulation time: 23 hr 02 min 24 sec)
Heartbeat CPU 0 instructions: 830000099 cycles: 16577376670 heartbeat IPC: 0.9419 cumulative IPC: 0.05007 (Simulation time: 23 hr 03 min 22 sec)
Heartbeat CPU 0 instructions: 840000102 cycles: 16601933605 heartbeat IPC: 0.4072 cumulative IPC: 0.0506 (Simulation time: 23 hr 05 min 07 sec)
Heartbeat CPU 0 instructions: 850000102 cycles: 16621490754 heartbeat IPC: 0.5113 cumulative IPC: 0.05114 (Simulation time: 23 hr 07 min 18 sec)
Heartbeat CPU 0 instructions: 860000105 cycles: 16632535274 heartbeat IPC: 0.9054 cumulative IPC: 0.05171 (Simulation time: 23 hr 08 min 39 sec)
Heartbeat CPU 0 instructions: 870000108 cycles: 16640603585 heartbeat IPC: 1.239 cumulative IPC: 0.05228 (Simulation time: 23 hr 09 min 43 sec)
Heartbeat CPU 0 instructions: 880000108 cycles: 16653949968 heartbeat IPC: 0.7493 cumulative IPC: 0.05284 (Simulation time: 23 hr 11 min 14 sec)
Heartbeat CPU 0 instructions: 890000108 cycles: 16664134747 heartbeat IPC: 0.9819 cumulative IPC: 0.05341 (Simulation time: 23 hr 12 min 27 sec)
Heartbeat CPU 0 instructions: 900000112 cycles: 16682577114 heartbeat IPC: 0.5422 cumulative IPC: 0.05395 (Simulation time: 23 hr 14 min 26 sec)
Heartbeat CPU 0 instructions: 910000112 cycles: 16691527510 heartbeat IPC: 1.117 cumulative IPC: 0.05452 (Simulation time: 23 hr 15 min 14 sec)
Heartbeat CPU 0 instructions: 920000112 cycles: 16703805058 heartbeat IPC: 0.8145 cumulative IPC: 0.05508 (Simulation time: 23 hr 16 min 42 sec)
Heartbeat CPU 0 instructions: 930000112 cycles: 16713110475 heartbeat IPC: 1.075 cumulative IPC: 0.05564 (Simulation time: 23 hr 17 min 52 sec)
Heartbeat CPU 0 instructions: 940000116 cycles: 16750963941 heartbeat IPC: 0.2642 cumulative IPC: 0.05612 (Simulation time: 23 hr 21 min 35 sec)
Heartbeat CPU 0 instructions: 950000116 cycles: 16791684934 heartbeat IPC: 0.2456 cumulative IPC: 0.05658 (Simulation time: 23 hr 25 min 36 sec)
Heartbeat CPU 0 instructions: 960000116 cycles: 16809717422 heartbeat IPC: 0.5546 cumulative IPC: 0.05711 (Simulation time: 23 hr 27 min 35 sec)
[...]
Heartbeat CPU 0 instructions: 1090000131 cycles: 17036456265 heartbeat IPC: 0.2906 cumulative IPC: 0.06398 (Simulation time: 23 hr 52 min 32 sec)
Heartbeat CPU 0 instructions: 1100000134 cycles: 17051378502 heartbeat IPC: 0.6701 cumulative IPC: 0.06451 (Simulation time: 23 hr 54 min 15 sec)
Heartbeat CPU 0 instructions: 1110000135 cycles: 17061906733 heartbeat IPC: 0.9498 cumulative IPC: 0.06506 (Simulation time: 23 hr 55 min 33 sec)
Heartbeat CPU 0 instructions: 1120000135 cycles: 17071341093 heartbeat IPC: 1.06 cumulative IPC: 0.06561 (Simulation time: 23 hr 56 min 45 sec)
Heartbeat CPU 0 instructions: 1130000136 cycles: 17079532382 heartbeat IPC: 1.221 cumulative IPC: 0.06616 (Simulation time: 23 hr 57 min 50 sec)
Heartbeat CPU 0 instructions: 1140000137 cycles: 17102794425 heartbeat IPC: 0.4299 cumulative IPC: 0.06666 (Simulation time: 00 hr 00 min 15 sec)
Heartbeat CPU 0 instructions: 1150000137 cycles: 17113031115 heartbeat IPC: 0.9769 cumulative IPC: 0.0672 (Simulation time: 00 hr 01 min 31 sec)
Heartbeat CPU 0 instructions: 1160000139 cycles: 17129546346 heartbeat IPC: 0.6055 cumulative IPC: 0.06772 (Simulation time: 00 hr 03 min 22 sec)
Heartbeat CPU 0 instructions: 1170000141 cycles: 17137991955 heartbeat IPC: 1.184 cumulative IPC: 0.06827 (Simulation time: 00 hr 04 min 27 sec)
Heartbeat CPU 0 instructions: 1180000142 cycles: 17147735882 heartbeat IPC: 1.026 cumulative IPC: 0.06881 (Simulation time: 00 hr 05 min 39 sec)
Heartbeat CPU 0 instructions: 1190000146 cycles: 17176697500 heartbeat IPC: 0.3453 cumulative IPC: 0.06928 (Simulation time: 00 hr 08 min 40 sec)
Heartbeat CPU 0 instructions: 1200000147 cycles: 17186385754 heartbeat IPC: 1.032 cumulative IPC: 0.06982 (Simulation time: 00 hr 09 min 53 sec)
Heartbeat CPU 0 instructions: 1210000151 cycles: 17201387649 heartbeat IPC: 0.6666 cumulative IPC: 0.07034 (Simulation time: 00 hr 11 min 36 sec)
Heartbeat CPU 0 instructions: 1220000151 cycles: 17215251194 heartbeat IPC: 0.7213 cumulative IPC: 0.07087 (Simulation time: 00 hr 13 min 14 sec)
Heartbeat CPU 0 instructions: 1230000154 cycles: 17223198303 heartbeat IPC: 1.258 cumulative IPC: 0.07142 (Simulation time: 00 hr 14 min 17 sec)
Heartbeat CPU 0 instructions: 1240000154 cycles: 17232863994 heartbeat IPC: 1.035 cumulative IPC: 0.07196 (Simulation time: 00 hr 15 min 29 sec)
Heartbeat CPU 0 instructions: 1250000157 cycles: 17253591749 heartbeat IPC: 0.4824 cumulative IPC: 0.07245 (Simulation time: 00 hr 17 min 23 sec)
Heartbeat CPU 0 instructions: 1260000157 cycles: 17262703592 heartbeat IPC: 1.097 cumulative IPC: 0.07299 (Simulation time: 00 hr 18 min 12 sec)
Heartbeat CPU 0 instructions: 1270000157 cycles: 17274795935 heartbeat IPC: 0.827 cumulative IPC: 0.07352 (Simulation time: 00 hr 19 min 33 sec)
Heartbeat CPU 0 instructions: 1280000159 cycles: 17293255666 heartbeat IPC: 0.5417 cumulative IPC: 0.07402 (Simulation time: 00 hr 21 min 32 sec)
Heartbeat CPU 0 instructions: 1290000163 cycles: 17324607173 heartbeat IPC: 0.319 cumulative IPC: 0.07446 (Simulation time: 00 hr 24 min 20 sec)
Heartbeat CPU 0 instructions: 1300000165 cycles: 17333696133 heartbeat IPC: 1.1 cumulative IPC: 0.075 (Simulation time: 00 hr 25 min 14 sec)
Heartbeat CPU 0 instructions: 1310000166 cycles: 17343259816 heartbeat IPC: 1.046 cumulative IPC: 0.07553 (Simulation time: 00 hr 26 min 16 sec)
Heartbeat CPU 0 instructions: 1320000166 cycles: 17351473685 heartbeat IPC: 1.217 cumulative IPC: 0.07607 (Simulation time: 00 hr 27 min 11 sec)
Heartbeat CPU 0 instructions: 1330000167 cycles: 17371950446 heartbeat IPC: 0.4884 cumulative IPC: 0.07656 (Simulation time: 00 hr 29 min 04 sec)
Heartbeat CPU 0 instructions: 1340000168 cycles: 17407485523 heartbeat IPC: 0.2814 cumulative IPC: 0.07698 (Simulation time: 00 hr 32 min 28 sec)
Heartbeat CPU 0 instructions: 1350000171 cycles: 17429065827 heartbeat IPC: 0.4634 cumulative IPC: 0.07746 (Simulation time: 00 hr 34 min 25 sec)
Heartbeat CPU 0 instructions: 1360000171 cycles: 17438354561 heartbeat IPC: 1.077 cumulative IPC: 0.07799 (Simulation time: 00 hr 35 min 37 sec)
Heartbeat CPU 0 instructions: 1370000175 cycles: 17452808648 heartbeat IPC: 0.6918 cumulative IPC: 0.0785 (Simulation time: 00 hr 37 min 19 sec)
Heartbeat CPU 0 instructions: 1380000177 cycles: 17462934656 heartbeat IPC: 0.9876 cumulative IPC: 0.07902 (Simulation time: 00 hr 38 min 35 sec)
Heartbeat CPU 0 instructions: 1390000181 cycles: 17471162180 heartbeat IPC: 1.215 cumulative IPC: 0.07956 (Simulation time: 00 hr 39 min 39 sec)
Heartbeat CPU 0 instructions: 1400000181 cycles: 17480660000 heartbeat IPC: 1.053 cumulative IPC: 0.08009 (Simulation time: 00 hr 40 min 53 sec)
Heartbeat CPU 0 instructions: 1410000183 cycles: 17495954851 heartbeat IPC: 0.6538 cumulative IPC: 0.08059 (Simulation time: 00 hr 42 min 40 sec)
Heartbeat CPU 0 instructions: 1420000187 cycles: 17505113415 heartbeat IPC: 1.092 cumulative IPC: 0.08112 (Simulation time: 00 hr 43 min 35 sec)
Heartbeat CPU 0 instructions: 1430000189 cycles: 17513662219 heartbeat IPC: 1.17 cumulative IPC: 0.08165 (Simulation time: 00 hr 44 min 39 sec)
Heartbeat CPU 0 instructions: 1440000192 cycles: 17540953293 heartbeat IPC: 0.3664 cumulative IPC: 0.08209 (Simulation time: 00 hr 46 min 42 sec)
Heartbeat CPU 0 instructions: 1450000195 cycles: 17554940349 heartbeat IPC: 0.7149 cumulative IPC: 0.0826 (Simulation time: 00 hr 47 min 56 sec)
Heartbeat CPU 0 instructions: 1460000196 cycles: 17564565493 heartbeat IPC: 1.039 cumulative IPC: 0.08312 (Simulation time: 00 hr 49 min 00 sec)
Heartbeat CPU 0 instructions: 1470000199 cycles: 17573499719 heartbeat IPC: 1.119 cumulative IPC: 0.08365 (Simulation time: 00 hr 49 min 58 sec)
Heartbeat CPU 0 instructions: 1480000199 cycles: 17583374626 heartbeat IPC: 1.013 cumulative IPC: 0.08417 (Simulation time: 00 hr 51 min 10 sec)
Heartbeat CPU 0 instructions: 1490000202 cycles: 17610094399 heartbeat IPC: 0.3743 cumulative IPC: 0.08461 (Simulation time: 00 hr 53 min 49 sec)
Heartbeat CPU 0 instructions: 1500000203 cycles: 17618376163 heartbeat IPC: 1.207 cumulative IPC: 0.08514 (Simulation time: 00 hr 54 min 51 sec)
Heartbeat CPU 0 instructions: 1510000205 cycles: 17627369324 heartbeat IPC: 1.112 cumulative IPC: 0.08566 (Simulation time: 00 hr 55 min 58 sec)
Heartbeat CPU 0 instructions: 1520000205 cycles: 17637563515 heartbeat IPC: 0.981 cumulative IPC: 0.08618 (Simulation time: 00 hr 56 min 54 sec)
Heartbeat CPU 0 instructions: 1530000205 cycles: 17671025849 heartbeat IPC: 0.2988 cumulative IPC: 0.08658 (Simulation time: 00 hr 59 min 40 sec)
Heartbeat CPU 0 instructions: 1540000207 cycles: 17712451394 heartbeat IPC: 0.2414 cumulative IPC: 0.08694 (Simulation time: 01 hr 02 min 59 sec)
Heartbeat CPU 0 instructions: 1550000208 cycles: 17754833671 heartbeat IPC: 0.2359 cumulative IPC: 0.0873 (Simulation time: 01 hr 06 min 39 sec)
Heartbeat CPU 0 instructions: 1560000210 cycles: 17797002409 heartbeat IPC: 0.2371 cumulative IPC: 0.08766 (Simulation time: 01 hr 10 min 47 sec)
Heartbeat CPU 0 instructions: 1570000210 cycles: 17839899059 heartbeat IPC: 0.2331 cumulative IPC: 0.088 (Simulation time: 01 hr 14 min 16 sec)
Heartbeat CPU 0 instructions: 1580000212 cycles: 17890863505 heartbeat IPC: 0.1962 cumulative IPC: 0.08831 (Simulation time: 01 hr 18 min 06 sec)
Heartbeat CPU 0 instructions: 1590000216 cycles: 17939649139 heartbeat IPC: 0.205 cumulative IPC: 0.08863 (Simulation time: 01 hr 22 min 47 sec)
Heartbeat CPU 0 instructions: 1600000218 cycles: 17972541475 heartbeat IPC: 0.304 cumulative IPC: 0.08902 (Simulation time: 01 hr 26 min 02 sec)
Heartbeat CPU 0 instructions: 1610000218 cycles: 17984083162 heartbeat IPC: 0.8664 cumulative IPC: 0.08952 (Simulation time: 01 hr 27 min 17 sec)
Heartbeat CPU 0 instructions: 1620000222 cycles: 17993335339 heartbeat IPC: 1.081 cumulative IPC: 0.09003 (Simulation time: 01 hr 28 min 27 sec)
Heartbeat CPU 0 instructions: 1630000223 cycles: 18010724578 heartbeat IPC: 0.5751 cumulative IPC: 0.0905 (Simulation time: 01 hr 30 min 22 sec)
Heartbeat CPU 0 instructions: 1640000224 cycles: 18020713504 heartbeat IPC: 1.001 cumulative IPC: 0.09101 (Simulation time: 01 hr 31 min 33 sec)
Heartbeat CPU 0 instructions: 1650000228 cycles: 18030569390 heartbeat IPC: 1.015 cumulative IPC: 0.09151 (Simulation time: 01 hr 32 min 35 sec)
Heartbeat CPU 0 instructions: 1660000230 cycles: 18042681789 heartbeat IPC: 0.8256 cumulative IPC: 0.092 (Simulation time: 01 hr 33 min 59 sec)
Heartbeat CPU 0 instructions: 1670000231 cycles: 18069579307 heartbeat IPC: 0.3718 cumulative IPC: 0.09242 (Simulation time: 01 hr 36 min 46 sec)
Heartbeat CPU 0 instructions: 1680000231 cycles: 18092195732 heartbeat IPC: 0.4422 cumulative IPC: 0.09286 (Simulation time: 01 hr 38 min 50 sec)
Heartbeat CPU 0 instructions: 1690000231 cycles: 18100609695 heartbeat IPC: 1.189 cumulative IPC: 0.09337 (Simulation time: 01 hr 39 min 39 sec)
Heartbeat CPU 0 instructions: 1700000232 cycles: 18113322034 heartbeat IPC: 0.7866 cumulative IPC: 0.09385 (Simulation time: 01 hr 40 min 55 sec)
Heartbeat CPU 0 instructions: 1710000233 cycles: 18124710457 heartbeat IPC: 0.8781 cumulative IPC: 0.09435 (Simulation time: 01 hr 42 min 17 sec)
Heartbeat CPU 0 instructions: 1720000233 cycles: 18134757325 heartbeat IPC: 0.9953 cumulative IPC: 0.09485 (Simulation time: 01 hr 43 min 32 sec)
Heartbeat CPU 0 instructions: 1730000235 cycles: 18143355011 heartbeat IPC: 1.163 cumulative IPC: 0.09535 (Simulation time: 01 hr 44 min 38 sec)
Heartbeat CPU 0 instructions: 1740000235 cycles: 18162246724 heartbeat IPC: 0.5293 cumulative IPC: 0.0958 (Simulation time: 01 hr 46 min 07 sec)
Heartbeat CPU 0 instructions: 1750000236 cycles: 18170864528 heartbeat IPC: 1.16 cumulative IPC: 0.09631 (Simulation time: 01 hr 46 min 51 sec)
Heartbeat CPU 0 instructions: 1760000236 cycles: 18184050676 heartbeat IPC: 0.7584 cumulative IPC: 0.09679 (Simulation time: 01 hr 48 min 16 sec)
Heartbeat CPU 0 instructions: 1770000237 cycles: 18193870879 heartbeat IPC: 1.018 cumulative IPC: 0.09729 (Simulation time: 01 hr 49 min 14 sec)
Heartbeat CPU 0 instructions: 1780000237 cycles: 18214388420 heartbeat IPC: 0.4874 cumulative IPC: 0.09772 (Simulation time: 01 hr 51 min 19 sec)
Heartbeat CPU 0 instructions: 1790000238 cycles: 18261824527 heartbeat IPC: 0.2108 cumulative IPC: 0.09802 (Simulation time: 01 hr 55 min 54 sec)
Heartbeat CPU 0 instructions: 1800000240 cycles: 18283799802 heartbeat IPC: 0.4551 cumulative IPC: 0.09845 (Simulation time: 01 hr 58 min 17 sec)
Heartbeat CPU 0 instructions: 1810000240 cycles: 18293625071 heartbeat IPC: 1.018 cumulative IPC: 0.09894 (Simulation time: 01 hr 59 min 31 sec)
Heartbeat CPU 0 instructions: 1820000242 cycles: 18313407384 heartbeat IPC: 0.5055 cumulative IPC: 0.09938 (Simulation time: 02 hr 01 min 44 sec)
Heartbeat CPU 0 instructions: 1830000243 cycles: 18323085995 heartbeat IPC: 1.033 cumulative IPC: 0.09987 (Simulation time: 02 hr 02 min 56 sec)
Heartbeat CPU 0 instructions: 1840000243 cycles: 18330909107 heartbeat IPC: 1.278 cumulative IPC: 0.1004 (Simulation time: 02 hr 03 min 57 sec)
Heartbeat CPU 0 instructions: 1850000243 cycles: 18340774694 heartbeat IPC: 1.014 cumulative IPC: 0.1009 (Simulation time: 02 hr 05 min 10 sec)
Heartbeat CPU 0 instructions: 1860000245 cycles: 18355745344 heartbeat IPC: 0.668 cumulative IPC: 0.1013 (Simulation time: 02 hr 06 min 51 sec)
Heartbeat CPU 0 instructions: 1870000249 cycles: 18371248381 heartbeat IPC: 0.645 cumulative IPC: 0.1018 (Simulation time: 02 hr 08 min 36 sec)
Heartbeat CPU 0 instructions: 1880000253 cycles: 18380022376 heartbeat IPC: 1.14 cumulative IPC: 0.1023 (Simulation time: 02 hr 09 min 42 sec)
Heartbeat CPU 0 instructions: 1890000255 cycles: 18396646384 heartbeat IPC: 0.6015 cumulative IPC: 0.1027 (Simulation time: 02 hr 11 min 34 sec)
Heartbeat CPU 0 instructions: 1900000258 cycles: 18405131012 heartbeat IPC: 1.179 cumulative IPC: 0.1032 (Simulation time: 02 hr 12 min 39 sec)
Heartbeat CPU 0 instructions: 1910000258 cycles: 18415990853 heartbeat IPC: 0.9208 cumulative IPC: 0.1037 (Simulation time: 02 hr 13 min 57 sec)
Heartbeat CPU 0 instructions: 1920000259 cycles: 18425398611 heartbeat IPC: 1.063 cumulative IPC: 0.1042 (Simulation time: 02 hr 15 min 07 sec)
Heartbeat CPU 0 instructions: 1930000261 cycles: 18441178241 heartbeat IPC: 0.6337 cumulative IPC: 0.1047 (Simulation time: 02 hr 16 min 24 sec)
Heartbeat CPU 0 instructions: 1940000262 cycles: 18449962464 heartbeat IPC: 1.138 cumulative IPC: 0.1051 (Simulation time: 02 hr 17 min 08 sec)
Heartbeat CPU 0 instructions: 1950000265 cycles: 18461970944 heartbeat IPC: 0.8327 cumulative IPC: 0.1056 (Simulation time: 02 hr 18 min 05 sec)
Heartbeat CPU 0 instructions: 1960000268 cycles: 18472121545 heartbeat IPC: 0.9852 cumulative IPC: 0.1061 (Simulation time: 02 hr 19 min 13 sec)
Heartbeat CPU 0 instructions: 1970000269 cycles: 18497655008 heartbeat IPC: 0.3916 cumulative IPC: 0.1065 (Simulation time: 02 hr 21 min 47 sec)
Heartbeat CPU 0 instructions: 1980000269 cycles: 18544800453 heartbeat IPC: 0.2121 cumulative IPC: 0.1068 (Simulation time: 02 hr 24 min 45 sec)
Heartbeat CPU 0 instructions: 1990000270 cycles: 18592463401 heartbeat IPC: 0.2098 cumulative IPC: 0.107 (Simulation time: 02 hr 27 min 37 sec)

=== ERROR PAGE STATISTICS ===
Mode: OFF
Total Error Accesses: 0
==============================
Simulation finished CPU 0 instructions: 1999999938 cycles: 18636359218 cumulative IPC: 0.1073 (Simulation time: 02 hr 30 min 30 sec)
Simulation complete CPU 0 instructions: 1999999938 cycles: 18636359218 cumulative IPC: 0.1073 (Simulation time: 02 hr 30 min 30 sec)

ChampSim completed all CPUs

=== Simulation ===
CPU 0 runs test_traces/605.mcf_s-994B.champsimtrace.xz

Region of Interest Statistics

CPU 0 cumulative IPC: 0.1073 instructions: 1999999938 cycles: 18636359218
CPU 0 Branch Prediction Accuracy: 92.62% MPKI: 18.99 Average ROB Occupancy at Mispredict: 32.67
Branch type MPKI
BRANCH_DIRECT_JUMP: 0.123
BRANCH_INDIRECT: 0
BRANCH_CONDITIONAL: 18.86
BRANCH_DIRECT_CALL: 6.5e-06
BRANCH_INDIRECT_CALL: 0.0004185
BRANCH_RETURN: 1e-05

cpu0->cpu0_STLB TOTAL        ACCESS:    6367205 HIT:    6361252 MISS:       5953 MSHR_MERGE:          0
cpu0->cpu0_STLB LOAD         ACCESS:    6367205 HIT:    6361252 MISS:       5953 MSHR_MERGE:          0
cpu0->cpu0_STLB RFO          ACCESS:          0 HIT:          0 MISS:          0 MSHR_MERGE:          0
cpu0->cpu0_STLB PREFETCH     ACCESS:          0 HIT:          0 MISS:          0 MSHR_MERGE:          0
cpu0->cpu0_STLB WRITE        ACCESS:          0 HIT:          0 MISS:          0 MSHR_MERGE:          0
cpu0->cpu0_STLB TRANSLATION  ACCESS:          0 HIT:          0 MISS:          0 MSHR_MERGE:          0
cpu0->cpu0_STLB PREFETCH REQUESTED:          0 ISSUED:          0 USEFUL:          0 USELESS:          0
cpu0->cpu0_STLB AVERAGE MISS LATENCY: 2.661e+06 cycles
cpu0->cpu0_L2C TOTAL        ACCESS:   81180919 HIT:   27540111 MISS:   53640808 MSHR_MERGE:          0
cpu0->cpu0_L2C LOAD         ACCESS:   75043344 HIT:   21466996 MISS:   53576348 MSHR_MERGE:          0
cpu0->cpu0_L2C RFO          ACCESS:     492584 HIT:     432412 MISS:      60172 MSHR_MERGE:          0
cpu0->cpu0_L2C PREFETCH     ACCESS:          0 HIT:          0 MISS:          0 MSHR_MERGE:          0
cpu0->cpu0_L2C WRITE        ACCESS:    5644991 HIT:    5640703 MISS:       4288 MSHR_MERGE:          0
cpu0->cpu0_L2C TRANSLATION  ACCESS:          0 HIT:          0 MISS:          0 MSHR_MERGE:          0
cpu0->cpu0_L2C PREFETCH REQUESTED:          0 ISSUED:          0 USEFUL:          0 USELESS:          0
cpu0->cpu0_L2C AVERAGE MISS LATENCY: 92.76 cycles
cpu0->cpu0_L1I TOTAL        ACCESS:    2879294 HIT:    2879202 MISS:         92 MSHR_MERGE:         26
cpu0->cpu0_L1I LOAD         ACCESS:    2879294 HIT:    2879202 MISS:         92 MSHR_MERGE:         26
cpu0->cpu0_L1I RFO          ACCESS:          0 HIT:          0 MISS:          0 MSHR_MERGE:          0
cpu0->cpu0_L1I PREFETCH     ACCESS:          0 HIT:          0 MISS:          0 MSHR_MERGE:          0
cpu0->cpu0_L1I WRITE        ACCESS:          0 HIT:          0 MISS:          0 MSHR_MERGE:          0
cpu0->cpu0_L1I TRANSLATION  ACCESS:          0 HIT:          0 MISS:          0 MSHR_MERGE:          0
cpu0->cpu0_L1I PREFETCH REQUESTED:          0 ISSUED:          0 USEFUL:          0 USELESS:          0
cpu0->cpu0_L1I AVERAGE MISS LATENCY: 102.8 cycles
cpu0->cpu0_L1D TOTAL        ACCESS:  810617054 HIT:  728261904 MISS:   82355150 MSHR_MERGE:    6818197
cpu0->cpu0_L1D LOAD         ACCESS:  610033386 HIT:  529054904 MISS:   80978482 MSHR_MERGE:    5935183
cpu0->cpu0_L1D RFO          ACCESS:          0 HIT:          0 MISS:          0 MSHR_MERGE:          0
cpu0->cpu0_L1D PREFETCH     ACCESS:          0 HIT:          0 MISS:          0 MSHR_MERGE:          0
cpu0->cpu0_L1D WRITE        ACCESS:  200583668 HIT:  199207000 MISS:    1376668 MSHR_MERGE:     883014
cpu0->cpu0_L1D TRANSLATION  ACCESS:          0 HIT:          0 MISS:          0 MSHR_MERGE:          0
cpu0->cpu0_L1D PREFETCH REQUESTED:          0 ISSUED:          0 USEFUL:          0 USELESS:          0
cpu0->cpu0_L1D AVERAGE MISS LATENCY: 74.71 cycles
cpu0->cpu0_ITLB TOTAL        ACCESS:    2728716 HIT:    2728715 MISS:          1 MSHR_MERGE:          0
cpu0->cpu0_ITLB LOAD         ACCESS:    2728716 HIT:    2728715 MISS:          1 MSHR_MERGE:          0
cpu0->cpu0_ITLB RFO          ACCESS:          0 HIT:          0 MISS:          0 MSHR_MERGE:          0
cpu0->cpu0_ITLB PREFETCH     ACCESS:          0 HIT:          0 MISS:          0 MSHR_MERGE:          0
cpu0->cpu0_ITLB WRITE        ACCESS:          0 HIT:          0 MISS:          0 MSHR_MERGE:          0
cpu0->cpu0_ITLB TRANSLATION  ACCESS:          0 HIT:          0 MISS:          0 MSHR_MERGE:          0
cpu0->cpu0_ITLB PREFETCH REQUESTED:          0 ISSUED:          0 USEFUL:          0 USELESS:          0
cpu0->cpu0_ITLB AVERAGE MISS LATENCY: 1.848e+07 cycles
cpu0->cpu0_DTLB TOTAL        ACCESS:  706560548 HIT:  699648506 MISS:    6912042 MSHR_MERGE:     544838
cpu0->cpu0_DTLB LOAD         ACCESS:  706560548 HIT:  699648506 MISS:    6912042 MSHR_MERGE:     544838
cpu0->cpu0_DTLB RFO          ACCESS:          0 HIT:          0 MISS:          0 MSHR_MERGE:          0
cpu0->cpu0_DTLB PREFETCH     ACCESS:          0 HIT:          0 MISS:          0 MSHR_MERGE:          0
cpu0->cpu0_DTLB WRITE        ACCESS:          0 HIT:          0 MISS:          0 MSHR_MERGE:          0
cpu0->cpu0_DTLB TRANSLATION  ACCESS:          0 HIT:          0 MISS:          0 MSHR_MERGE:          0
cpu0->cpu0_DTLB PREFETCH REQUESTED:          0 ISSUED:          0 USEFUL:          0 USELESS:          0
cpu0->cpu0_DTLB AVERAGE MISS LATENCY: 2490 cycles
cpu0->LLC TOTAL        ACCESS:   57571122 HIT:   16528572 MISS:   41042550 MSHR_MERGE:          0
cpu0->LLC LOAD         ACCESS:   53576348 HIT:   12553509 MISS:   41022839 MSHR_MERGE:          0
cpu0->LLC RFO          ACCESS:      60172 HIT:      41696 MISS:      18476 MSHR_MERGE:          0
cpu0->LLC PREFETCH     ACCESS:          0 HIT:          0 MISS:          0 MSHR_MERGE:          0
cpu0->LLC WRITE        ACCESS:    3934602 HIT:    3933367 MISS:       1235 MSHR_MERGE:          0
cpu0->LLC TRANSLATION  ACCESS:          0 HIT:          0 MISS:          0 MSHR_MERGE:          0
cpu0->LLC PREFETCH REQUESTED:          0 ISSUED:          0 USEFUL:          0 USELESS:          0
cpu0->LLC AVERAGE MISS LATENCY: 100.6 cycles

DRAM Statistics

Channel 0 RQ ROW_BUFFER_HIT:     275912
  ROW_BUFFER_MISS:   20252471
  AVG DBUS CONGESTED CYCLE: 9.318
Channel 0 WQ ROW_BUFFER_HIT:     331512
  ROW_BUFFER_MISS:    1236054
  FULL:          0
Channel 0 REFRESHES ISSUED:    1552930

Channel 1 RQ ROW_BUFFER_HIT:     275696
  ROW_BUFFER_MISS:   20249095
  AVG DBUS CONGESTED CYCLE: 9.318
Channel 1 WQ ROW_BUFFER_HIT:     331816
  ROW_BUFFER_MISS:    1236261
  FULL:          0
Channel 1 REFRESHES ISSUED:    1552930
