
*** ChampSim Multicore Out-of-Order Simulator ***
Warmup Instructions: 0
Simulation Instructions: 9223372036854775807
Number of CPUs: 1
Page size: 1048576

Off-chip DRAM Size: 32 GiB Channels: 2 Width: 32-bit Data Rate: 4807 MT/s
[ERROR_PAGE_MANAGER] Error latency: 2459910500 
[ERROR_PAGE_MANAGER] Random seed: 54321 (fixed for preload reproducibility)
[ERROR_PAGE_MANAGER] Cycle-based error modeling enabled
[ERROR_PAGE_MANAGER] Errors per interval: 1
[ERROR_PAGE_MANAGER] Error cycle interval: 7053240154 cycles

=== ERROR PAGE STATISTICS ===
Mode: CYCLE
Error Cycle Interval: 7053240154 CPU cycles
Total Error Accesses: 0
==============================
Warmup finished CPU 0 instructions: 0 cycles: 1 cumulative IPC: 0 (Simulation time: 00 hr 00 min 00 sec)
Warmup complete CPU 0 instructions: 0 cycles: 1 cumulative IPC: 0 (Simulation time: 00 hr 00 min 00 sec)
Simulation CPU 0 panic: IPC 0 < 0.01
Simulation CPU 0 panic: IPC 2e-06 < 0.01
Simulation CPU 0 panic: IPC 0 < 0.01
Simulation CPU 0 panic: IPC 2.52e-05 < 0.01
Simulation CPU 0 panic: IPC 0.000543 < 0.01
Simulation CPU 0 panic: IPC 0.0003794 < 0.01
Simulation CPU 0 panic: IPC 7.5e-06 < 0.01
Simulation CPU 0 panic: IPC 2.1e-06 < 0.01
Simulation CPU 0 panic: IPC 1.7e-06 < 0.01
Simulation CPU 0 panic: IPC 1.11e-05 < 0.01
Simulation CPU 0 panic: IPC 1e-07 < 0.01
Simulation CPU 0 panic: IPC 4e-07 < 0.01
Simulation CPU 0 panic: IPC 4e-06 < 0.01
Simulation CPU 0 panic: IPC 8e-06 < 0.01
Simulation CPU 0 panic: IPC 0.0030956 < 0.01
Simulation CPU 0 critical: IPC 0.018621 < 0.02
Simulation CPU 0 critical: IPC 0.015891 < 0.02
Simulation CPU 0 panic: IPC 0.0027506 < 0.01
Simulation CPU 0 warning: IPC 0.021759 < 0.05
Simulation CPU 0 warning: IPC 0.024809 < 0.05
Simulation CPU 0 warning: IPC 0.037198 < 0.05
Simulation CPU 0 panic: IPC 7.2e-06 < 0.01
Simulation CPU 0 panic: IPC 8e-06 < 0.01
Simulation CPU 0 panic: IPC 0.0061778 < 0.01
Simulation CPU 0 panic: IPC 0.0061606 < 0.01
Simulation CPU 0 panic: IPC 0.0093766 < 0.01
Simulation CPU 0 panic: IPC 0.0059319 < 0.01
Simulation CPU 0 critical: IPC 0.012699 < 0.02
Simulation CPU 0 critical: IPC 0.012403 < 0.02
Simulation CPU 0 critical: IPC 0.018633 < 0.02
Simulation CPU 0 panic: IPC 0.009306 < 0.01
Simulation CPU 0 panic: IPC 8e-06 < 0.01
Simulation CPU 0 panic: IPC 0.0030944 < 0.01
Simulation CPU 0 panic: IPC 0.0084984 < 0.01
Simulation CPU 0 critical: IPC 0.010128 < 0.02
Simulation CPU 0 panic: IPC 0.0030958 < 0.01
Simulation CPU 0 critical: IPC 0.018635 < 0.02
Simulation CPU 0 critical: IPC 0.015525 < 0.02
Simulation CPU 0 panic: IPC 0.003084 < 0.01
Simulation CPU 0 panic: IPC 0.0093209 < 0.01
Simulation CPU 0 warning: IPC 0.040334 < 0.05
Simulation CPU 0 panic: IPC 0.0003344 < 0.01
Simulation CPU 0 panic: IPC 0.0001264 < 0.01
Simulation CPU 0 panic: IPC 8e-07 < 0.01
Simulation CPU 0 panic: IPC 1.6e-06 < 0.01
Simulation CPU 0 panic: IPC 8e-07 < 0.01
Simulation CPU 0 panic: IPC 8e-07 < 0.01
Simulation CPU 0 panic: IPC 8.8e-06 < 0.01
Simulation CPU 0 panic: IPC 8e-07 < 0.01
Simulation CPU 0 panic: IPC 0.0010825 < 0.01
Simulation CPU 0 critical: IPC 0.012459 < 0.02
Simulation CPU 0 critical: IPC 0.010631 < 0.02
Simulation CPU 0 critical: IPC 0.011066 < 0.02
Simulation CPU 0 panic: IPC 7.2e-06 < 0.01
Simulation CPU 0 panic: IPC 0.003121 < 0.01
Simulation CPU 0 panic: IPC 0.0030986 < 0.01
Simulation CPU 0 warning: IPC 0.036728 < 0.05
Simulation CPU 0 warning: IPC 0.029702 < 0.05
Heartbeat CPU 0 instructions: 10000002 cycles: 658288758 heartbeat IPC: 0.01519 cumulative IPC: 0.01519 (Simulation time: 00 hr 50 min 07 sec)
Simulation CPU 0 warning: IPC 0.02925 < 0.05
Simulation CPU 0 warning: IPC 0.04774 < 0.05
Simulation CPU 0 panic: IPC 0.0062037 < 0.01
Simulation CPU 0 panic: IPC 0.0039995 < 0.01
Simulation CPU 0 warning: IPC 0.02399 < 0.05
Simulation CPU 0 warning: IPC 0.03414 < 0.05
Simulation CPU 0 warning: IPC 0.022203 < 0.05
Simulation CPU 0 panic: IPC 0.0084508 < 0.01
Simulation CPU 0 critical: IPC 0.012076 < 0.02
Simulation CPU 0 panic: IPC 0.0071009 < 0.01
Simulation CPU 0 critical: IPC 0.018628 < 0.02
Simulation CPU 0 panic: IPC 8e-06 < 0.01
Simulation CPU 0 panic: IPC 0.0062191 < 0.01
Simulation CPU 0 panic: IPC 0.000472 < 0.01
Simulation CPU 0 warning: IPC 0.046519 < 0.05
Simulation CPU 0 warning: IPC 0.027922 < 0.05
Simulation CPU 0 warning: IPC 0.028193 < 0.05
Simulation CPU 0 panic: IPC 0.000504 < 0.01
Simulation CPU 0 panic: IPC 8e-06 < 0.01
Simulation CPU 0 critical: IPC 0.014575 < 0.02
Simulation CPU 0 panic: IPC 0.003084 < 0.01
Simulation CPU 0 warning: IPC 0.021741 < 0.05
Simulation CPU 0 critical: IPC 0.018644 < 0.02
Simulation CPU 0 critical: IPC 0.013816 < 0.02
Simulation CPU 0 warning: IPC 0.032018 < 0.05
Heartbeat CPU 0 instructions: 20000002 cycles: 970209811 heartbeat IPC: 0.03206 cumulative IPC: 0.02061 (Simulation time: 01 hr 13 min 55 sec)
Simulation CPU 0 warning: IPC 0.021011 < 0.05
Simulation CPU 0 panic: IPC 0.0048918 < 0.01
Simulation CPU 0 warning: IPC 0.029914 < 0.05
Simulation CPU 0 warning: IPC 0.036379 < 0.05
Simulation CPU 0 critical: IPC 0.015526 < 0.02
Simulation CPU 0 warning: IPC 0.021714 < 0.05
Simulation CPU 0 critical: IPC 0.01551 < 0.02
Simulation CPU 0 critical: IPC 0.018613 < 0.02
Simulation CPU 0 critical: IPC 0.012392 < 0.02
Simulation CPU 0 panic: IPC 0.0093017 < 0.01
Simulation CPU 0 critical: IPC 0.015508 < 0.02
Simulation CPU 0 warning: IPC 0.034145 < 0.05
Simulation CPU 0 critical: IPC 0.012406 < 0.02
Simulation CPU 0 warning: IPC 0.037298 < 0.05
Simulation CPU 0 panic: IPC 0.0031301 < 0.01
Simulation CPU 0 critical: IPC 0.015537 < 0.02
Simulation CPU 0 panic: IPC 0.000472 < 0.01
Simulation CPU 0 critical: IPC 0.015048 < 0.02
Simulation CPU 0 critical: IPC 0.012423 < 0.02
Simulation CPU 0 panic: IPC 0.000472 < 0.01
Simulation CPU 0 warning: IPC 0.036737 < 0.05
Simulation CPU 0 warning: IPC 0.024809 < 0.05
Simulation CPU 0 panic: IPC 0.0062005 < 0.01
Simulation CPU 0 warning: IPC 0.049616 < 0.05
Simulation CPU 0 panic: IPC 0.009301 < 0.01
Simulation CPU 0 critical: IPC 0.011867 < 0.02
Simulation CPU 0 warning: IPC 0.030148 < 0.05
Heartbeat CPU 0 instructions: 30000004 cycles: 1309814872 heartbeat IPC: 0.02945 cumulative IPC: 0.0229 (Simulation time: 01 hr 39 min 54 sec)
Simulation CPU 0 warning: IPC 0.030136 < 0.05
Simulation CPU 0 warning: IPC 0.029719 < 0.05
Simulation CPU 0 panic: IPC 0.0036081 < 0.01
Simulation CPU 0 panic: IPC 0 < 0.01
Simulation CPU 0 panic: IPC 0.0062108 < 0.01
Simulation CPU 0 panic: IPC 0.0048863 < 0.01
Simulation CPU 0 panic: IPC 0.0093111 < 0.01
Simulation CPU 0 critical: IPC 0.012394 < 0.02
Simulation CPU 0 panic: IPC 1.59e-05 < 0.01
Simulation CPU 0 critical: IPC 0.015504 < 0.02
Simulation CPU 0 critical: IPC 0.011416 < 0.02
Simulation CPU 0 warning: IPC 0.027581 < 0.05
Simulation CPU 0 panic: IPC 8.4e-05 < 0.01
Simulation CPU 0 panic: IPC 5.6e-06 < 0.01
Simulation CPU 0 warning: IPC 0.022949 < 0.05
Simulation CPU 0 critical: IPC 0.016396 < 0.02
Simulation CPU 0 warning: IPC 0.039447 < 0.05
Simulation CPU 0 panic: IPC 0.006212 < 0.01
Simulation CPU 0 panic: IPC 0.0031088 < 0.01
Simulation CPU 0 warning: IPC 0.024504 < 0.05
Simulation CPU 0 warning: IPC 0.043736 < 0.05
Simulation CPU 0 panic: IPC 0.0085768 < 0.01
Simulation CPU 0 warning: IPC 0.021453 < 0.05
Simulation CPU 0 panic: IPC 0.0041138 < 0.01
Simulation CPU 0 warning: IPC 0.020862 < 0.05
Simulation CPU 0 warning: IPC 0.038062 < 0.05
Simulation CPU 0 panic: IPC 0.0062027 < 0.01
Simulation CPU 0 panic: IPC 0.0031156 < 0.01
Simulation CPU 0 warning: IPC 0.037205 < 0.05
Simulation CPU 0 panic: IPC 0.0078495 < 0.01
Simulation CPU 0 critical: IPC 0.01385 < 0.02
Simulation CPU 0 warning: IPC 0.035432 < 0.05
Simulation CPU 0 panic: IPC 0.0062091 < 0.01
Simulation CPU 0 panic: IPC 0.0031298 < 0.01
Simulation CPU 0 panic: IPC 0.0062028 < 0.01
Simulation CPU 0 critical: IPC 0.018643 < 0.02
Simulation CPU 0 critical: IPC 0.018628 < 0.02
Simulation CPU 0 panic: IPC 0.000472 < 0.01
Simulation CPU 0 critical: IPC 0.011207 < 0.02
Simulation CPU 0 warning: IPC 0.025583 < 0.05
Simulation CPU 0 panic: IPC 0.0031006 < 0.01
Simulation CPU 0 warning: IPC 0.026596 < 0.05
Simulation CPU 0 critical: IPC 0.011128 < 0.02
Simulation CPU 0 critical: IPC 0.013677 < 0.02
Simulation CPU 0 critical: IPC 0.012412 < 0.02
Simulation CPU 0 panic: IPC 0.0031006 < 0.01
Heartbeat CPU 0 instructions: 40000005 cycles: 1801885167 heartbeat IPC: 0.02032 cumulative IPC: 0.0222 (Simulation time: 02 hr 19 min 22 sec)
Simulation CPU 0 warning: IPC 0.034142 < 0.05
Simulation CPU 0 warning: IPC 0.040305 < 0.05
Simulation CPU 0 warning: IPC 0.030423 < 0.05
Simulation CPU 0 warning: IPC 0.047096 < 0.05
Simulation CPU 0 warning: IPC 0.027917 < 0.05
Simulation CPU 0 panic: IPC 0.0093076 < 0.01
Simulation CPU 0 panic: IPC 0.0066835 < 0.01
Simulation CPU 0 critical: IPC 0.013914 < 0.02
Simulation CPU 0 warning: IPC 0.042126 < 0.05
Simulation CPU 0 warning: IPC 0.044396 < 0.05
Simulation CPU 0 warning: IPC 0.03002 < 0.05
Simulation CPU 0 warning: IPC 0.046924 < 0.05
Simulation CPU 0 warning: IPC 0.024422 < 0.05
Simulation CPU 0 critical: IPC 0.012422 < 0.02
Simulation CPU 0 critical: IPC 0.012448 < 0.02
Simulation CPU 0 panic: IPC 0.0093099 < 0.01
Simulation CPU 0 panic: IPC 0.0093221 < 0.01
Simulation CPU 0 warning: IPC 0.046528 < 0.05
Simulation CPU 0 warning: IPC 0.044912 < 0.05
Simulation CPU 0 warning: IPC 0.032624 < 0.05
Simulation CPU 0 warning: IPC 0.04032 < 0.05
Heartbeat CPU 0 instructions: 50000009 cycles: 2067605571 heartbeat IPC: 0.03763 cumulative IPC: 0.02418 (Simulation time: 02 hr 39 min 07 sec)
Simulation CPU 0 warning: IPC 0.035837 < 0.05
Simulation CPU 0 warning: IPC 0.029294 < 0.05
Simulation CPU 0 warning: IPC 0.027913 < 0.05
Simulation CPU 0 critical: IPC 0.012347 < 0.02
Simulation CPU 0 panic: IPC 0.0062664 < 0.01
Simulation CPU 0 warning: IPC 0.046498 < 0.05
Simulation CPU 0 panic: IPC 0.0031165 < 0.01
Simulation CPU 0 warning: IPC 0.024802 < 0.05
Simulation CPU 0 panic: IPC 0.0057332 < 0.01
Simulation CPU 0 warning: IPC 0.025781 < 0.05
Simulation CPU 0 warning: IPC 0.035779 < 0.05
Simulation CPU 0 panic: IPC 0.0094624 < 0.01
Simulation CPU 0 warning: IPC 0.021707 < 0.05
Simulation CPU 0 warning: IPC 0.042239 < 0.05
Simulation CPU 0 warning: IPC 0.031905 < 0.05
Simulation CPU 0 panic: IPC 0.0084106 < 0.01
Simulation CPU 0 warning: IPC 0.04377 < 0.05
Simulation CPU 0 panic: IPC 0.0049182 < 0.01
Simulation CPU 0 panic: IPC 0.0002752 < 0.01
Simulation CPU 0 panic: IPC 0.0004992 < 0.01
Simulation CPU 0 warning: IPC 0.037378 < 0.05
Simulation CPU 0 critical: IPC 0.012407 < 0.02
Simulation CPU 0 critical: IPC 0.016256 < 0.02
Simulation CPU 0 warning: IPC 0.047494 < 0.05
Simulation CPU 0 critical: IPC 0.010089 < 0.02
Heartbeat CPU 0 instructions: 60000012 cycles: 2388767939 heartbeat IPC: 0.03114 cumulative IPC: 0.02512 (Simulation time: 03 hr 05 min 08 sec)
Simulation CPU 0 warning: IPC 0.030063 < 0.05
Simulation CPU 0 panic: IPC 0.0071695 < 0.01
Simulation CPU 0 panic: IPC 0.0062084 < 0.01
Simulation CPU 0 critical: IPC 0.018601 < 0.02
Simulation CPU 0 panic: IPC 0.0031085 < 0.01
Simulation CPU 0 warning: IPC 0.024266 < 0.05
Simulation CPU 0 critical: IPC 0.015975 < 0.02
Simulation CPU 0 critical: IPC 0.016903 < 0.02
Simulation CPU 0 panic: IPC 0.004106 < 0.01
Simulation CPU 0 panic: IPC 0.0095409 < 0.01
Simulation CPU 0 panic: IPC 0.009328 < 0.01
Simulation CPU 0 panic: IPC 0.0031036 < 0.01
Simulation CPU 0 critical: IPC 0.012432 < 0.02
Simulation CPU 0 panic: IPC 0.003084 < 0.01
Simulation CPU 0 panic: IPC 0.0031205 < 0.01
Simulation CPU 0 panic: IPC 0.0031204 < 0.01
Simulation CPU 0 critical: IPC 0.015519 < 0.02
Simulation CPU 0 warning: IPC 0.037201 < 0.05
Simulation CPU 0 panic: IPC 0.0092978 < 0.01
Simulation CPU 0 critical: IPC 0.016151 < 0.02
Simulation CPU 0 warning: IPC 0.039708 < 0.05
Simulation CPU 0 critical: IPC 0.019827 < 0.02
Simulation CPU 0 warning: IPC 0.0396 < 0.05
Simulation CPU 0 critical: IPC 0.018138 < 0.02
Simulation CPU 0 warning: IPC 0.031703 < 0.05
Simulation CPU 0 warning: IPC 0.029542 < 0.05
Simulation CPU 0 warning: IPC 0.039565 < 0.05
Simulation CPU 0 warning: IPC 0.041064 < 0.05
Simulation CPU 0 warning: IPC 0.02866 < 0.05
Simulation CPU 0 critical: IPC 0.010367 < 0.02
Simulation CPU 0 warning: IPC 0.029437 < 0.05
Simulation CPU 0 warning: IPC 0.026898 < 0.05
Simulation CPU 0 panic: IPC 0.0031046 < 0.01
Simulation CPU 0 critical: IPC 0.016003 < 0.02
Simulation CPU 0 critical: IPC 0.012994 < 0.02
Simulation CPU 0 warning: IPC 0.037004 < 0.05
Heartbeat CPU 0 instructions: 70000012 cycles: 2793081884 heartbeat IPC: 0.02473 cumulative IPC: 0.02506 (Simulation time: 03 hr 36 min 31 sec)
Simulation CPU 0 panic: IPC 0.0001504 < 0.01
Simulation CPU 0 panic: IPC 0.0005464 < 0.01
Simulation CPU 0 warning: IPC 0.047184 < 0.05
Simulation CPU 0 panic: IPC 0.0093234 < 0.01
Simulation CPU 0 panic: IPC 0.0030368 < 0.01
Simulation CPU 0 panic: IPC 0.0031966 < 0.01
Simulation CPU 0 critical: IPC 0.015536 < 0.02
Simulation CPU 0 warning: IPC 0.03103 < 0.05
Simulation CPU 0 critical: IPC 0.017233 < 0.02
Simulation CPU 0 critical: IPC 0.01209 < 0.02
Simulation CPU 0 warning: IPC 0.023445 < 0.05
Simulation CPU 0 panic: IPC 0.0062376 < 0.01
Simulation CPU 0 panic: IPC 0.000472 < 0.01
Simulation CPU 0 panic: IPC 0.0026286 < 0.01
Simulation CPU 0 critical: IPC 0.018433 < 0.02
Simulation CPU 0 warning: IPC 0.040478 < 0.05
Simulation CPU 0 panic: IPC 0.0006496 < 0.01
Simulation CPU 0 panic: IPC 0.0023128 < 0.01
Simulation CPU 0 panic: IPC 0 < 0.01
Simulation CPU 0 panic: IPC 0.0001032 < 0.01
Simulation CPU 0 warning: IPC 0.024836 < 0.05
Simulation CPU 0 panic: IPC 0.003113 < 0.01
Simulation CPU 0 panic: IPC 0.0062012 < 0.01
Simulation CPU 0 warning: IPC 0.030199 < 0.05
Simulation CPU 0 panic: IPC 0.0031052 < 0.01
Simulation CPU 0 panic: IPC 0.0031162 < 0.01
Simulation CPU 0 warning: IPC 0.031277 < 0.05
Simulation CPU 0 panic: IPC 0.0002752 < 0.01
Simulation CPU 0 panic: IPC 8.32e-05 < 0.01
Simulation CPU 0 warning: IPC 0.023593 < 0.05
Simulation CPU 0 panic: IPC 0.0052251 < 0.01
Simulation CPU 0 warning: IPC 0.021098 < 0.05
Simulation CPU 0 critical: IPC 0.018616 < 0.02
Simulation CPU 0 warning: IPC 0.021708 < 0.05
Simulation CPU 0 panic: IPC 0.000472 < 0.01
Simulation CPU 0 warning: IPC 0.045463 < 0.05
Simulation CPU 0 panic: IPC 0.0044782 < 0.01
Simulation CPU 0 panic: IPC 1.56e-05 < 0.01
Simulation CPU 0 panic: IPC 0.003104 < 0.01
Simulation CPU 0 panic: IPC 0.0093379 < 0.01
Simulation CPU 0 critical: IPC 0.015509 < 0.02
Simulation CPU 0 panic: IPC 0.0093226 < 0.01
Simulation CPU 0 panic: IPC 0.0030953 < 0.01
Simulation CPU 0 warning: IPC 0.024829 < 0.05
Heartbeat CPU 0 instructions: 80000016 cycles: 3303642439 heartbeat IPC: 0.01959 cumulative IPC: 0.02422 (Simulation time: 04 hr 16 min 31 sec)
Simulation CPU 0 critical: IPC 0.019239 < 0.02
Simulation CPU 0 critical: IPC 0.018027 < 0.02
Simulation CPU 0 critical: IPC 0.01551 < 0.02
Simulation CPU 0 panic: IPC 0.0062118 < 0.01
Simulation CPU 0 panic: IPC 0.0031086 < 0.01
Simulation CPU 0 warning: IPC 0.021707 < 0.05
Simulation CPU 0 panic: IPC 0.0031162 < 0.01
Simulation CPU 0 warning: IPC 0.031003 < 0.05
Simulation CPU 0 critical: IPC 0.015517 < 0.02
Simulation CPU 0 critical: IPC 0.011644 < 0.02
Simulation CPU 0 critical: IPC 0.019609 < 0.02
Simulation CPU 0 panic: IPC 0.0093115 < 0.01
Simulation CPU 0 critical: IPC 0.015503 < 0.02
Simulation CPU 0 panic: IPC 7.2e-06 < 0.01
Simulation CPU 0 panic: IPC 0.0030999 < 0.01
Simulation CPU 0 critical: IPC 0.014887 < 0.02
Simulation CPU 0 critical: IPC 0.014667 < 0.02
Simulation CPU 0 warning: IPC 0.035802 < 0.05
Simulation CPU 0 warning: IPC 0.03195 < 0.05
Simulation CPU 0 warning: IPC 0.049273 < 0.05
Simulation CPU 0 warning: IPC 0.03064 < 0.05
Simulation CPU 0 warning: IPC 0.036742 < 0.05
Heartbeat CPU 0 instructions: 90000018 cycles: 3610945632 heartbeat IPC: 0.03254 cumulative IPC: 0.02492 (Simulation time: 04 hr 43 min 40 sec)
Simulation CPU 0 warning: IPC 0.044167 < 0.05
Simulation CPU 0 critical: IPC 0.015484 < 0.02
Simulation CPU 0 warning: IPC 0.039333 < 0.05
Simulation CPU 0 panic: IPC 0.0015448 < 0.01
Simulation CPU 0 panic: IPC 0.0078785 < 0.01
Simulation CPU 0 panic: IPC 0.0031066 < 0.01
Simulation CPU 0 panic: IPC 0.000472 < 0.01
Simulation CPU 0 warning: IPC 0.049164 < 0.05
Simulation CPU 0 warning: IPC 0.024824 < 0.05
Simulation CPU 0 critical: IPC 0.01241 < 0.02
Simulation CPU 0 panic: IPC 0.0093118 < 0.01
Simulation CPU 0 warning: IPC 0.02434 < 0.05
Simulation CPU 0 panic: IPC 0.0097679 < 0.01
Simulation CPU 0 warning: IPC 0.020319 < 0.05
Heartbeat CPU 0 instructions: 100000020 cycles: 3839710094 heartbeat IPC: 0.04371 cumulative IPC: 0.02604 (Simulation time: 05 hr 01 min 34 sec)
Simulation CPU 0 warning: IPC 0.031156 < 0.05
Simulation CPU 0 warning: IPC 0.0294 < 0.05
Simulation CPU 0 warning: IPC 0.030031 < 0.05
Simulation CPU 0 critical: IPC 0.011106 < 0.02
Simulation CPU 0 panic: IPC 0.009306 < 0.01
Simulation CPU 0 warning: IPC 0.037221 < 0.05
Simulation CPU 0 warning: IPC 0.027908 < 0.05
Simulation CPU 0 warning: IPC 0.033023 < 0.05
Simulation CPU 0 warning: IPC 0.025897 < 0.05
Simulation CPU 0 panic: IPC 0.0030953 < 0.01
Simulation CPU 0 critical: IPC 0.01553 < 0.02
Simulation CPU 0 critical: IPC 0.012412 < 0.02
Simulation CPU 0 panic: IPC 0.0047915 < 0.01
Simulation CPU 0 critical: IPC 0.015513 < 0.02
Simulation CPU 0 panic: IPC 0.0031276 < 0.01
Simulation CPU 0 critical: IPC 0.0193 < 0.02
Simulation CPU 0 warning: IPC 0.027771 < 0.05
Simulation CPU 0 panic: IPC 0.0001359 < 0.01
Simulation CPU 0 panic: IPC 0.000472 < 0.01
Simulation CPU 0 panic: IPC 0.0026305 < 0.01
Simulation CPU 0 panic: IPC 0.0062024 < 0.01
Simulation CPU 0 panic: IPC 0.0031166 < 0.01
Simulation CPU 0 critical: IPC 0.016991 < 0.02
Simulation CPU 0 panic: IPC 0.0016255 < 0.01
Simulation CPU 0 panic: IPC 0.0062184 < 0.01
Simulation CPU 0 critical: IPC 0.012414 < 0.02
Simulation CPU 0 warning: IPC 0.027767 < 0.05
Simulation CPU 0 critical: IPC 0.018799 < 0.02
Simulation CPU 0 panic: IPC 0.0062032 < 0.01
Simulation CPU 0 panic: IPC 0.0031018 < 0.01
Simulation CPU 0 panic: IPC 0.0062335 < 0.01
Simulation CPU 0 warning: IPC 0.032549 < 0.05
Simulation CPU 0 panic: IPC 0.0093185 < 0.01
Simulation CPU 0 panic: IPC 0.0062274 < 0.01
Heartbeat CPU 0 instructions: 110000020 cycles: 4253272443 heartbeat IPC: 0.02418 cumulative IPC: 0.02586 (Simulation time: 05 hr 33 min 39 sec)
Simulation CPU 0 warning: IPC 0.027736 < 0.05
Simulation CPU 0 warning: IPC 0.044337 < 0.05
Simulation CPU 0 critical: IPC 0.018666 < 0.02
Simulation CPU 0 critical: IPC 0.016531 < 0.02
Simulation CPU 0 panic: IPC 0.0051826 < 0.01
Simulation CPU 0 warning: IPC 0.040354 < 0.05
Simulation CPU 0 warning: IPC 0.049623 < 0.05
Simulation CPU 0 panic: IPC 0.0031006 < 0.01
Simulation CPU 0 warning: IPC 0.039765 < 0.05
Simulation CPU 0 warning: IPC 0.042094 < 0.05
Simulation CPU 0 panic: IPC 0.0050182 < 0.01
Simulation CPU 0 panic: IPC 0.0031061 < 0.01
Simulation CPU 0 warning: IPC 0.027917 < 0.05
Simulation CPU 0 warning: IPC 0.027928 < 0.05
Simulation CPU 0 warning: IPC 0.02941 < 0.05
Simulation CPU 0 panic: IPC 0.0015956 < 0.01
Simulation CPU 0 warning: IPC 0.040336 < 0.05
Simulation CPU 0 panic: IPC 0.0031022 < 0.01
Simulation CPU 0 warning: IPC 0.034124 < 0.05
Simulation CPU 0 warning: IPC 0.033681 < 0.05
Simulation CPU 0 warning: IPC 0.03104 < 0.05
Simulation CPU 0 panic: IPC 0.009315 < 0.01
Simulation CPU 0 panic: IPC 0.0030953 < 0.01
Simulation CPU 0 critical: IPC 0.012429 < 0.02
Simulation CPU 0 panic: IPC 0.000472 < 0.01
Simulation CPU 0 panic: IPC 0.0026337 < 0.01
Simulation CPU 0 panic: IPC 0.0062042 < 0.01
Simulation CPU 0 panic: IPC 0.0031006 < 0.01
Simulation CPU 0 critical: IPC 0.019854 < 0.02
Simulation CPU 0 warning: IPC 0.03287 < 0.05
Simulation CPU 0 critical: IPC 0.019876 < 0.02
Simulation CPU 0 warning: IPC 0.020465 < 0.05
Simulation CPU 0 panic: IPC 0.0031226 < 0.01
Simulation CPU 0 critical: IPC 0.0124 < 0.02
Simulation CPU 0 warning: IPC 0.040328 < 0.05
Simulation CPU 0 panic: IPC 0.0031012 < 0.01
Heartbeat CPU 0 instructions: 120000024 cycles: 4657590163 heartbeat IPC: 0.02473 cumulative IPC: 0.02576 (Simulation time: 06 hr 07 min 32 sec)
Simulation CPU 0 warning: IPC 0.031003 < 0.05
Simulation CPU 0 warning: IPC 0.021715 < 0.05
Simulation CPU 0 warning: IPC 0.021711 < 0.05
Simulation CPU 0 critical: IPC 0.012397 < 0.02
Simulation CPU 0 warning: IPC 0.024816 < 0.05
Simulation CPU 0 panic: IPC 0.0083047 < 0.01
Simulation CPU 0 warning: IPC 0.044415 < 0.05
Simulation CPU 0 warning: IPC 0.042085 < 0.05
Simulation CPU 0 warning: IPC 0.026159 < 0.05
Simulation CPU 0 panic: IPC 0.0062047 < 0.01
Simulation CPU 0 critical: IPC 0.011248 < 0.02
Simulation CPU 0 panic: IPC 0.0061998 < 0.01
Simulation CPU 0 warning: IPC 0.043409 < 0.05
Simulation CPU 0 critical: IPC 0.015508 < 0.02
Simulation CPU 0 critical: IPC 0.012404 < 0.02
Simulation CPU 0 panic: IPC 0.0031006 < 0.01
Simulation CPU 0 warning: IPC 0.027915 < 0.05
Simulation CPU 0 critical: IPC 0.015503 < 0.02
Simulation CPU 0 panic: IPC 0.0062005 < 0.01
Simulation CPU 0 panic: IPC 0.0092958 < 0.01
Simulation CPU 0 warning: IPC 0.040332 < 0.05
Simulation CPU 0 panic: IPC 0.0031058 < 0.01
Simulation CPU 0 warning: IPC 0.031006 < 0.05
Simulation CPU 0 warning: IPC 0.032863 < 0.05
Simulation CPU 0 critical: IPC 0.015512 < 0.02
Simulation CPU 0 warning: IPC 0.034125 < 0.05
Simulation CPU 0 critical: IPC 0.015505 < 0.02
Simulation CPU 0 panic: IPC 0.0062091 < 0.01
Simulation CPU 0 panic: IPC 0.0035924 < 0.01
Simulation CPU 0 panic: IPC 0.0026332 < 0.01
Simulation CPU 0 warning: IPC 0.027907 < 0.05
Simulation CPU 0 warning: IPC 0.021717 < 0.05
Simulation CPU 0 critical: IPC 0.012402 < 0.02
Simulation CPU 0 critical: IPC 0.01855 < 0.02
Simulation CPU 0 critical: IPC 0.012459 < 0.02
Simulation CPU 0 panic: IPC 0.0062102 < 0.01
Simulation CPU 0 critical: IPC 0.012402 < 0.02
Simulation CPU 0 critical: IPC 0.018601 < 0.02
Simulation CPU 0 warning: IPC 0.026708 < 0.05
Simulation CPU 0 warning: IPC 0.029906 < 0.05
Heartbeat CPU 0 instructions: 130000024 cycles: 5080385033 heartbeat IPC: 0.02365 cumulative IPC: 0.02559 (Simulation time: 06 hr 44 min 06 sec)
Simulation CPU 0 warning: IPC 0.024808 < 0.05
Simulation CPU 0 warning: IPC 0.021711 < 0.05
Simulation CPU 0 critical: IPC 0.016107 < 0.02
Simulation CPU 0 warning: IPC 0.038343 < 0.05
Simulation CPU 0 warning: IPC 0.023094 < 0.05
Simulation CPU 0 warning: IPC 0.021711 < 0.05
Simulation CPU 0 critical: IPC 0.01242 < 0.02
Simulation CPU 0 panic: IPC 1.8e-05 < 0.01
Simulation CPU 0 panic: IPC 0.0062084 < 0.01
Simulation CPU 0 panic: IPC 0.0096442 < 0.01
Simulation CPU 0 critical: IPC 0.017865 < 0.02
Simulation CPU 0 warning: IPC 0.046515 < 0.05
Simulation CPU 0 panic: IPC 0.0031112 < 0.01
Simulation CPU 0 warning: IPC 0.038429 < 0.05
Heartbeat CPU 0 instructions: 140000027 cycles: 5318384032 heartbeat IPC: 0.04202 cumulative IPC: 0.02632 (Simulation time: 07 hr 04 min 29 sec)
Simulation CPU 0 warning: IPC 0.029656 < 0.05
Simulation CPU 0 warning: IPC 0.031841 < 0.05
Simulation CPU 0 critical: IPC 0.015537 < 0.02
Simulation CPU 0 warning: IPC 0.027918 < 0.05
Simulation CPU 0 critical: IPC 0.017531 < 0.02
Simulation CPU 0 warning: IPC 0.030083 < 0.05
Simulation CPU 0 critical: IPC 0.013859 < 0.02
Simulation CPU 0 critical: IPC 0.015247 < 0.02
Simulation CPU 0 warning: IPC 0.038104 < 0.05
Simulation CPU 0 warning: IPC 0.039079 < 0.05
Heartbeat CPU 0 instructions: 150000029 cycles: 5528679191 heartbeat IPC: 0.04755 cumulative IPC: 0.02713 (Simulation time: 07 hr 20 min 45 sec)
Simulation CPU 0 panic: IPC 0.0046596 < 0.01
Simulation CPU 0 warning: IPC 0.035377 < 0.05
Simulation CPU 0 panic: IPC 0.001886 < 0.01
Simulation CPU 0 warning: IPC 0.037245 < 0.05
Simulation CPU 0 panic: IPC 0.0047864 < 0.01
Simulation CPU 0 critical: IPC 0.010732 < 0.02
Simulation CPU 0 panic: IPC 0.0062005 < 0.01
Simulation CPU 0 warning: IPC 0.031666 < 0.05
Simulation CPU 0 panic: IPC 0.0037618 < 0.01
Simulation CPU 0 warning: IPC 0.023191 < 0.05
Simulation CPU 0 panic: IPC 0.0001776 < 0.01
Simulation CPU 0 panic: IPC 6.32e-05 < 0.01
Simulation CPU 0 panic: IPC 1.28e-05 < 0.01
Simulation CPU 0 panic: IPC 9.12e-05 < 0.01
Simulation CPU 0 panic: IPC 8.8e-05 < 0.01
Simulation CPU 0 panic: IPC 0.0070581 < 0.01
Simulation CPU 0 panic: IPC 0.0082158 < 0.01
Simulation CPU 0 critical: IPC 0.015516 < 0.02
Simulation CPU 0 critical: IPC 0.012422 < 0.02
Simulation CPU 0 panic: IPC 0.0062005 < 0.01
Simulation CPU 0 panic: IPC 0.0031178 < 0.01
Simulation CPU 0 warning: IPC 0.041114 < 0.05
Simulation CPU 0 panic: IPC 0.0053959 < 0.01
Simulation CPU 0 panic: IPC 0.0093168 < 0.01
Simulation CPU 0 critical: IPC 0.012403 < 0.02
Simulation CPU 0 warning: IPC 0.046508 < 0.05
Simulation CPU 0 warning: IPC 0.026223 < 0.05
Heartbeat CPU 0 instructions: 160000031 cycles: 5886791466 heartbeat IPC: 0.02792 cumulative IPC: 0.02718 (Simulation time: 07 hr 47 min 59 sec)
Simulation CPU 0 warning: IPC 0.021376 < 0.05
Simulation CPU 0 warning: IPC 0.024333 < 0.05
Simulation CPU 0 warning: IPC 0.037209 < 0.05
Simulation CPU 0 warning: IPC 0.029972 < 0.05
Simulation CPU 0 panic: IPC 0.0062005 < 0.01
Simulation CPU 0 warning: IPC 0.043413 < 0.05
Simulation CPU 0 panic: IPC 7.2e-05 < 0.01
Simulation CPU 0 critical: IPC 0.012125 < 0.02
Simulation CPU 0 critical: IPC 0.018609 < 0.02
Simulation CPU 0 critical: IPC 0.01109 < 0.02
Simulation CPU 0 warning: IPC 0.034133 < 0.05
Simulation CPU 0 warning: IPC 0.024823 < 0.05
Simulation CPU 0 critical: IPC 0.016031 < 0.02
Simulation CPU 0 critical: IPC 0.015506 < 0.02
Simulation CPU 0 warning: IPC 0.033606 < 0.05
Simulation CPU 0 critical: IPC 0.018067 < 0.02
Simulation CPU 0 warning: IPC 0.030192 < 0.05
Simulation CPU 0 warning: IPC 0.025907 < 0.05
Simulation CPU 0 warning: IPC 0.033806 < 0.05
Simulation CPU 0 warning: IPC 0.030018 < 0.05
Simulation CPU 0 warning: IPC 0.029566 < 0.05
Simulation CPU 0 warning: IPC 0.030109 < 0.05
Simulation CPU 0 warning: IPC 0.029907 < 0.05
Heartbeat CPU 0 instructions: 170000034 cycles: 6180217340 heartbeat IPC: 0.03408 cumulative IPC: 0.02751 (Simulation time: 08 hr 12 min 06 sec)
Simulation CPU 0 warning: IPC 0.038011 < 0.05
Simulation CPU 0 critical: IPC 0.01439 < 0.02
Simulation CPU 0 warning: IPC 0.046981 < 0.05
Simulation CPU 0 panic: IPC 0.008829 < 0.01
Simulation CPU 0 critical: IPC 0.013191 < 0.02
Simulation CPU 0 critical: IPC 0.01941 < 0.02
Simulation CPU 0 warning: IPC 0.021745 < 0.05
Simulation CPU 0 critical: IPC 0.01364 < 0.02
Simulation CPU 0 critical: IPC 0.011121 < 0.02
Simulation CPU 0 critical: IPC 0.01244 < 0.02
Simulation CPU 0 panic: IPC 0.0093023 < 0.01
Simulation CPU 0 panic: IPC 0.0039242 < 0.01
Simulation CPU 0 warning: IPC 0.031004 < 0.05
Simulation CPU 0 critical: IPC 0.012398 < 0.02
Simulation CPU 0 panic: IPC 0.0093252 < 0.01
Simulation CPU 0 warning: IPC 0.040326 < 0.05
Simulation CPU 0 warning: IPC 0.023187 < 0.05
Simulation CPU 0 critical: IPC 0.017137 < 0.02
Simulation CPU 0 panic: IPC 0.0062122 < 0.01
Simulation CPU 0 warning: IPC 0.025978 < 0.05
Simulation CPU 0 critical: IPC 0.014341 < 0.02
Simulation CPU 0 critical: IPC 0.012879 < 0.02
Simulation CPU 0 warning: IPC 0.042943 < 0.05
Simulation CPU 0 critical: IPC 0.012407 < 0.02
Simulation CPU 0 warning: IPC 0.029813 < 0.05
Simulation CPU 0 warning: IPC 0.021361 < 0.05
Simulation CPU 0 critical: IPC 0.012418 < 0.02
Heartbeat CPU 0 instructions: 180000036 cycles: 6529067315 heartbeat IPC: 0.02867 cumulative IPC: 0.02757 (Simulation time: 08 hr 39 min 59 sec)
Simulation CPU 0 warning: IPC 0.020462 < 0.05
Simulation CPU 0 critical: IPC 0.015522 < 0.02
Simulation CPU 0 warning: IPC 0.043406 < 0.05
Simulation CPU 0 warning: IPC 0.021745 < 0.05
Simulation CPU 0 warning: IPC 0.032056 < 0.05
Simulation CPU 0 warning: IPC 0.038875 < 0.05
Simulation CPU 0 warning: IPC 0.036727 < 0.05
Simulation CPU 0 panic: IPC 0.0092923 < 0.01
Simulation CPU 0 critical: IPC 0.016889 < 0.02
Simulation CPU 0 warning: IPC 0.029654 < 0.05
Simulation CPU 0 warning: IPC 0.034107 < 0.05
Simulation CPU 0 warning: IPC 0.03556 < 0.05
Simulation CPU 0 panic: IPC 0.006978 < 0.01
Simulation CPU 0 warning: IPC 0.025705 < 0.05
Simulation CPU 0 warning: IPC 0.031024 < 0.05
Simulation CPU 0 critical: IPC 0.010548 < 0.02
Simulation CPU 0 warning: IPC 0.040736 < 0.05
Simulation CPU 0 critical: IPC 0.018818 < 0.02
Simulation CPU 0 warning: IPC 0.030084 < 0.05
Simulation CPU 0 warning: IPC 0.029481 < 0.05
Simulation CPU 0 warning: IPC 0.04502 < 0.05
Simulation CPU 0 warning: IPC 0.023849 < 0.05
Simulation CPU 0 panic: IPC 0.009349 < 0.01
Simulation CPU 0 panic: IPC 0.000472 < 0.01
Simulation CPU 0 warning: IPC 0.021234 < 0.05
Simulation CPU 0 critical: IPC 0.012413 < 0.02
Simulation CPU 0 critical: IPC 0.012408 < 0.02
Simulation CPU 0 critical: IPC 0.012414 < 0.02
Simulation CPU 0 panic: IPC 0.003106 < 0.01
Simulation CPU 0 panic: IPC 0.0062046 < 0.01
Simulation CPU 0 panic: IPC 0.0093342 < 0.01
Simulation CPU 0 critical: IPC 0.018628 < 0.02
Simulation CPU 0 panic: IPC 0.0016322 < 0.01
Simulation CPU 0 panic: IPC 0.00122 < 0.01
Simulation CPU 0 panic: IPC 1.76e-05 < 0.01
Simulation CPU 0 panic: IPC 3.44e-05 < 0.01
Simulation CPU 0 panic: IPC 8e-06 < 0.01
Simulation CPU 0 panic: IPC 8.8e-06 < 0.01
Simulation CPU 0 panic: IPC 1.76e-05 < 0.01
Simulation CPU 0 panic: IPC 8.8e-06 < 0.01
Simulation CPU 0 panic: IPC 1.76e-05 < 0.01
Simulation CPU 0 panic: IPC 1.6e-06 < 0.01
Simulation CPU 0 panic: IPC 8.8e-06 < 0.01
Simulation CPU 0 panic: IPC 8e-06 < 0.01
Simulation CPU 0 panic: IPC 3.2e-05 < 0.01
Simulation CPU 0 panic: IPC 2.4e-05 < 0.01
Simulation CPU 0 panic: IPC 1.6e-05 < 0.01
Simulation CPU 0 panic: IPC 1.6e-06 < 0.01
Simulation CPU 0 panic: IPC 1.04e-05 < 0.01
Simulation CPU 0 panic: IPC 1.84e-05 < 0.01
[ERROR_CYCLE] Error added at CPU cycle 7053240155, interval 1, pending count: 1
[DRAM_CYCLE_ERROR] Cycle-based error applied! address=0x3315d3438 additional_latency=2459910500 cycles
Simulation CPU 0 panic: IPC 0.0062424 < 0.01
Simulation CPU 0 warning: IPC 0.021714 < 0.05
Simulation CPU 0 warning: IPC 0.030078 < 0.05
Heartbeat CPU 0 instructions: 190000039 cycles: 7091053001 heartbeat IPC: 0.01779 cumulative IPC: 0.02679 (Simulation time: 09 hr 24 min 27 sec)
Simulation CPU 0 critical: IPC 0.010883 < 0.02
Simulation CPU 0 warning: IPC 0.022173 < 0.05
Simulation CPU 0 panic: IPC 0.0062151 < 0.01
Simulation CPU 0 panic: IPC 0.0031012 < 0.01
Simulation CPU 0 critical: IPC 0.0186 < 0.02
Simulation CPU 0 warning: IPC 0.032853 < 0.05
Simulation CPU 0 warning: IPC 0.049316 < 0.05
Simulation CPU 0 critical: IPC 0.010886 < 0.02
Simulation CPU 0 warning: IPC 0.043639 < 0.05
Simulation CPU 0 warning: IPC 0.02171 < 0.05
Simulation CPU 0 warning: IPC 0.031028 < 0.05
Simulation CPU 0 warning: IPC 0.031808 < 0.05
Heartbeat CPU 0 instructions: 200000040 cycles: 7310592578 heartbeat IPC: 0.04555 cumulative IPC: 0.02736 (Simulation time: 09 hr 41 min 14 sec)
Simulation CPU 0 critical: IPC 0.013999 < 0.02
Simulation CPU 0 panic: IPC 0.0062028 < 0.01
Simulation CPU 0 warning: IPC 0.024822 < 0.05
Simulation CPU 0 critical: IPC 0.012403 < 0.02
Simulation CPU 0 warning: IPC 0.037224 < 0.05
Simulation CPU 0 warning: IPC 0.02215 < 0.05
Simulation CPU 0 warning: IPC 0.039906 < 0.05
Simulation CPU 0 critical: IPC 0.018614 < 0.02
Simulation CPU 0 panic: IPC 0.0031006 < 0.01
Simulation CPU 0 critical: IPC 0.018607 < 0.02
Simulation CPU 0 warning: IPC 0.027901 < 0.05
Simulation CPU 0 panic: IPC 0.0079078 < 0.01
Simulation CPU 0 critical: IPC 0.019532 < 0.02
Simulation CPU 0 warning: IPC 0.029469 < 0.05
Simulation CPU 0 warning: IPC 0.034121 < 0.05
Simulation CPU 0 warning: IPC 0.021734 < 0.05
Simulation CPU 0 critical: IPC 0.010689 < 0.02
Simulation CPU 0 warning: IPC 0.035919 < 0.05
Simulation CPU 0 warning: IPC 0.030228 < 0.05
Simulation CPU 0 warning: IPC 0.024807 < 0.05
Simulation CPU 0 warning: IPC 0.041678 < 0.05
Heartbeat CPU 0 instructions: 210000042 cycles: 7604018490 heartbeat IPC: 0.03408 cumulative IPC: 0.02762 (Simulation time: 10 hr 02 min 36 sec)
Simulation CPU 0 warning: IPC 0.02102 < 0.05
Simulation CPU 0 warning: IPC 0.031015 < 0.05
Simulation CPU 0 warning: IPC 0.027771 < 0.05
Simulation CPU 0 warning: IPC 0.037359 < 0.05
Simulation CPU 0 warning: IPC 0.027927 < 0.05
Simulation CPU 0 warning: IPC 0.029891 < 0.05
Simulation CPU 0 warning: IPC 0.038322 < 0.05
Simulation CPU 0 panic: IPC 0.0031024 < 0.01
Simulation CPU 0 warning: IPC 0.024819 < 0.05
Simulation CPU 0 panic: IPC 0.0062096 < 0.01
Simulation CPU 0 warning: IPC 0.03103 < 0.05
Simulation CPU 0 panic: IPC 0.0093087 < 0.01
Simulation CPU 0 critical: IPC 0.012407 < 0.02
Simulation CPU 0 warning: IPC 0.024806 < 0.05
Simulation CPU 0 critical: IPC 0.012416 < 0.02
Simulation CPU 0 panic: IPC 0.0062276 < 0.01
Simulation CPU 0 panic: IPC 2.7e-06 < 0.01
Simulation CPU 0 panic: IPC 0.000472 < 0.01
Simulation CPU 0 panic: IPC 0.0088333 < 0.01
Simulation CPU 0 warning: IPC 0.037207 < 0.05
Simulation CPU 0 panic: IPC 0.005695 < 0.01
Simulation CPU 0 panic: IPC 0.0048235 < 0.01
Simulation CPU 0 warning: IPC 0.029602 < 0.05
Simulation CPU 0 warning: IPC 0.03011 < 0.05
Simulation CPU 0 warning: IPC 0.0299 < 0.05
Simulation CPU 0 warning: IPC 0.02964 < 0.05
Simulation CPU 0 warning: IPC 0.022184 < 0.05
Simulation CPU 0 warning: IPC 0.037838 < 0.05
Simulation CPU 0 critical: IPC 0.0149 < 0.02
Simulation CPU 0 warning: IPC 0.044724 < 0.05
Simulation CPU 0 warning: IPC 0.021833 < 0.05
Simulation CPU 0 warning: IPC 0.03578 < 0.05
Simulation CPU 0 warning: IPC 0.03201 < 0.05
Simulation CPU 0 panic: IPC 0.0021217 < 0.01
Heartbeat CPU 0 instructions: 220000045 cycles: 7999093751 heartbeat IPC: 0.02531 cumulative IPC: 0.0275 (Simulation time: 10 hr 34 min 14 sec)
Simulation CPU 0 warning: IPC 0.040317 < 0.05
Simulation CPU 0 critical: IPC 0.015509 < 0.02
Simulation CPU 0 warning: IPC 0.021716 < 0.05
Simulation CPU 0 panic: IPC 0.0062024 < 0.01
Simulation CPU 0 warning: IPC 0.046521 < 0.05
Simulation CPU 0 critical: IPC 0.018612 < 0.02
Simulation CPU 0 panic: IPC 0.0093055 < 0.01
Simulation CPU 0 warning: IPC 0.02481 < 0.05
Simulation CPU 0 warning: IPC 0.034115 < 0.05
Simulation CPU 0 panic: IPC 0.0071916 < 0.01
Simulation CPU 0 critical: IPC 0.014521 < 0.02
Simulation CPU 0 critical: IPC 0.01241 < 0.02
Simulation CPU 0 panic: IPC 0.0093049 < 0.01
Simulation CPU 0 warning: IPC 0.049609 < 0.05
Simulation CPU 0 warning: IPC 0.029949 < 0.05
Simulation CPU 0 critical: IPC 0.019662 < 0.02
Simulation CPU 0 warning: IPC 0.048249 < 0.05
Simulation CPU 0 panic: IPC 0.0013614 < 0.01
Simulation CPU 0 panic: IPC 0.0062116 < 0.01
Simulation CPU 0 panic: IPC 0.0017374 < 0.01
Simulation CPU 0 panic: IPC 0.0031024 < 0.01
Simulation CPU 0 warning: IPC 0.025456 < 0.05
Simulation CPU 0 warning: IPC 0.021056 < 0.05
Simulation CPU 0 warning: IPC 0.031012 < 0.05
Simulation CPU 0 critical: IPC 0.018577 < 0.02
Simulation CPU 0 critical: IPC 0.012403 < 0.02
Simulation CPU 0 warning: IPC 0.02424 < 0.05
Simulation CPU 0 warning: IPC 0.030214 < 0.05
Simulation CPU 0 critical: IPC 0.016313 < 0.02
Simulation CPU 0 warning: IPC 0.046509 < 0.05
Simulation CPU 0 critical: IPC 0.01446 < 0.02
Heartbeat CPU 0 instructions: 230000046 cycles: 8357193600 heartbeat IPC: 0.02793 cumulative IPC: 0.02752 (Simulation time: 11 hr 03 min 24 sec)
Simulation CPU 0 critical: IPC 0.015103 < 0.02
Simulation CPU 0 warning: IPC 0.029627 < 0.05
Simulation CPU 0 critical: IPC 0.019539 < 0.02
Simulation CPU 0 panic: IPC 1.84e-05 < 0.01
Simulation CPU 0 panic: IPC 3.36e-05 < 0.01
Simulation CPU 0 panic: IPC 1.92e-05 < 0.01
Simulation CPU 0 panic: IPC 9.84e-05 < 0.01
Simulation CPU 0 warning: IPC 0.024758 < 0.05
Simulation CPU 0 critical: IPC 0.011352 < 0.02
Simulation CPU 0 panic: IPC 0.0062084 < 0.01
Simulation CPU 0 warning: IPC 0.027942 < 0.05
Simulation CPU 0 warning: IPC 0.025469 < 0.05
Simulation CPU 0 critical: IPC 0.011708 < 0.02
Simulation CPU 0 warning: IPC 0.037204 < 0.05
Simulation CPU 0 panic: IPC 0.0055238 < 0.01
Simulation CPU 0 warning: IPC 0.040978 < 0.05
Simulation CPU 0 panic: IPC 0.0092978 < 0.01
Simulation CPU 0 warning: IPC 0.043417 < 0.05
Simulation CPU 0 critical: IPC 0.014659 < 0.02
Simulation CPU 0 critical: IPC 0.010479 < 0.02
Simulation CPU 0 panic: IPC 0.0062035 < 0.01
Simulation CPU 0 warning: IPC 0.049612 < 0.05
Simulation CPU 0 panic: IPC 0.0066738 < 0.01
Simulation CPU 0 panic: IPC 0.0088321 < 0.01
Simulation CPU 0 warning: IPC 0.024806 < 0.05
Simulation CPU 0 warning: IPC 0.044669 < 0.05
Simulation CPU 0 warning: IPC 0.048352 < 0.05
Simulation CPU 0 critical: IPC 0.012416 < 0.02
Simulation CPU 0 panic: IPC 0.0041046 < 0.01
Simulation CPU 0 warning: IPC 0.025281 < 0.05
Heartbeat CPU 0 instructions: 240000047 cycles: 8715322068 heartbeat IPC: 0.02792 cumulative IPC: 0.02754 (Simulation time: 11 hr 31 min 06 sec)
Simulation CPU 0 warning: IPC 0.025131 < 0.05
Simulation CPU 0 warning: IPC 0.037201 < 0.05
Simulation CPU 0 panic: IPC 0.0054607 < 0.01
Simulation CPU 0 warning: IPC 0.031004 < 0.05
Simulation CPU 0 critical: IPC 0.015507 < 0.02
Simulation CPU 0 warning: IPC 0.032864 < 0.05
Simulation CPU 0 warning: IPC 0.035344 < 0.05
Simulation CPU 0 warning: IPC 0.046509 < 0.05
Simulation CPU 0 warning: IPC 0.031009 < 0.05
Simulation CPU 0 warning: IPC 0.030065 < 0.05
Simulation CPU 0 critical: IPC 0.01955 < 0.02
Simulation CPU 0 warning: IPC 0.026013 < 0.05
Simulation CPU 0 critical: IPC 0.014593 < 0.02
Simulation CPU 0 warning: IPC 0.040309 < 0.05
Simulation CPU 0 warning: IPC 0.024827 < 0.05
Simulation CPU 0 panic: IPC 0.006203 < 0.01
Simulation CPU 0 warning: IPC 0.046264 < 0.05
Simulation CPU 0 warning: IPC 0.021967 < 0.05
Simulation CPU 0 warning: IPC 0.031003 < 0.05
Simulation CPU 0 critical: IPC 0.018623 < 0.02
Simulation CPU 0 critical: IPC 0.012405 < 0.02
Simulation CPU 0 warning: IPC 0.024798 < 0.05
Simulation CPU 0 warning: IPC 0.030136 < 0.05
Simulation CPU 0 panic: IPC 0.0070677 < 0.01
Simulation CPU 0 critical: IPC 0.011209 < 0.02
Simulation CPU 0 warning: IPC 0.041502 < 0.05
Simulation CPU 0 warning: IPC 0.032585 < 0.05
Heartbeat CPU 0 instructions: 250000047 cycles: 9027233627 heartbeat IPC: 0.03206 cumulative IPC: 0.02769 (Simulation time: 11 hr 57 min 43 sec)
Simulation CPU 0 panic: IPC 0.004311 < 0.01
Simulation CPU 0 warning: IPC 0.026698 < 0.05
Simulation CPU 0 critical: IPC 0.013317 < 0.02
Simulation CPU 0 panic: IPC 0.006206 < 0.01
Simulation CPU 0 warning: IPC 0.031326 < 0.05
Simulation CPU 0 critical: IPC 0.018605 < 0.02
Simulation CPU 0 panic: IPC 0 < 0.01
Simulation CPU 0 critical: IPC 0.018597 < 0.02
Simulation CPU 0 critical: IPC 0.012415 < 0.02
Simulation CPU 0 panic: IPC 0.0031012 < 0.01
Simulation CPU 0 panic: IPC 0.0080812 < 0.01
Simulation CPU 0 warning: IPC 0.032242 < 0.05
Simulation CPU 0 warning: IPC 0.027032 < 0.05
Simulation CPU 0 critical: IPC 0.015542 < 0.02
Simulation CPU 0 warning: IPC 0.030032 < 0.05
Simulation CPU 0 warning: IPC 0.025431 < 0.05
Simulation CPU 0 warning: IPC 0.034144 < 0.05
Simulation CPU 0 warning: IPC 0.029952 < 0.05
Simulation CPU 0 warning: IPC 0.039426 < 0.05
Simulation CPU 0 warning: IPC 0.021708 < 0.05
Simulation CPU 0 warning: IPC 0.028444 < 0.05
Simulation CPU 0 warning: IPC 0.043888 < 0.05
Simulation CPU 0 critical: IPC 0.015005 < 0.02
Simulation CPU 0 warning: IPC 0.031014 < 0.05
Simulation CPU 0 warning: IPC 0.024551 < 0.05
Simulation CPU 0 warning: IPC 0.031277 < 0.05
Simulation CPU 0 warning: IPC 0.027174 < 0.05
Simulation CPU 0 panic: IPC 0.0007056 < 0.01
Simulation CPU 0 panic: IPC 0.0023968 < 0.01
Simulation CPU 0 panic: IPC 0.0084298 < 0.01
Heartbeat CPU 0 instructions: 260000051 cycles: 9371526539 heartbeat IPC: 0.02905 cumulative IPC: 0.02774 (Simulation time: 12 hr 22 min 58 sec)
Simulation CPU 0 critical: IPC 0.012405 < 0.02
Simulation CPU 0 warning: IPC 0.021706 < 0.05
Simulation CPU 0 critical: IPC 0.015516 < 0.02
Simulation CPU 0 warning: IPC 0.027916 < 0.05
Simulation CPU 0 warning: IPC 0.02171 < 0.05
Simulation CPU 0 warning: IPC 0.032315 < 0.05
Simulation CPU 0 warning: IPC 0.02579 < 0.05
Simulation CPU 0 warning: IPC 0.039064 < 0.05
Simulation CPU 0 warning: IPC 0.020495 < 0.05
Simulation CPU 0 warning: IPC 0.029986 < 0.05
Simulation CPU 0 warning: IPC 0.022934 < 0.05
Simulation CPU 0 panic: IPC 0.0015792 < 0.01
Simulation CPU 0 warning: IPC 0.028092 < 0.05
Simulation CPU 0 warning: IPC 0.044749 < 0.05
Simulation CPU 0 warning: IPC 0.020381 < 0.05
Simulation CPU 0 warning: IPC 0.039237 < 0.05
Simulation CPU 0 critical: IPC 0.016593 < 0.02
Simulation CPU 0 warning: IPC 0.0429 < 0.05
Simulation CPU 0 warning: IPC 0.030023 < 0.05
Simulation CPU 0 warning: IPC 0.030269 < 0.05
Simulation CPU 0 panic: IPC 0.0084573 < 0.01
Simulation CPU 0 warning: IPC 0.041813 < 0.05
Simulation CPU 0 critical: IPC 0.010313 < 0.02
Simulation CPU 0 warning: IPC 0.020706 < 0.05
Simulation CPU 0 warning: IPC 0.043417 < 0.05
Simulation CPU 0 warning: IPC 0.032746 < 0.05
Simulation CPU 0 warning: IPC 0.028226 < 0.05
Simulation CPU 0 critical: IPC 0.013459 < 0.02
Simulation CPU 0 panic: IPC 0.006206 < 0.01
Simulation CPU 0 warning: IPC 0.048881 < 0.05
Simulation CPU 0 critical: IPC 0.013156 < 0.02
Simulation CPU 0 warning: IPC 0.049627 < 0.05
Heartbeat CPU 0 instructions: 270000051 cycles: 9729640203 heartbeat IPC: 0.02792 cumulative IPC: 0.02775 (Simulation time: 12 hr 51 min 32 sec)
Simulation CPU 0 warning: IPC 0.043412 < 0.05
Simulation CPU 0 warning: IPC 0.031003 < 0.05
Simulation CPU 0 warning: IPC 0.024805 < 0.05
Simulation CPU 0 warning: IPC 0.039407 < 0.05
Simulation CPU 0 warning: IPC 0.021702 < 0.05
Simulation CPU 0 critical: IPC 0.018609 < 0.02
Simulation CPU 0 warning: IPC 0.028716 < 0.05
Simulation CPU 0 warning: IPC 0.029448 < 0.05
Simulation CPU 0 warning: IPC 0.03 < 0.05
Simulation CPU 0 warning: IPC 0.029678 < 0.05
Simulation CPU 0 warning: IPC 0.040531 < 0.05
Simulation CPU 0 critical: IPC 0.012866 < 0.02
Simulation CPU 0 warning: IPC 0.03411 < 0.05
Simulation CPU 0 warning: IPC 0.036428 < 0.05
Simulation CPU 0 critical: IPC 0.013173 < 0.02
Simulation CPU 0 critical: IPC 0.010327 < 0.02
Simulation CPU 0 warning: IPC 0.027919 < 0.05
Simulation CPU 0 critical: IPC 0.013777 < 0.02
Simulation CPU 0 warning: IPC 0.026548 < 0.05
Simulation CPU 0 warning: IPC 0.041369 < 0.05
Simulation CPU 0 panic: IPC 0.0038074 < 0.01
Simulation CPU 0 warning: IPC 0.021019 < 0.05
Simulation CPU 0 warning: IPC 0.027759 < 0.05
Simulation CPU 0 critical: IPC 0.012409 < 0.02
Simulation CPU 0 panic: IPC 0.0030999 < 0.01
Heartbeat CPU 0 instructions: 280000052 cycles: 10041559886 heartbeat IPC: 0.03206 cumulative IPC: 0.02788 (Simulation time: 13 hr 14 min 27 sec)
Simulation CPU 0 panic: IPC 0.0093067 < 0.01
Simulation CPU 0 panic: IPC 0.0031006 < 0.01
Simulation CPU 0 warning: IPC 0.048168 < 0.05
Simulation CPU 0 critical: IPC 0.012402 < 0.02
Simulation CPU 0 critical: IPC 0.010544 < 0.02
Simulation CPU 0 panic: IPC 0.0093022 < 0.01
Simulation CPU 0 critical: IPC 0.016489 < 0.02
Simulation CPU 0 warning: IPC 0.039795 < 0.05
Simulation CPU 0 warning: IPC 0.046057 < 0.05
Simulation CPU 0 warning: IPC 0.036892 < 0.05
Simulation CPU 0 warning: IPC 0.037239 < 0.05
Simulation CPU 0 panic: IPC 0.0062005 < 0.01
Simulation CPU 0 panic: IPC 0.0031024 < 0.01
Simulation CPU 0 critical: IPC 0.018621 < 0.02
Simulation CPU 0 panic: IPC 0.0031006 < 0.01
Simulation CPU 0 panic: IPC 0.0031144 < 0.01
Simulation CPU 0 panic: IPC 0.0062078 < 0.01
Simulation CPU 0 critical: IPC 0.01465 < 0.02
Simulation CPU 0 warning: IPC 0.022769 < 0.05
Heartbeat CPU 0 instructions: 290000052 cycles: 10325758862 heartbeat IPC: 0.03519 cumulative IPC: 0.02809 (Simulation time: 13 hr 34 min 21 sec)
Simulation CPU 0 warning: IPC 0.027914 < 0.05
Simulation CPU 0 critical: IPC 0.017446 < 0.02
Simulation CPU 0 panic: IPC 0.0042734 < 0.01
Simulation CPU 0 warning: IPC 0.031002 < 0.05
Simulation CPU 0 warning: IPC 0.026294 < 0.05
Simulation CPU 0 warning: IPC 0.022178 < 0.05
Simulation CPU 0 critical: IPC 0.016244 < 0.02
Simulation CPU 0 warning: IPC 0.029799 < 0.05
Simulation CPU 0 warning: IPC 0.025777 < 0.05
Simulation CPU 0 panic: IPC 0.0058631 < 0.01
Simulation CPU 0 warning: IPC 0.028653 < 0.05
Simulation CPU 0 critical: IPC 0.018606 < 0.02
Simulation CPU 0 critical: IPC 0.013996 < 0.02
Simulation CPU 0 warning: IPC 0.026311 < 0.05
Simulation CPU 0 panic: IPC 0.0031006 < 0.01
Simulation CPU 0 critical: IPC 0.014273 < 0.02
Simulation CPU 0 panic: IPC 0.0077244 < 0.01
Simulation CPU 0 warning: IPC 0.045354 < 0.05
Simulation CPU 0 critical: IPC 0.015516 < 0.02
Simulation CPU 0 panic: IPC 0.0031174 < 0.01
Simulation CPU 0 panic: IPC 0.003103 < 0.01
Simulation CPU 0 warning: IPC 0.030238 < 0.05
Heartbeat CPU 0 instructions: 300000056 cycles: 10628442983 heartbeat IPC: 0.03304 cumulative IPC: 0.02823 (Simulation time: 13 hr 56 min 38 sec)
Simulation CPU 0 critical: IPC 0.014491 < 0.02
Simulation CPU 0 warning: IPC 0.041331 < 0.05
Simulation CPU 0 panic: IPC 0.0031184 < 0.01
Simulation CPU 0 critical: IPC 0.015503 < 0.02
Simulation CPU 0 warning: IPC 0.020087 < 0.05
Simulation CPU 0 warning: IPC 0.045019 < 0.05
Simulation CPU 0 panic: IPC 0.003127 < 0.01
Simulation CPU 0 critical: IPC 0.015525 < 0.02
Simulation CPU 0 critical: IPC 0.012423 < 0.02
Simulation CPU 0 panic: IPC 0.0062198 < 0.01
Simulation CPU 0 critical: IPC 0.012417 < 0.02
Simulation CPU 0 warning: IPC 0.024822 < 0.05
Simulation CPU 0 critical: IPC 0.015517 < 0.02
Simulation CPU 0 panic: IPC 0.006206 < 0.01
Simulation CPU 0 warning: IPC 0.034133 < 0.05
Simulation CPU 0 warning: IPC 0.031048 < 0.05
Simulation CPU 0 warning: IPC 0.026883 < 0.05
Simulation CPU 0 critical: IPC 0.01659 < 0.02
Simulation CPU 0 critical: IPC 0.010731 < 0.02
Simulation CPU 0 warning: IPC 0.026823 < 0.05
Simulation CPU 0 warning: IPC 0.020916 < 0.05
Simulation CPU 0 warning: IPC 0.031055 < 0.05
Simulation CPU 0 critical: IPC 0.013199 < 0.02
Simulation CPU 0 critical: IPC 0.014719 < 0.02
Simulation CPU 0 panic: IPC 0.0051695 < 0.01
Heartbeat CPU 0 instructions: 310000056 cycles: 10949591950 heartbeat IPC: 0.03114 cumulative IPC: 0.02831 (Simulation time: 14 hr 22 min 05 sec)
Simulation CPU 0 warning: IPC 0.049652 < 0.05
Simulation CPU 0 critical: IPC 0.018615 < 0.02
Simulation CPU 0 panic: IPC 0.0031119 < 0.01
Simulation CPU 0 warning: IPC 0.031018 < 0.05
Simulation CPU 0 warning: IPC 0.02171 < 0.05
Simulation CPU 0 panic: IPC 0.0031012 < 0.01
Simulation CPU 0 warning: IPC 0.031021 < 0.05
Simulation CPU 0 panic: IPC 0.0093126 < 0.01
Simulation CPU 0 critical: IPC 0.015522 < 0.02
Simulation CPU 0 panic: IPC 0.0062171 < 0.01
Simulation CPU 0 critical: IPC 0.013218 < 0.02
Simulation CPU 0 warning: IPC 0.024842 < 0.05
Simulation CPU 0 critical: IPC 0.01857 < 0.02
Simulation CPU 0 critical: IPC 0.018114 < 0.02
Simulation CPU 0 panic: IPC 0.0005063 < 0.01
Simulation CPU 0 warning: IPC 0.0279 < 0.05
Simulation CPU 0 warning: IPC 0.042356 < 0.05
Simulation CPU 0 warning: IPC 0.025866 < 0.05
Simulation CPU 0 panic: IPC 1.78e-05 < 0.01
Simulation CPU 0 critical: IPC 0.015534 < 0.02
Simulation CPU 0 warning: IPC 0.040309 < 0.05
Simulation CPU 0 critical: IPC 0.012405 < 0.02
Simulation CPU 0 panic: IPC 0.0093035 < 0.01
Simulation CPU 0 warning: IPC 0.040325 < 0.05
Simulation CPU 0 critical: IPC 0.01343 < 0.02
Simulation CPU 0 warning: IPC 0.039282 < 0.05
Simulation CPU 0 critical: IPC 0.015503 < 0.02
Simulation CPU 0 panic: IPC 0.0099674 < 0.01
Simulation CPU 0 critical: IPC 0.015308 < 0.02
Simulation CPU 0 warning: IPC 0.026457 < 0.05
Simulation CPU 0 warning: IPC 0.035748 < 0.05
Simulation CPU 0 critical: IPC 0.017912 < 0.02
Simulation CPU 0 panic: IPC 0.0070531 < 0.01
Simulation CPU 0 warning: IPC 0.039089 < 0.05
Simulation CPU 0 warning: IPC 0.041541 < 0.05
Heartbeat CPU 0 instructions: 320000059 cycles: 11335402754 heartbeat IPC: 0.02592 cumulative IPC: 0.02823 (Simulation time: 14 hr 53 min 34 sec)
Simulation CPU 0 warning: IPC 0.041508 < 0.05
Simulation CPU 0 warning: IPC 0.039129 < 0.05
Simulation CPU 0 warning: IPC 0.043557 < 0.05
Simulation CPU 0 warning: IPC 0.036633 < 0.05
Simulation CPU 0 critical: IPC 0.015948 < 0.02
Simulation CPU 0 warning: IPC 0.031019 < 0.05
Simulation CPU 0 warning: IPC 0.045734 < 0.05
Simulation CPU 0 critical: IPC 0.017598 < 0.02
Simulation CPU 0 warning: IPC 0.022717 < 0.05
Simulation CPU 0 warning: IPC 0.043413 < 0.05
Simulation CPU 0 panic: IPC 8e-06 < 0.01
Simulation CPU 0 panic: IPC 0.0030919 < 0.01
Simulation CPU 0 warning: IPC 0.020014 < 0.05
Simulation CPU 0 warning: IPC 0.045093 < 0.05
Simulation CPU 0 critical: IPC 0.013497 < 0.02
Simulation CPU 0 panic: IPC 0.0062005 < 0.01
Simulation CPU 0 critical: IPC 0.015511 < 0.02
Simulation CPU 0 warning: IPC 0.046371 < 0.05
Simulation CPU 0 warning: IPC 0.021705 < 0.05
Simulation CPU 0 panic: IPC 0.0093018 < 0.01
Simulation CPU 0 warning: IPC 0.045363 < 0.05
Simulation CPU 0 warning: IPC 0.032183 < 0.05
Simulation CPU 0 panic: IPC 0.0078857 < 0.01
Simulation CPU 0 critical: IPC 0.010701 < 0.02
Simulation CPU 0 warning: IPC 0.043418 < 0.05
Simulation CPU 0 warning: IPC 0.041584 < 0.05
Heartbeat CPU 0 instructions: 330000059 cycles: 11647322417 heartbeat IPC: 0.03206 cumulative IPC: 0.02833 (Simulation time: 15 hr 20 min 32 sec)
Simulation CPU 0 panic: IPC 0.0026279 < 0.01
Simulation CPU 0 critical: IPC 0.019069 < 0.02
Simulation CPU 0 critical: IPC 0.011933 < 0.02
Simulation CPU 0 warning: IPC 0.037478 < 0.05
Simulation CPU 0 warning: IPC 0.029527 < 0.05
Simulation CPU 0 warning: IPC 0.034916 < 0.05
Simulation CPU 0 warning: IPC 0.024743 < 0.05
Simulation CPU 0 warning: IPC 0.029984 < 0.05
Simulation CPU 0 warning: IPC 0.029974 < 0.05
Simulation CPU 0 warning: IPC 0.02941 < 0.05
Simulation CPU 0 panic: IPC 7.2e-05 < 0.01
Simulation CPU 0 panic: IPC 0.0016472 < 0.01
Simulation CPU 0 panic: IPC 0.0001312 < 0.01
Simulation CPU 0 panic: IPC 3.2e-06 < 0.01
Simulation CPU 0 panic: IPC 1.36e-05 < 0.01
Simulation CPU 0 panic: IPC 0.0024919 < 0.01
Simulation CPU 0 panic: IPC 0.0047004 < 0.01
Simulation CPU 0 critical: IPC 0.012413 < 0.02
Simulation CPU 0 warning: IPC 0.024817 < 0.05
Simulation CPU 0 panic: IPC 0.000472 < 0.01
Simulation CPU 0 warning: IPC 0.043807 < 0.05
Simulation CPU 0 warning: IPC 0.046168 < 0.05
Simulation CPU 0 panic: IPC 0.004067 < 0.01
Simulation CPU 0 warning: IPC 0.040332 < 0.05
Simulation CPU 0 warning: IPC 0.046509 < 0.05
Heartbeat CPU 0 instructions: 340000061 cycles: 11977727737 heartbeat IPC: 0.03027 cumulative IPC: 0.02839 (Simulation time: 15 hr 45 min 36 sec)
Simulation CPU 0 warning: IPC 0.029333 < 0.05
Simulation CPU 0 panic: IPC 0.0050973 < 0.01
Simulation CPU 0 warning: IPC 0.037208 < 0.05
Simulation CPU 0 warning: IPC 0.036471 < 0.05
Simulation CPU 0 warning: IPC 0.021722 < 0.05
Simulation CPU 0 critical: IPC 0.012396 < 0.02
Simulation CPU 0 warning: IPC 0.042839 < 0.05
Simulation CPU 0 critical: IPC 0.013484 < 0.02
Simulation CPU 0 warning: IPC 0.045961 < 0.05
Simulation CPU 0 warning: IPC 0.030096 < 0.05
Simulation CPU 0 warning: IPC 0.04489 < 0.05
Simulation CPU 0 warning: IPC 0.035844 < 0.05
Simulation CPU 0 warning: IPC 0.020673 < 0.05
Simulation CPU 0 critical: IPC 0.016133 < 0.02
Simulation CPU 0 panic: IPC 0.0031009 < 0.01
Simulation CPU 0 warning: IPC 0.043416 < 0.05
Simulation CPU 0 warning: IPC 0.046522 < 0.05
Simulation CPU 0 panic: IPC 0.003109 < 0.01
Heartbeat CPU 0 instructions: 350000063 cycles: 12224983870 heartbeat IPC: 0.04044 cumulative IPC: 0.02863 (Simulation time: 16 hr 03 min 24 sec)
Simulation CPU 0 warning: IPC 0.048512 < 0.05
Simulation CPU 0 panic: IPC 0.0010976 < 0.01
Simulation CPU 0 warning: IPC 0.021709 < 0.05
Simulation CPU 0 warning: IPC 0.02002 < 0.05
Simulation CPU 0 warning: IPC 0.043431 < 0.05
Simulation CPU 0 critical: IPC 0.015498 < 0.02
Simulation CPU 0 panic: IPC 0.0030999 < 0.01
Simulation CPU 0 panic: IPC 0.0093041 < 0.01
Simulation CPU 0 panic: IPC 0.0093102 < 0.01
Simulation CPU 0 warning: IPC 0.045773 < 0.05
Simulation CPU 0 warning: IPC 0.02817 < 0.05
Simulation CPU 0 panic: IPC 0.009303 < 0.01
Simulation CPU 0 warning: IPC 0.044155 < 0.05
Simulation CPU 0 warning: IPC 0.04031 < 0.05
Simulation CPU 0 warning: IPC 0.027903 < 0.05
Simulation CPU 0 warning: IPC 0.043405 < 0.05
Simulation CPU 0 critical: IPC 0.018596 < 0.02
Simulation CPU 0 panic: IPC 0.0017278 < 0.01
Simulation CPU 0 warning: IPC 0.024677 < 0.05
Simulation CPU 0 panic: IPC 0.0031006 < 0.01
Simulation CPU 0 panic: IPC 0.0031022 < 0.01
Simulation CPU 0 panic: IPC 0.0062024 < 0.01
Simulation CPU 0 panic: IPC 0.0074109 < 0.01
Heartbeat CPU 0 instructions: 360000064 cycles: 12536900965 heartbeat IPC: 0.03206 cumulative IPC: 0.02872 (Simulation time: 16 hr 27 min 30 sec)
Simulation CPU 0 critical: IPC 0.01737 < 0.02
Simulation CPU 0 warning: IPC 0.024797 < 0.05
Simulation CPU 0 warning: IPC 0.035066 < 0.05
Simulation CPU 0 warning: IPC 0.029501 < 0.05
Simulation CPU 0 critical: IPC 0.014318 < 0.02
Simulation CPU 0 warning: IPC 0.043901 < 0.05
Simulation CPU 0 warning: IPC 0.038218 < 0.05
Simulation CPU 0 warning: IPC 0.024802 < 0.05
Simulation CPU 0 warning: IPC 0.040305 < 0.05
Simulation CPU 0 warning: IPC 0.031056 < 0.05
Simulation CPU 0 warning: IPC 0.027909 < 0.05
Heartbeat CPU 0 instructions: 370000067 cycles: 12747198690 heartbeat IPC: 0.04755 cumulative IPC: 0.02903 (Simulation time: 16 hr 43 min 07 sec)
Simulation CPU 0 panic: IPC 0.0093047 < 0.01
Simulation CPU 0 panic: IPC 0.0093327 < 0.01
Simulation CPU 0 panic: IPC 0.000472 < 0.01
Simulation CPU 0 panic: IPC 0.0057544 < 0.01
Simulation CPU 0 panic: IPC 0.0062129 < 0.01
Simulation CPU 0 panic: IPC 0.009303 < 0.01
Simulation CPU 0 warning: IPC 0.035923 < 0.05
Simulation CPU 0 panic: IPC 0.0016525 < 0.01
Simulation CPU 0 panic: IPC 0.0093033 < 0.01
Simulation CPU 0 warning: IPC 0.025746 < 0.05
Simulation CPU 0 warning: IPC 0.039368 < 0.05
Simulation CPU 0 critical: IPC 0.018599 < 0.02
Simulation CPU 0 panic: IPC 2.82e-05 < 0.01
Simulation CPU 0 warning: IPC 0.021723 < 0.05
Simulation CPU 0 warning: IPC 0.049612 < 0.05
Simulation CPU 0 panic: IPC 0.0030999 < 0.01
Simulation CPU 0 critical: IPC 0.015497 < 0.02
Simulation CPU 0 warning: IPC 0.044527 < 0.05
Simulation CPU 0 critical: IPC 0.015529 < 0.02
Simulation CPU 0 critical: IPC 0.018605 < 0.02
Simulation CPU 0 panic: IPC 0.0030999 < 0.01
Simulation CPU 0 warning: IPC 0.046509 < 0.05
Simulation CPU 0 warning: IPC 0.027917 < 0.05
Simulation CPU 0 warning: IPC 0.03721 < 0.05
Simulation CPU 0 warning: IPC 0.037997 < 0.05
Simulation CPU 0 critical: IPC 0.014733 < 0.02
Simulation CPU 0 panic: IPC 8e-06 < 0.01
Simulation CPU 0 warning: IPC 0.037195 < 0.05
Simulation CPU 0 warning: IPC 0.024816 < 0.05
Simulation CPU 0 panic: IPC 0.0062018 < 0.01
Simulation CPU 0 critical: IPC 0.015509 < 0.02
Simulation CPU 0 panic: IPC 0.0062018 < 0.01
Simulation CPU 0 warning: IPC 0.031004 < 0.05
Simulation CPU 0 panic: IPC 0.0079954 < 0.01
Simulation CPU 0 warning: IPC 0.030149 < 0.05
Simulation CPU 0 warning: IPC 0.029578 < 0.05
Simulation CPU 0 warning: IPC 0.030272 < 0.05
Simulation CPU 0 critical: IPC 0.016777 < 0.02
Simulation CPU 0 critical: IPC 0.018611 < 0.02
Simulation CPU 0 panic: IPC 0.0031012 < 0.01
Heartbeat CPU 0 instructions: 380000068 cycles: 13188431525 heartbeat IPC: 0.02266 cumulative IPC: 0.02881 (Simulation time: 17 hr 15 min 15 sec)
Simulation CPU 0 warning: IPC 0.046507 < 0.05
Simulation CPU 0 warning: IPC 0.04342 < 0.05
Simulation CPU 0 panic: IPC 0.0062036 < 0.01
Simulation CPU 0 warning: IPC 0.026012 < 0.05
Simulation CPU 0 warning: IPC 0.029858 < 0.05
Simulation CPU 0 warning: IPC 0.030682 < 0.05
Simulation CPU 0 warning: IPC 0.049948 < 0.05
Simulation CPU 0 panic: IPC 0.0088404 < 0.01
Simulation CPU 0 warning: IPC 0.034578 < 0.05
Simulation CPU 0 warning: IPC 0.021448 < 0.05
Simulation CPU 0 warning: IPC 0.033182 < 0.05
Simulation CPU 0 warning: IPC 0.021731 < 0.05
Simulation CPU 0 panic: IPC 0.0062024 < 0.01
Simulation CPU 0 warning: IPC 0.036877 < 0.05
Simulation CPU 0 warning: IPC 0.031352 < 0.05
Simulation CPU 0 warning: IPC 0.027164 < 0.05
Simulation CPU 0 panic: IPC 0.0007462 < 0.01
Simulation CPU 0 warning: IPC 0.027911 < 0.05
Simulation CPU 0 critical: IPC 0.012411 < 0.02
Simulation CPU 0 warning: IPC 0.04033 < 0.05
Simulation CPU 0 critical: IPC 0.012409 < 0.02
Simulation CPU 0 panic: IPC 0.000472 < 0.01
Simulation CPU 0 critical: IPC 0.015054 < 0.02
Simulation CPU 0 critical: IPC 0.018616 < 0.02
Simulation CPU 0 critical: IPC 0.01861 < 0.02
Simulation CPU 0 panic: IPC 0.0031048 < 0.01
Simulation CPU 0 panic: IPC 0.0062126 < 0.01
Simulation CPU 0 critical: IPC 0.012415 < 0.02
Simulation CPU 0 panic: IPC 0.0031042 < 0.01
Simulation CPU 0 panic: IPC 0.009321 < 0.01
Simulation CPU 0 critical: IPC 0.015963 < 0.02
Simulation CPU 0 panic: IPC 0.0002832 < 0.01
Simulation CPU 0 panic: IPC 0.0008984 < 0.01
Simulation CPU 0 panic: IPC 0.0045696 < 0.01
Simulation CPU 0 warning: IPC 0.040315 < 0.05
Heartbeat CPU 0 instructions: 390000071 cycles: 13583502230 heartbeat IPC: 0.02531 cumulative IPC: 0.02871 (Simulation time: 17 hr 45 min 10 sec)
Simulation CPU 0 critical: IPC 0.014718 < 0.02
Simulation CPU 0 warning: IPC 0.031814 < 0.05
Simulation CPU 0 warning: IPC 0.036148 < 0.05
Simulation CPU 0 critical: IPC 0.019944 < 0.02
Simulation CPU 0 warning: IPC 0.023459 < 0.05
Simulation CPU 0 warning: IPC 0.03102 < 0.05
Simulation CPU 0 panic: IPC 0.0092997 < 0.01
Simulation CPU 0 panic: IPC 8e-06 < 0.01
Simulation CPU 0 panic: IPC 5.68e-05 < 0.01
Simulation CPU 0 warning: IPC 0.021773 < 0.05
Simulation CPU 0 panic: IPC 0.0055141 < 0.01
Simulation CPU 0 warning: IPC 0.034124 < 0.05
Simulation CPU 0 critical: IPC 0.012256 < 0.02
Simulation CPU 0 warning: IPC 0.027422 < 0.05
Simulation CPU 0 warning: IPC 0.022564 < 0.05
Simulation CPU 0 panic: IPC 0.0031006 < 0.01
Simulation CPU 0 warning: IPC 0.035698 < 0.05
Simulation CPU 0 critical: IPC 0.01823 < 0.02
Simulation CPU 0 critical: IPC 0.017428 < 0.02
Simulation CPU 0 warning: IPC 0.031016 < 0.05
Simulation CPU 0 critical: IPC 0.012422 < 0.02
Simulation CPU 0 critical: IPC 0.01861 < 0.02
Simulation CPU 0 critical: IPC 0.015541 < 0.02
Simulation CPU 0 panic: IPC 0.0062015 < 0.01
Simulation CPU 0 critical: IPC 0.012408 < 0.02
Simulation CPU 0 warning: IPC 0.034109 < 0.05
Simulation CPU 0 critical: IPC 0.012444 < 0.02
Simulation CPU 0 critical: IPC 0.0186 < 0.02
Simulation CPU 0 warning: IPC 0.046518 < 0.05
Simulation CPU 0 warning: IPC 0.021736 < 0.05
Simulation CPU 0 warning: IPC 0.027924 < 0.05
Simulation CPU 0 panic: IPC 0.0039776 < 0.01
Simulation CPU 0 warning: IPC 0.024776 < 0.05
Heartbeat CPU 0 instructions: 400000074 cycles: 13950862848 heartbeat IPC: 0.02722 cumulative IPC: 0.02867 (Simulation time: 18 hr 16 min 02 sec)
Simulation CPU 0 warning: IPC 0.039503 < 0.05
Simulation CPU 0 warning: IPC 0.020269 < 0.05
Simulation CPU 0 warning: IPC 0.029807 < 0.05
Simulation CPU 0 warning: IPC 0.024009 < 0.05
Simulation CPU 0 warning: IPC 0.035652 < 0.05
Simulation CPU 0 warning: IPC 0.044603 < 0.05
Simulation CPU 0 critical: IPC 0.01241 < 0.02
Simulation CPU 0 panic: IPC 0.0061965 < 0.01
Simulation CPU 0 warning: IPC 0.024823 < 0.05
Simulation CPU 0 warning: IPC 0.034427 < 0.05
Simulation CPU 0 critical: IPC 0.012107 < 0.02
Simulation CPU 0 warning: IPC 0.040325 < 0.05
Simulation CPU 0 panic: IPC 0.0062011 < 0.01
[ERROR_CYCLE] Error added at CPU cycle 14106480309, interval 2, pending count: 1
[DRAM_CYCLE_ERROR] Cycle-based error applied! address=0x598f00000 additional_latency=2459910500 cycles
Simulation CPU 0 panic: IPC 0.0088547 < 0.01
Simulation CPU 0 warning: IPC 0.027378 < 0.05
Simulation CPU 0 warning: IPC 0.027066 < 0.05
Simulation CPU 0 warning: IPC 0.027915 < 0.05
Simulation CPU 0 critical: IPC 0.013215 < 0.02
Simulation CPU 0 warning: IPC 0.032174 < 0.05
Simulation CPU 0 warning: IPC 0.040289 < 0.05
Simulation CPU 0 critical: IPC 0.017095 < 0.02
Simulation CPU 0 warning: IPC 0.02981 < 0.05
Simulation CPU 0 panic: IPC 0.0089433 < 0.01
Simulation CPU 0 warning: IPC 0.029547 < 0.05
Simulation CPU 0 warning: IPC 0.031347 < 0.05
Simulation CPU 0 panic: IPC 0.0093083 < 0.01
Simulation CPU 0 panic: IPC 0.0093333 < 0.01
Simulation CPU 0 panic: IPC 0.009336 < 0.01
Simulation CPU 0 panic: IPC 0.0093042 < 0.01
Simulation CPU 0 warning: IPC 0.031551 < 0.05
Simulation CPU 0 warning: IPC 0.049067 < 0.05
Simulation CPU 0 critical: IPC 0.015523 < 0.02
Heartbeat CPU 0 instructions: 410000076 cycles: 14328053335 heartbeat IPC: 0.02651 cumulative IPC: 0.02862 (Simulation time: 18 hr 45 min 15 sec)
Simulation CPU 0 critical: IPC 0.015525 < 0.02
Simulation CPU 0 panic: IPC 0.0062005 < 0.01
Simulation CPU 0 panic: IPC 0.0030996 < 0.01
Simulation CPU 0 panic: IPC 0.0093164 < 0.01
Simulation CPU 0 critical: IPC 0.012411 < 0.02
Simulation CPU 0 critical: IPC 0.012408 < 0.02
Simulation CPU 0 panic: IPC 8e-06 < 0.01
Simulation CPU 0 critical: IPC 0.012403 < 0.02
Simulation CPU 0 warning: IPC 0.027906 < 0.05
Simulation CPU 0 panic: IPC 0.0031114 < 0.01
Simulation CPU 0 warning: IPC 0.037229 < 0.05
Simulation CPU 0 warning: IPC 0.034128 < 0.05
Simulation CPU 0 panic: IPC 0.003084 < 0.01
Simulation CPU 0 panic: IPC 1.59e-05 < 0.01
Simulation CPU 0 critical: IPC 0.015508 < 0.02
Simulation CPU 0 critical: IPC 0.012423 < 0.02
Simulation CPU 0 warning: IPC 0.043385 < 0.05
Simulation CPU 0 critical: IPC 0.018619 < 0.02
Simulation CPU 0 warning: IPC 0.040398 < 0.05
Simulation CPU 0 warning: IPC 0.034016 < 0.05
Simulation CPU 0 warning: IPC 0.040307 < 0.05
Simulation CPU 0 warning: IPC 0.024816 < 0.05
Simulation CPU 0 critical: IPC 0.015561 < 0.02
Simulation CPU 0 warning: IPC 0.034143 < 0.05
Simulation CPU 0 warning: IPC 0.03633 < 0.05
Simulation CPU 0 panic: IPC 0.0070043 < 0.01
Simulation CPU 0 warning: IPC 0.027904 < 0.05
Simulation CPU 0 warning: IPC 0.024812 < 0.05
Simulation CPU 0 warning: IPC 0.020681 < 0.05
Simulation CPU 0 critical: IPC 0.013439 < 0.02
Simulation CPU 0 panic: IPC 0.0013626 < 0.01
Simulation CPU 0 critical: IPC 0.015503 < 0.02
Simulation CPU 0 critical: IPC 0.012403 < 0.02
Simulation CPU 0 panic: IPC 0.0062023 < 0.01
Simulation CPU 0 warning: IPC 0.049613 < 0.05
Heartbeat CPU 0 instructions: 420000076 cycles: 14723100812 heartbeat IPC: 0.02531 cumulative IPC: 0.02853 (Simulation time: 19 hr 15 min 40 sec)
Simulation CPU 0 warning: IPC 0.021708 < 0.05
Simulation CPU 0 warning: IPC 0.046482 < 0.05
Simulation CPU 0 critical: IPC 0.015543 < 0.02
Simulation CPU 0 panic: IPC 0.0031064 < 0.01
Simulation CPU 0 panic: IPC 0.000104 < 0.01
Simulation CPU 0 panic: IPC 0.0092044 < 0.01
Simulation CPU 0 warning: IPC 0.039748 < 0.05
Simulation CPU 0 panic: IPC 0.0062048 < 0.01
Simulation CPU 0 warning: IPC 0.034116 < 0.05
Simulation CPU 0 warning: IPC 0.037214 < 0.05
Simulation CPU 0 critical: IPC 0.018611 < 0.02
Simulation CPU 0 warning: IPC 0.049618 < 0.05
Simulation CPU 0 critical: IPC 0.014143 < 0.02
Simulation CPU 0 panic: IPC 0.0075633 < 0.01
Simulation CPU 0 panic: IPC 0.0017024 < 0.01
Simulation CPU 0 warning: IPC 0.031015 < 0.05
Simulation CPU 0 warning: IPC 0.021714 < 0.05
Simulation CPU 0 critical: IPC 0.018596 < 0.02
Simulation CPU 0 panic: IPC 0.0093017 < 0.01
Simulation CPU 0 warning: IPC 0.020204 < 0.05
Simulation CPU 0 warning: IPC 0.029421 < 0.05
Simulation CPU 0 warning: IPC 0.021712 < 0.05
Simulation CPU 0 critical: IPC 0.012407 < 0.02
Simulation CPU 0 warning: IPC 0.049062 < 0.05
Simulation CPU 0 warning: IPC 0.031577 < 0.05
Simulation CPU 0 critical: IPC 0.015505 < 0.02
Simulation CPU 0 critical: IPC 0.018629 < 0.02
Simulation CPU 0 warning: IPC 0.034101 < 0.05
Simulation CPU 0 warning: IPC 0.021716 < 0.05
Simulation CPU 0 warning: IPC 0.027914 < 0.05
Simulation CPU 0 warning: IPC 0.021709 < 0.05
Simulation CPU 0 critical: IPC 0.01784 < 0.02
Simulation CPU 0 panic: IPC 0.0093023 < 0.01
Heartbeat CPU 0 instructions: 430000076 cycles: 15090424243 heartbeat IPC: 0.02722 cumulative IPC: 0.02849 (Simulation time: 19 hr 42 min 21 sec)
Simulation CPU 0 panic: IPC 0.0072213 < 0.01
Simulation CPU 0 warning: IPC 0.023475 < 0.05
Simulation CPU 0 warning: IPC 0.030087 < 0.05
Simulation CPU 0 warning: IPC 0.030043 < 0.05
Simulation CPU 0 warning: IPC 0.045613 < 0.05
Simulation CPU 0 panic: IPC 0.0093088 < 0.01
Simulation CPU 0 critical: IPC 0.015376 < 0.02
Simulation CPU 0 warning: IPC 0.028056 < 0.05
Simulation CPU 0 warning: IPC 0.043424 < 0.05
Simulation CPU 0 warning: IPC 0.037193 < 0.05
Simulation CPU 0 warning: IPC 0.024821 < 0.05
Simulation CPU 0 panic: IPC 6.5e-06 < 0.01
Simulation CPU 0 panic: IPC 0.0062072 < 0.01
Simulation CPU 0 warning: IPC 0.046517 < 0.05
Simulation CPU 0 warning: IPC 0.045376 < 0.05
Simulation CPU 0 warning: IPC 0.036483 < 0.05
Simulation CPU 0 critical: IPC 0.018606 < 0.02
Simulation CPU 0 warning: IPC 0.031011 < 0.05
Simulation CPU 0 panic: IPC 0.0072144 < 0.01
Simulation CPU 0 warning: IPC 0.03312 < 0.05
Simulation CPU 0 warning: IPC 0.040863 < 0.05
Simulation CPU 0 warning: IPC 0.039821 < 0.05
Simulation CPU 0 panic: IPC 2.6e-06 < 0.01
Simulation CPU 0 panic: IPC 0.0092698 < 0.01
Simulation CPU 0 warning: IPC 0.02584 < 0.05
Simulation CPU 0 critical: IPC 0.015503 < 0.02
Simulation CPU 0 warning: IPC 0.043409 < 0.05
Simulation CPU 0 panic: IPC 0.0062015 < 0.01
Simulation CPU 0 warning: IPC 0.029427 < 0.05
Heartbeat CPU 0 instructions: 440000080 cycles: 15420816239 heartbeat IPC: 0.03027 cumulative IPC: 0.02853 (Simulation time: 20 hr 10 min 05 sec)
Simulation CPU 0 warning: IPC 0.027796 < 0.05
Simulation CPU 0 warning: IPC 0.049802 < 0.05
Simulation CPU 0 warning: IPC 0.023213 < 0.05
Simulation CPU 0 warning: IPC 0.04962 < 0.05
Simulation CPU 0 warning: IPC 0.040877 < 0.05
Simulation CPU 0 warning: IPC 0.033284 < 0.05
Simulation CPU 0 warning: IPC 0.029006 < 0.05
Simulation CPU 0 panic: IPC 0.006203 < 0.01
Simulation CPU 0 warning: IPC 0.027915 < 0.05
Simulation CPU 0 panic: IPC 0.0093029 < 0.01
Simulation CPU 0 panic: IPC 0.0031012 < 0.01
Simulation CPU 0 warning: IPC 0.021702 < 0.05
Simulation CPU 0 warning: IPC 0.034128 < 0.05
Simulation CPU 0 panic: IPC 0.0031151 < 0.01
Simulation CPU 0 warning: IPC 0.028689 < 0.05
Simulation CPU 0 warning: IPC 0.020958 < 0.05
Simulation CPU 0 panic: IPC 0.0030986 < 0.01
Simulation CPU 0 critical: IPC 0.018678 < 0.02
Simulation CPU 0 warning: IPC 0.024006 < 0.05
Simulation CPU 0 critical: IPC 0.010108 < 0.02
Simulation CPU 0 warning: IPC 0.046518 < 0.05
Simulation CPU 0 warning: IPC 0.049633 < 0.05
Simulation CPU 0 warning: IPC 0.02793 < 0.05
Simulation CPU 0 warning: IPC 0.031777 < 0.05
Simulation CPU 0 warning: IPC 0.03027 < 0.05
Simulation CPU 0 panic: IPC 0.0030999 < 0.01
Heartbeat CPU 0 instructions: 450000081 cycles: 15737346685 heartbeat IPC: 0.03159 cumulative IPC: 0.02859 (Simulation time: 20 hr 34 min 04 sec)
Simulation CPU 0 warning: IPC 0.03411 < 0.05
Simulation CPU 0 warning: IPC 0.031004 < 0.05
Simulation CPU 0 critical: IPC 0.018049 < 0.02
Simulation CPU 0 warning: IPC 0.038017 < 0.05
Simulation CPU 0 warning: IPC 0.033012 < 0.05
Simulation CPU 0 panic: IPC 0.0010496 < 0.01
Simulation CPU 0 warning: IPC 0.0468 < 0.05
Simulation CPU 0 warning: IPC 0.033454 < 0.05
Simulation CPU 0 warning: IPC 0.049375 < 0.05
Simulation CPU 0 warning: IPC 0.039356 < 0.05
Simulation CPU 0 panic: IPC 0.006206 < 0.01
Simulation CPU 0 warning: IPC 0.021699 < 0.05
Heartbeat CPU 0 instructions: 460000083 cycles: 15938402560 heartbeat IPC: 0.04974 cumulative IPC: 0.02886 (Simulation time: 20 hr 49 min 47 sec)
Simulation CPU 0 warning: IPC 0.04836 < 0.05
Simulation CPU 0 warning: IPC 0.030052 < 0.05
Simulation CPU 0 warning: IPC 0.039409 < 0.05
Simulation CPU 0 warning: IPC 0.020178 < 0.05
Simulation CPU 0 critical: IPC 0.019389 < 0.02
Simulation CPU 0 warning: IPC 0.029418 < 0.05
Heartbeat CPU 0 instructions: 470000085 cycles: 16093248631 heartbeat IPC: 0.06458 cumulative IPC: 0.0292 (Simulation time: 21 hr 02 min 26 sec)
Simulation CPU 0 critical: IPC 0.01758 < 0.02
Simulation CPU 0 warning: IPC 0.039156 < 0.05
Simulation CPU 0 panic: IPC 0.0007367 < 0.01
Simulation CPU 0 warning: IPC 0.039108 < 0.05
Simulation CPU 0 warning: IPC 0.038182 < 0.05
Heartbeat CPU 0 instructions: 480000086 cycles: 16266590070 heartbeat IPC: 0.05769 cumulative IPC: 0.02951 (Simulation time: 21 hr 18 min 01 sec)
Simulation CPU 0 warning: IPC 0.045766 < 0.05
Simulation CPU 0 warning: IPC 0.035068 < 0.05
Simulation CPU 0 warning: IPC 0.048391 < 0.05
Simulation CPU 0 warning: IPC 0.031486 < 0.05
Simulation CPU 0 warning: IPC 0.048814 < 0.05
Simulation CPU 0 critical: IPC 0.016004 < 0.02
Simulation CPU 0 warning: IPC 0.027933 < 0.05
Simulation CPU 0 warning: IPC 0.030975 < 0.05
Heartbeat CPU 0 instructions: 490000086 cycles: 16430676586 heartbeat IPC: 0.06094 cumulative IPC: 0.02982 (Simulation time: 21 hr 31 min 40 sec)
Simulation CPU 0 warning: IPC 0.043098 < 0.05
Simulation CPU 0 warning: IPC 0.035792 < 0.05
Simulation CPU 0 warning: IPC 0.024804 < 0.05
Simulation CPU 0 warning: IPC 0.046508 < 0.05
Simulation CPU 0 panic: IPC 0.0093066 < 0.01
Simulation CPU 0 panic: IPC 0.0062005 < 0.01
Simulation CPU 0 warning: IPC 0.038937 < 0.05
Simulation CPU 0 panic: IPC 0.0044773 < 0.01
Simulation CPU 0 panic: IPC 0.00311 < 0.01
Simulation CPU 0 critical: IPC 0.015505 < 0.02
Simulation CPU 0 critical: IPC 0.01241 < 0.02
Simulation CPU 0 warning: IPC 0.0426 < 0.05
Simulation CPU 0 panic: IPC 0.0031031 < 0.01
Simulation CPU 0 warning: IPC 0.034128 < 0.05
Simulation CPU 0 warning: IPC 0.024813 < 0.05
Simulation CPU 0 panic: IPC 0.006206 < 0.01
Simulation CPU 0 warning: IPC 0.027904 < 0.05
Simulation CPU 0 panic: IPC 6.5e-06 < 0.01
Simulation CPU 0 warning: IPC 0.021711 < 0.05
Simulation CPU 0 panic: IPC 0.0031018 < 0.01
Simulation CPU 0 warning: IPC 0.043448 < 0.05
Simulation CPU 0 panic: IPC 0.0031031 < 0.01
Simulation CPU 0 warning: IPC 0.031037 < 0.05
Simulation CPU 0 panic: IPC 0.0031036 < 0.01
Simulation CPU 0 critical: IPC 0.018612 < 0.02
Simulation CPU 0 critical: IPC 0.015977 < 0.02
Simulation CPU 0 warning: IPC 0.035187 < 0.05
Heartbeat CPU 0 instructions: 500000086 cycles: 16779562144 heartbeat IPC: 0.02866 cumulative IPC: 0.0298 (Simulation time: 21 hr 59 min 40 sec)
Simulation CPU 0 warning: IPC 0.02727 < 0.05
Simulation CPU 0 warning: IPC 0.023917 < 0.05
Simulation CPU 0 panic: IPC 0 < 0.01
Simulation CPU 0 warning: IPC 0.021717 < 0.05
Simulation CPU 0 warning: IPC 0.031016 < 0.05
Simulation CPU 0 panic: IPC 0.0031072 < 0.01
Simulation CPU 0 panic: IPC 0.0030873 < 0.01
Simulation CPU 0 panic: IPC 2.58e-05 < 0.01
Simulation CPU 0 warning: IPC 0.02791 < 0.05
Simulation CPU 0 panic: IPC 0.0062088 < 0.01
Simulation CPU 0 warning: IPC 0.049653 < 0.05
Simulation CPU 0 panic: IPC 0.0031018 < 0.01
Simulation CPU 0 warning: IPC 0.029531 < 0.05
Simulation CPU 0 warning: IPC 0.0418 < 0.05
Simulation CPU 0 critical: IPC 0.018623 < 0.02
Simulation CPU 0 warning: IPC 0.044458 < 0.05
Simulation CPU 0 warning: IPC 0.039301 < 0.05
Simulation CPU 0 panic: IPC 0.0062048 < 0.01
Simulation CPU 0 warning: IPC 0.024799 < 0.05
Simulation CPU 0 panic: IPC 0.0031179 < 0.01
Simulation CPU 0 critical: IPC 0.012416 < 0.02
Simulation CPU 0 critical: IPC 0.016063 < 0.02
Simulation CPU 0 warning: IPC 0.021708 < 0.05
Heartbeat CPU 0 instructions: 510000087 cycles: 17068364680 heartbeat IPC: 0.03463 cumulative IPC: 0.02988 (Simulation time: 22 hr 21 min 32 sec)
Simulation CPU 0 warning: IPC 0.048599 < 0.05
Simulation CPU 0 warning: IPC 0.035475 < 0.05
Simulation CPU 0 warning: IPC 0.032241 < 0.05
Simulation CPU 0 warning: IPC 0.027248 < 0.05
Simulation CPU 0 critical: IPC 0.019365 < 0.02
Simulation CPU 0 warning: IPC 0.03502 < 0.05
Simulation CPU 0 warning: IPC 0.036442 < 0.05
Simulation CPU 0 warning: IPC 0.030143 < 0.05
Simulation CPU 0 warning: IPC 0.035153 < 0.05
Heartbeat CPU 0 instructions: 520000087 cycles: 17241688183 heartbeat IPC: 0.0577 cumulative IPC: 0.03016 (Simulation time: 22 hr 35 min 37 sec)
Simulation CPU 0 warning: IPC 0.03936 < 0.05
Simulation CPU 0 warning: IPC 0.02987 < 0.05
Simulation CPU 0 warning: IPC 0.043856 < 0.05
Simulation CPU 0 critical: IPC 0.018923 < 0.02
Simulation CPU 0 critical: IPC 0.012418 < 0.02
Simulation CPU 0 warning: IPC 0.037228 < 0.05
Simulation CPU 0 critical: IPC 0.010808 < 0.02
Simulation CPU 0 warning: IPC 0.037229 < 0.05
Simulation CPU 0 panic: IPC 0.0062005 < 0.01
Simulation CPU 0 warning: IPC 0.041528 < 0.05
Simulation CPU 0 warning: IPC 0.045293 < 0.05
Heartbeat CPU 0 instructions: 530000091 cycles: 17442752634 heartbeat IPC: 0.04974 cumulative IPC: 0.03039 (Simulation time: 22 hr 53 min 48 sec)
Simulation CPU 0 warning: IPC 0.041228 < 0.05
Simulation CPU 0 warning: IPC 0.033212 < 0.05
Simulation CPU 0 warning: IPC 0.031023 < 0.05
Simulation CPU 0 panic: IPC 0.0031006 < 0.01
Simulation CPU 0 panic: IPC 2.6e-06 < 0.01
Simulation CPU 0 panic: IPC 0.0031085 < 0.01
Simulation CPU 0 critical: IPC 0.015545 < 0.02
Simulation CPU 0 warning: IPC 0.024851 < 0.05
Simulation CPU 0 critical: IPC 0.018638 < 0.02
Simulation CPU 0 critical: IPC 0.010807 < 0.02
Simulation CPU 0 critical: IPC 0.014011 < 0.02
Simulation CPU 0 critical: IPC 0.012413 < 0.02
Simulation CPU 0 warning: IPC 0.031029 < 0.05
Simulation CPU 0 panic: IPC 0.0093072 < 0.01
Simulation CPU 0 warning: IPC 0.03239 < 0.05
Simulation CPU 0 warning: IPC 0.043123 < 0.05
Simulation CPU 0 warning: IPC 0.021799 < 0.05
Simulation CPU 0 warning: IPC 0.038567 < 0.05
Simulation CPU 0 warning: IPC 0.023417 < 0.05
Simulation CPU 0 warning: IPC 0.036159 < 0.05
Simulation CPU 0 critical: IPC 0.01045 < 0.02
Simulation CPU 0 warning: IPC 0.039381 < 0.05
Simulation CPU 0 warning: IPC 0.039692 < 0.05
Simulation CPU 0 warning: IPC 0.029757 < 0.05
Simulation CPU 0 warning: IPC 0.029988 < 0.05
Simulation CPU 0 warning: IPC 0.025721 < 0.05
Simulation CPU 0 warning: IPC 0.033728 < 0.05
Simulation CPU 0 warning: IPC 0.034528 < 0.05
Simulation CPU 0 critical: IPC 0.016667 < 0.02
Simulation CPU 0 warning: IPC 0.03832 < 0.05
Simulation CPU 0 warning: IPC 0.02655 < 0.05
Simulation CPU 0 warning: IPC 0.02085 < 0.05
Simulation CPU 0 warning: IPC 0.031037 < 0.05
Simulation CPU 0 critical: IPC 0.012439 < 0.02
Simulation CPU 0 panic: IPC 0.0062294 < 0.01
Simulation CPU 0 panic: IPC 0.0062046 < 0.01
Simulation CPU 0 panic: IPC 0.0093065 < 0.01
Simulation CPU 0 critical: IPC 0.012414 < 0.02
Heartbeat CPU 0 instructions: 540000093 cycles: 17847062793 heartbeat IPC: 0.02473 cumulative IPC: 0.03026 (Simulation time: 23 hr 27 min 23 sec)
Simulation CPU 0 warning: IPC 0.048105 < 0.05
Simulation CPU 0 panic: IPC 0.0046229 < 0.01
Simulation CPU 0 warning: IPC 0.043443 < 0.05
Simulation CPU 0 panic: IPC 3.42e-05 < 0.01
Simulation CPU 0 critical: IPC 0.012407 < 0.02
Simulation CPU 0 warning: IPC 0.027921 < 0.05
Simulation CPU 0 panic: IPC 0.0031054 < 0.01
Simulation CPU 0 warning: IPC 0.031014 < 0.05
Simulation CPU 0 warning: IPC 0.031042 < 0.05
Simulation CPU 0 panic: IPC 0.0031036 < 0.01
Simulation CPU 0 warning: IPC 0.021338 < 0.05
Simulation CPU 0 warning: IPC 0.037792 < 0.05
Simulation CPU 0 warning: IPC 0.034118 < 0.05
Simulation CPU 0 panic: IPC 0.0031018 < 0.01
Simulation CPU 0 warning: IPC 0.030572 < 0.05
Simulation CPU 0 critical: IPC 0.015792 < 0.02
Simulation CPU 0 warning: IPC 0.03101 < 0.05
Simulation CPU 0 panic: IPC 0.005222 < 0.01
Simulation CPU 0 panic: IPC 0.0071905 < 0.01
Simulation CPU 0 critical: IPC 0.01753 < 0.02
Simulation CPU 0 panic: IPC 1.6e-06 < 0.01
Simulation CPU 0 panic: IPC 1.04e-05 < 0.01
Simulation CPU 0 critical: IPC 0.010383 < 0.02
Simulation CPU 0 critical: IPC 0.0186 < 0.02
Simulation CPU 0 critical: IPC 0.014204 < 0.02
Simulation CPU 0 panic: IPC 0.0098168 < 0.01
Simulation CPU 0 panic: IPC 0.0070036 < 0.01
Simulation CPU 0 warning: IPC 0.040309 < 0.05
Simulation CPU 0 panic: IPC 0.0093072 < 0.01
Heartbeat CPU 0 instructions: 550000093 cycles: 18205125032 heartbeat IPC: 0.02793 cumulative IPC: 0.03021 (Simulation time: 23 hr 56 min 55 sec)
Simulation CPU 0 panic: IPC 0.0031018 < 0.01
Simulation CPU 0 warning: IPC 0.02032 < 0.05
Simulation CPU 0 panic: IPC 0.0075916 < 0.01
Simulation CPU 0 warning: IPC 0.027342 < 0.05
Simulation CPU 0 warning: IPC 0.037775 < 0.05
Simulation CPU 0 warning: IPC 0.031011 < 0.05
Simulation CPU 0 panic: IPC 0.00505 < 0.01
Simulation CPU 0 panic: IPC 0.002004 < 0.01
Simulation CPU 0 critical: IPC 0.0135 < 0.02
Simulation CPU 0 warning: IPC 0.023439 < 0.05
Simulation CPU 0 panic: IPC 0.0001552 < 0.01
Simulation CPU 0 panic: IPC 8e-06 < 0.01
Simulation CPU 0 panic: IPC 2.56e-05 < 0.01
Simulation CPU 0 panic: IPC 1.76e-05 < 0.01
Simulation CPU 0 panic: IPC 9.6e-06 < 0.01
Simulation CPU 0 panic: IPC 2.72e-05 < 0.01
Simulation CPU 0 panic: IPC 1.6e-06 < 0.01
Simulation CPU 0 panic: IPC 2.72e-05 < 0.01
Simulation CPU 0 panic: IPC 1.6e-06 < 0.01
Simulation CPU 0 panic: IPC 8e-07 < 0.01
Simulation CPU 0 panic: IPC 9.6e-06 < 0.01
Simulation CPU 0 warning: IPC 0.038304 < 0.05
Simulation CPU 0 panic: IPC 0.0031078 < 0.01
Simulation CPU 0 panic: IPC 0.0093042 < 0.01
Simulation CPU 0 warning: IPC 0.031016 < 0.05
Simulation CPU 0 critical: IPC 0.018606 < 0.02
Simulation CPU 0 warning: IPC 0.034129 < 0.05
Simulation CPU 0 critical: IPC 0.019582 < 0.02
Simulation CPU 0 critical: IPC 0.017626 < 0.02
Simulation CPU 0 warning: IPC 0.024822 < 0.05
Simulation CPU 0 critical: IPC 0.018644 < 0.02
Simulation CPU 0 warning: IPC 0.022429 < 0.05
Simulation CPU 0 panic: IPC 0.0053654 < 0.01
Simulation CPU 0 warning: IPC 0.044244 < 0.05
Heartbeat CPU 0 instructions: 560000095 cycles: 18637116442 heartbeat IPC: 0.02315 cumulative IPC: 0.03005 (Simulation time: 00 hr 31 min 22 sec)
Simulation CPU 0 panic: IPC 0.0062054 < 0.01
Simulation CPU 0 warning: IPC 0.049622 < 0.05
Simulation CPU 0 warning: IPC 0.027901 < 0.05
Simulation CPU 0 warning: IPC 0.040303 < 0.05
Simulation CPU 0 warning: IPC 0.021477 < 0.05
Simulation CPU 0 warning: IPC 0.023961 < 0.05
Simulation CPU 0 warning: IPC 0.036204 < 0.05
Simulation CPU 0 warning: IPC 0.029795 < 0.05
Simulation CPU 0 panic: IPC 0.0040626 < 0.01
Simulation CPU 0 critical: IPC 0.011457 < 0.02
Simulation CPU 0 panic: IPC 0.0030999 < 0.01
Simulation CPU 0 warning: IPC 0.025184 < 0.05
Simulation CPU 0 warning: IPC 0.040334 < 0.05
Simulation CPU 0 critical: IPC 0.018624 < 0.02
Simulation CPU 0 critical: IPC 0.018629 < 0.02
Simulation CPU 0 warning: IPC 0.02173 < 0.05
Simulation CPU 0 panic: IPC 0.0031028 < 0.01
Heartbeat CPU 0 instructions: 570000095 cycles: 18893599945 heartbeat IPC: 0.03899 cumulative IPC: 0.03017 (Simulation time: 00 hr 49 min 21 sec)
Simulation CPU 0 critical: IPC 0.0162 < 0.02
Simulation CPU 0 warning: IPC 0.045828 < 0.05
Simulation CPU 0 warning: IPC 0.046522 < 0.05
Simulation CPU 0 critical: IPC 0.01241 < 0.02
Simulation CPU 0 warning: IPC 0.042622 < 0.05
Simulation CPU 0 critical: IPC 0.016311 < 0.02
Simulation CPU 0 critical: IPC 0.013447 < 0.02
Simulation CPU 0 warning: IPC 0.027932 < 0.05
Simulation CPU 0 critical: IPC 0.015512 < 0.02
Simulation CPU 0 warning: IPC 0.049671 < 0.05
Simulation CPU 0 warning: IPC 0.028222 < 0.05
Simulation CPU 0 panic: IPC 0.0089979 < 0.01
Simulation CPU 0 warning: IPC 0.02519 < 0.05
Simulation CPU 0 panic: IPC 0.0031018 < 0.01
Simulation CPU 0 warning: IPC 0.03101 < 0.05
Simulation CPU 0 critical: IPC 0.018613 < 0.02
Simulation CPU 0 warning: IPC 0.034114 < 0.05
Simulation CPU 0 warning: IPC 0.045323 < 0.05
Simulation CPU 0 warning: IPC 0.032198 < 0.05
Simulation CPU 0 panic: IPC 0.0047814 < 0.01
Simulation CPU 0 warning: IPC 0.026225 < 0.05
Simulation CPU 0 warning: IPC 0.024812 < 0.05
Simulation CPU 0 critical: IPC 0.016821 < 0.02
Simulation CPU 0 warning: IPC 0.020414 < 0.05
Simulation CPU 0 panic: IPC 0.0093193 < 0.01
Simulation CPU 0 warning: IPC 0.040324 < 0.05
Simulation CPU 0 warning: IPC 0.040301 < 0.05
Heartbeat CPU 0 instructions: 580000099 cycles: 19223985905 heartbeat IPC: 0.03027 cumulative IPC: 0.03017 (Simulation time: 01 hr 12 min 38 sec)
Simulation CPU 0 critical: IPC 0.012149 < 0.02
Simulation CPU 0 panic: IPC 0.0038398 < 0.01
Simulation CPU 0 warning: IPC 0.034102 < 0.05
Simulation CPU 0 warning: IPC 0.038712 < 0.05
[...]
Heartbeat CPU 0 instructions: 1280000186 cycles: 36567185665 heartbeat IPC: 0.02866 cumulative IPC: 0.035 (Simulation time: 00 hr 51 min 44 sec)
Simulation CPU 0 warning: IPC 0.038122 < 0.05
Simulation CPU 0 panic: IPC 0.0022047 < 0.01
Simulation CPU 0 warning: IPC 0.031009 < 0.05
Simulation CPU 0 panic: IPC 0.0033809 < 0.01
Simulation CPU 0 warning: IPC 0.049327 < 0.05
Simulation CPU 0 warning: IPC 0.042983 < 0.05
Simulation CPU 0 panic: IPC 0.0004351 < 0.01
Simulation CPU 0 panic: IPC 0.0007591 < 0.01
Simulation CPU 0 critical: IPC 0.018605 < 0.02
Simulation CPU 0 panic: IPC 0.0062047 < 0.01
Simulation CPU 0 panic: IPC 0.0043953 < 0.01
Simulation CPU 0 critical: IPC 0.018605 < 0.02
Simulation CPU 0 warning: IPC 0.040319 < 0.05
Simulation CPU 0 panic: IPC 0.006215 < 0.01
Simulation CPU 0 critical: IPC 0.012405 < 0.02
Simulation CPU 0 critical: IPC 0.010503 < 0.02
Simulation CPU 0 warning: IPC 0.046228 < 0.05
Simulation CPU 0 panic: IPC 0.0083909 < 0.01
Simulation CPU 0 warning: IPC 0.034119 < 0.05
Simulation CPU 0 warning: IPC 0.034113 < 0.05
Simulation CPU 0 critical: IPC 0.015125 < 0.02
Simulation CPU 0 warning: IPC 0.034483 < 0.05
Simulation CPU 0 panic: IPC 0.0069572 < 0.01
Simulation CPU 0 warning: IPC 0.031006 < 0.05
Simulation CPU 0 critical: IPC 0.018611 < 0.02
Simulation CPU 0 critical: IPC 0.017619 < 0.02
Simulation CPU 0 warning: IPC 0.04131 < 0.05
Heartbeat CPU 0 instructions: 1290000186 cycles: 36906836506 heartbeat IPC: 0.02944 cumulative IPC: 0.03495 (Simulation time: 01 hr 18 min 24 sec)
Simulation CPU 0 warning: IPC 0.027909 < 0.05
Simulation CPU 0 panic: IPC 0.0031006 < 0.01
Simulation CPU 0 warning: IPC 0.029455 < 0.05
Simulation CPU 0 panic: IPC 0.0061598 < 0.01
Simulation CPU 0 critical: IPC 0.018609 < 0.02
Simulation CPU 0 panic: IPC 0.0084972 < 0.01
Simulation CPU 0 warning: IPC 0.041113 < 0.05
Simulation CPU 0 warning: IPC 0.037213 < 0.05
Simulation CPU 0 panic: IPC 0.0013975 < 0.01
Simulation CPU 0 panic: IPC 0.0031006 < 0.01
Simulation CPU 0 warning: IPC 0.033122 < 0.05
Simulation CPU 0 critical: IPC 0.016181 < 0.02
Simulation CPU 0 warning: IPC 0.03653 < 0.05
Simulation CPU 0 warning: IPC 0.046356 < 0.05
Heartbeat CPU 0 instructions: 1300000190 cycles: 37144833660 heartbeat IPC: 0.04202 cumulative IPC: 0.035 (Simulation time: 01 hr 37 min 09 sec)
Simulation CPU 0 critical: IPC 0.01798 < 0.02
Simulation CPU 0 critical: IPC 0.019229 < 0.02
Simulation CPU 0 critical: IPC 0.012417 < 0.02
Simulation CPU 0 warning: IPC 0.024813 < 0.05
Simulation CPU 0 warning: IPC 0.021705 < 0.05
Simulation CPU 0 panic: IPC 0.0093102 < 0.01
Simulation CPU 0 warning: IPC 0.022939 < 0.05
Simulation CPU 0 warning: IPC 0.032882 < 0.05
Simulation CPU 0 panic: IPC 0.0031042 < 0.01
Simulation CPU 0 warning: IPC 0.033745 < 0.05
Simulation CPU 0 panic: IPC 0.0062063 < 0.01
Simulation CPU 0 warning: IPC 0.027921 < 0.05
Simulation CPU 0 critical: IPC 0.014747 < 0.02
Simulation CPU 0 critical: IPC 0.013182 < 0.02
Simulation CPU 0 warning: IPC 0.02173 < 0.05
Simulation CPU 0 panic: IPC 0.0031054 < 0.01
Simulation CPU 0 warning: IPC 0.027915 < 0.05
Simulation CPU 0 warning: IPC 0.035925 < 0.05
Simulation CPU 0 critical: IPC 0.016786 < 0.02
Simulation CPU 0 critical: IPC 0.010416 < 0.02
Simulation CPU 0 panic: IPC 0.0093018 < 0.01
Simulation CPU 0 panic: IPC 0.0093018 < 0.01
Simulation CPU 0 warning: IPC 0.040316 < 0.05
Simulation CPU 0 panic: IPC 0.0093018 < 0.01
Simulation CPU 0 warning: IPC 0.034117 < 0.05
Simulation CPU 0 panic: IPC 0.0062042 < 0.01
Heartbeat CPU 0 instructions: 1310000190 cycles: 37484479430 heartbeat IPC: 0.02944 cumulative IPC: 0.03495 (Simulation time: 02 hr 03 min 49 sec)
Simulation CPU 0 warning: IPC 0.04862 < 0.05
Simulation CPU 0 panic: IPC 0.0040989 < 0.01
Simulation CPU 0 critical: IPC 0.014177 < 0.02
Simulation CPU 0 warning: IPC 0.038526 < 0.05
Simulation CPU 0 warning: IPC 0.044831 < 0.05
Simulation CPU 0 critical: IPC 0.014089 < 0.02
Simulation CPU 0 critical: IPC 0.014408 < 0.02
Simulation CPU 0 warning: IPC 0.022427 < 0.05
Simulation CPU 0 warning: IPC 0.04263 < 0.05
Simulation CPU 0 warning: IPC 0.024913 < 0.05
Simulation CPU 0 warning: IPC 0.027924 < 0.05
Simulation CPU 0 critical: IPC 0.015514 < 0.02
Simulation CPU 0 panic: IPC 0.0031018 < 0.01
Simulation CPU 0 panic: IPC 0.0062078 < 0.01
Simulation CPU 0 warning: IPC 0.040312 < 0.05
Simulation CPU 0 critical: IPC 0.010557 < 0.02
Simulation CPU 0 critical: IPC 0.01115 < 0.02
Simulation CPU 0 warning: IPC 0.031019 < 0.05
Simulation CPU 0 panic: IPC 0.0031006 < 0.01
Simulation CPU 0 critical: IPC 0.012432 < 0.02
Simulation CPU 0 critical: IPC 0.012075 < 0.02
Simulation CPU 0 panic: IPC 0.0003356 < 0.01
Simulation CPU 0 critical: IPC 0.012406 < 0.02
Simulation CPU 0 critical: IPC 0.012386 < 0.02
Simulation CPU 0 warning: IPC 0.027932 < 0.05
Simulation CPU 0 critical: IPC 0.012408 < 0.02
Simulation CPU 0 warning: IPC 0.042489 < 0.05
Simulation CPU 0 warning: IPC 0.025733 < 0.05
Simulation CPU 0 warning: IPC 0.021719 < 0.05
Simulation CPU 0 warning: IPC 0.024811 < 0.05
Simulation CPU 0 panic: IPC 0.003111 < 0.01
Heartbeat CPU 0 instructions: 1320000190 cycles: 37851845399 heartbeat IPC: 0.02722 cumulative IPC: 0.03487 (Simulation time: 02 hr 31 min 48 sec)
Simulation CPU 0 panic: IPC 0.0093193 < 0.01
Simulation CPU 0 panic: IPC 0.0062054 < 0.01
Simulation CPU 0 critical: IPC 0.018628 < 0.02
Simulation CPU 0 critical: IPC 0.015508 < 0.02
Simulation CPU 0 warning: IPC 0.043411 < 0.05
Simulation CPU 0 critical: IPC 0.013909 < 0.02
Simulation CPU 0 warning: IPC 0.029523 < 0.05
Simulation CPU 0 critical: IPC 0.018607 < 0.02
Simulation CPU 0 panic: IPC 0.0085873 < 0.01
Simulation CPU 0 critical: IPC 0.016237 < 0.02
Simulation CPU 0 warning: IPC 0.021749 < 0.05
Simulation CPU 0 warning: IPC 0.021705 < 0.05
Simulation CPU 0 critical: IPC 0.012407 < 0.02
Simulation CPU 0 warning: IPC 0.03413 < 0.05
Simulation CPU 0 panic: IPC 0.0093066 < 0.01
Simulation CPU 0 warning: IPC 0.043421 < 0.05
Simulation CPU 0 panic: IPC 0.0093346 < 0.01
Simulation CPU 0 panic: IPC 0.0062275 < 0.01
Simulation CPU 0 panic: IPC 0.0031006 < 0.01
Simulation CPU 0 warning: IPC 0.027911 < 0.05
Simulation CPU 0 warning: IPC 0.039553 < 0.05
Simulation CPU 0 warning: IPC 0.034873 < 0.05
Simulation CPU 0 warning: IPC 0.026931 < 0.05
Simulation CPU 0 critical: IPC 0.010301 < 0.02
Simulation CPU 0 warning: IPC 0.034131 < 0.05
Simulation CPU 0 warning: IPC 0.049611 < 0.05
Simulation CPU 0 warning: IPC 0.020107 < 0.05
Simulation CPU 0 panic: IPC 0.0016013 < 0.01
Simulation CPU 0 panic: IPC 0.0062276 < 0.01
Simulation CPU 0 panic: IPC 0.0062148 < 0.01
Simulation CPU 0 warning: IPC 0.030684 < 0.05
Simulation CPU 0 panic: IPC 0.0093029 < 0.01
Simulation CPU 0 warning: IPC 0.036873 < 0.05
Simulation CPU 0 warning: IPC 0.028245 < 0.05
Simulation CPU 0 warning: IPC 0.048867 < 0.05
Simulation CPU 0 warning: IPC 0.044154 < 0.05
Simulation CPU 0 critical: IPC 0.015504 < 0.02
Simulation CPU 0 critical: IPC 0.018611 < 0.02
Simulation CPU 0 panic: IPC 0.0031018 < 0.01
Simulation CPU 0 panic: IPC 0.009301 < 0.01
Simulation CPU 0 warning: IPC 0.046535 < 0.05
Heartbeat CPU 0 instructions: 1330000190 cycles: 38274591462 heartbeat IPC: 0.02365 cumulative IPC: 0.03475 (Simulation time: 03 hr 04 min 43 sec)
Simulation CPU 0 warning: IPC 0.03101 < 0.05
Simulation CPU 0 critical: IPC 0.015524 < 0.02
Simulation CPU 0 warning: IPC 0.027906 < 0.05
Simulation CPU 0 critical: IPC 0.011191 < 0.02
Simulation CPU 0 warning: IPC 0.027911 < 0.05
Simulation CPU 0 warning: IPC 0.027922 < 0.05
Simulation CPU 0 warning: IPC 0.048706 < 0.05
Simulation CPU 0 warning: IPC 0.031924 < 0.05
Simulation CPU 0 warning: IPC 0.033026 < 0.05
Simulation CPU 0 warning: IPC 0.030555 < 0.05
Simulation CPU 0 warning: IPC 0.048599 < 0.05
Simulation CPU 0 warning: IPC 0.038215 < 0.05
Simulation CPU 0 warning: IPC 0.034161 < 0.05
Simulation CPU 0 critical: IPC 0.012024 < 0.02
Simulation CPU 0 panic: IPC 0.0069541 < 0.01
Simulation CPU 0 warning: IPC 0.045547 < 0.05
Heartbeat CPU 0 instructions: 1340000190 cycles: 38503347730 heartbeat IPC: 0.04371 cumulative IPC: 0.0348 (Simulation time: 03 hr 22 min 04 sec)
Simulation CPU 0 warning: IPC 0.034139 < 0.05
Simulation CPU 0 warning: IPC 0.029808 < 0.05
Simulation CPU 0 critical: IPC 0.018613 < 0.02
Simulation CPU 0 warning: IPC 0.02795 < 0.05
Simulation CPU 0 warning: IPC 0.024829 < 0.05
Heartbeat CPU 0 instructions: 1350000192 cycles: 38685891118 heartbeat IPC: 0.05478 cumulative IPC: 0.0349 (Simulation time: 03 hr 35 min 56 sec)
Simulation CPU 0 critical: IPC 0.01641 < 0.02
Simulation CPU 0 warning: IPC 0.04561 < 0.05
Simulation CPU 0 warning: IPC 0.037224 < 0.05
Simulation CPU 0 warning: IPC 0.036378 < 0.05
Simulation CPU 0 warning: IPC 0.036163 < 0.05
Simulation CPU 0 warning: IPC 0.045819 < 0.05
Simulation CPU 0 warning: IPC 0.046563 < 0.05
Simulation CPU 0 panic: IPC 0.0093023 < 0.01
Simulation CPU 0 critical: IPC 0.012418 < 0.02
Heartbeat CPU 0 instructions: 1360000193 cycles: 38877663639 heartbeat IPC: 0.05215 cumulative IPC: 0.03498 (Simulation time: 03 hr 51 min 18 sec)
Simulation CPU 0 critical: IPC 0.018865 < 0.02
Simulation CPU 0 warning: IPC 0.031019 < 0.05
Simulation CPU 0 warning: IPC 0.043429 < 0.05
Simulation CPU 0 panic: IPC 0.0093361 < 0.01
Simulation CPU 0 panic: IPC 0.0031184 < 0.01
Simulation CPU 0 warning: IPC 0.038421 < 0.05
Simulation CPU 0 warning: IPC 0.030752 < 0.05
Simulation CPU 0 warning: IPC 0.020805 < 0.05
Simulation CPU 0 critical: IPC 0.015545 < 0.02
Simulation CPU 0 warning: IPC 0.034195 < 0.05
Simulation CPU 0 warning: IPC 0.03525 < 0.05
Simulation CPU 0 warning: IPC 0.029955 < 0.05
Simulation CPU 0 warning: IPC 0.029561 < 0.05
Simulation CPU 0 warning: IPC 0.048571 < 0.05
Simulation CPU 0 warning: IPC 0.04312 < 0.05
Simulation CPU 0 panic: IPC 0.007562 < 0.01
Simulation CPU 0 warning: IPC 0.038633 < 0.05
Simulation CPU 0 warning: IPC 0.03275 < 0.05
Simulation CPU 0 panic: IPC 0.006203 < 0.01
Heartbeat CPU 0 instructions: 1370000194 cycles: 39134160804 heartbeat IPC: 0.03899 cumulative IPC: 0.03501 (Simulation time: 04 hr 12 min 46 sec)
Simulation CPU 0 critical: IPC 0.010378 < 0.02
Simulation CPU 0 panic: IPC 0.0062132 < 0.01
Simulation CPU 0 warning: IPC 0.040318 < 0.05
Simulation CPU 0 critical: IPC 0.015503 < 0.02
Simulation CPU 0 warning: IPC 0.044903 < 0.05
Simulation CPU 0 warning: IPC 0.048917 < 0.05
Simulation CPU 0 panic: IPC 0.0031006 < 0.01
Simulation CPU 0 warning: IPC 0.043289 < 0.05
Simulation CPU 0 warning: IPC 0.034152 < 0.05
Simulation CPU 0 panic: IPC 0.0062238 < 0.01
Simulation CPU 0 critical: IPC 0.015524 < 0.02
Simulation CPU 0 critical: IPC 0.018624 < 0.02
Simulation CPU 0 warning: IPC 0.02173 < 0.05
Simulation CPU 0 critical: IPC 0.017629 < 0.02
Simulation CPU 0 warning: IPC 0.038234 < 0.05
Simulation CPU 0 warning: IPC 0.024117 < 0.05
Heartbeat CPU 0 instructions: 1380000197 cycles: 39362944658 heartbeat IPC: 0.04371 cumulative IPC: 0.03506 (Simulation time: 04 hr 30 min 56 sec)
Simulation CPU 0 warning: IPC 0.02877 < 0.05
Simulation CPU 0 warning: IPC 0.02361 < 0.05
Simulation CPU 0 warning: IPC 0.030053 < 0.05
Simulation CPU 0 warning: IPC 0.034669 < 0.05
Heartbeat CPU 0 instructions: 1390000201 cycles: 39517803968 heartbeat IPC: 0.06457 cumulative IPC: 0.03517 (Simulation time: 04 hr 44 min 21 sec)
Simulation CPU 0 warning: IPC 0.029522 < 0.05
Simulation CPU 0 critical: IPC 0.014197 < 0.02
Simulation CPU 0 warning: IPC 0.041349 < 0.05
Simulation CPU 0 warning: IPC 0.039996 < 0.05
Simulation CPU 0 warning: IPC 0.048828 < 0.05
Simulation CPU 0 warning: IPC 0.038038 < 0.05
Simulation CPU 0 warning: IPC 0.043439 < 0.05
Simulation CPU 0 warning: IPC 0.03652 < 0.05
Simulation CPU 0 warning: IPC 0.030112 < 0.05
Heartbeat CPU 0 instructions: 1400000204 cycles: 39700373389 heartbeat IPC: 0.05477 cumulative IPC: 0.03526 (Simulation time: 05 hr 00 min 24 sec)
Simulation CPU 0 warning: IPC 0.048095 < 0.05
Simulation CPU 0 warning: IPC 0.045585 < 0.05
Simulation CPU 0 warning: IPC 0.021118 < 0.05
Simulation CPU 0 critical: IPC 0.015926 < 0.02
Simulation CPU 0 panic: IPC 0.0031162 < 0.01
Simulation CPU 0 warning: IPC 0.028968 < 0.05
Simulation CPU 0 warning: IPC 0.029959 < 0.05
Simulation CPU 0 warning: IPC 0.04038 < 0.05
Simulation CPU 0 warning: IPC 0.040342 < 0.05
Simulation CPU 0 warning: IPC 0.049641 < 0.05
Simulation CPU 0 warning: IPC 0.020646 < 0.05
Simulation CPU 0 warning: IPC 0.028995 < 0.05
Simulation CPU 0 warning: IPC 0.03241 < 0.05
Simulation CPU 0 warning: IPC 0.026562 < 0.05
Simulation CPU 0 warning: IPC 0.02485 < 0.05
Simulation CPU 0 panic: IPC 0.0031049 < 0.01
Heartbeat CPU 0 instructions: 1410000206 cycles: 39947627648 heartbeat IPC: 0.04044 cumulative IPC: 0.0353 (Simulation time: 05 hr 19 min 30 sec)
Simulation CPU 0 critical: IPC 0.015542 < 0.02
Simulation CPU 0 warning: IPC 0.037287 < 0.05
Simulation CPU 0 warning: IPC 0.021723 < 0.05
Simulation CPU 0 critical: IPC 0.012417 < 0.02
Simulation CPU 0 warning: IPC 0.021717 < 0.05
Simulation CPU 0 warning: IPC 0.03413 < 0.05
Simulation CPU 0 warning: IPC 0.04032 < 0.05
Simulation CPU 0 warning: IPC 0.034117 < 0.05
Simulation CPU 0 panic: IPC 0.002583 < 0.01
Simulation CPU 0 warning: IPC 0.043427 < 0.05
Simulation CPU 0 warning: IPC 0.031041 < 0.05
Simulation CPU 0 warning: IPC 0.043426 < 0.05
Simulation CPU 0 warning: IPC 0.040404 < 0.05
Simulation CPU 0 critical: IPC 0.015522 < 0.02
Simulation CPU 0 critical: IPC 0.012443 < 0.02
Simulation CPU 0 panic: IPC 0.00933 < 0.01
Simulation CPU 0 panic: IPC 0.0062096 < 0.01
Simulation CPU 0 panic: IPC 0.0031108 < 0.01
Simulation CPU 0 critical: IPC 0.018629 < 0.02
Simulation CPU 0 warning: IPC 0.021741 < 0.05
Simulation CPU 0 panic: IPC 0.0031144 < 0.01
Simulation CPU 0 critical: IPC 0.018626 < 0.02
Simulation CPU 0 panic: IPC 0.0062133 < 0.01
Simulation CPU 0 warning: IPC 0.049605 < 0.05
Simulation CPU 0 warning: IPC 0.044865 < 0.05
Simulation CPU 0 warning: IPC 0.026501 < 0.05
Simulation CPU 0 critical: IPC 0.012416 < 0.02
Simulation CPU 0 warning: IPC 0.049628 < 0.05
Simulation CPU 0 warning: IPC 0.034141 < 0.05
Simulation CPU 0 critical: IPC 0.018633 < 0.02
Simulation CPU 0 warning: IPC 0.024083 < 0.05
Simulation CPU 0 critical: IPC 0.019382 < 0.02
Simulation CPU 0 critical: IPC 0.01243 < 0.02
Simulation CPU 0 critical: IPC 0.012417 < 0.02
Simulation CPU 0 critical: IPC 0.015535 < 0.02
Simulation CPU 0 panic: IPC 0.0031069 < 0.01
Simulation CPU 0 critical: IPC 0.018622 < 0.02
Heartbeat CPU 0 instructions: 1420000206 cycles: 40342796724 heartbeat IPC: 0.02531 cumulative IPC: 0.0352 (Simulation time: 05 hr 51 min 28 sec)
Simulation CPU 0 critical: IPC 0.015522 < 0.02
Simulation CPU 0 critical: IPC 0.012223 < 0.02
Simulation CPU 0 critical: IPC 0.015511 < 0.02
Simulation CPU 0 panic: IPC 0.0031006 < 0.01
Simulation CPU 0 critical: IPC 0.012423 < 0.02
Simulation CPU 0 critical: IPC 0.012413 < 0.02
Simulation CPU 0 critical: IPC 0.012425 < 0.02
Simulation CPU 0 critical: IPC 0.015574 < 0.02
Simulation CPU 0 panic: IPC 0.0060973 < 0.01
Simulation CPU 0 warning: IPC 0.024966 < 0.05
Simulation CPU 0 panic: IPC 0.006215 < 0.01
Simulation CPU 0 critical: IPC 0.01241 < 0.02
Simulation CPU 0 warning: IPC 0.03026 < 0.05
Simulation CPU 0 critical: IPC 0.019401 < 0.02
Simulation CPU 0 warning: IPC 0.02694 < 0.05
Simulation CPU 0 critical: IPC 0.0196 < 0.02
Simulation CPU 0 panic: IPC 4.8e-05 < 0.01
Simulation CPU 0 panic: IPC 0.0030439 < 0.01
Simulation CPU 0 panic: IPC 0.000472 < 0.01
Simulation CPU 0 panic: IPC 0.0028932 < 0.01
Simulation CPU 0 critical: IPC 0.012194 < 0.02
Simulation CPU 0 panic: IPC 0.0031136 < 0.01
Simulation CPU 0 critical: IPC 0.012414 < 0.02
Simulation CPU 0 warning: IPC 0.021744 < 0.05
Simulation CPU 0 panic: IPC 0.0031025 < 0.01
Simulation CPU 0 warning: IPC 0.021713 < 0.05
Simulation CPU 0 critical: IPC 0.015521 < 0.02
Simulation CPU 0 panic: IPC 0.0031091 < 0.01
Simulation CPU 0 panic: IPC 0.0093237 < 0.01
Simulation CPU 0 critical: IPC 0.018621 < 0.02
Simulation CPU 0 warning: IPC 0.026262 < 0.05
Simulation CPU 0 panic: IPC 0.0070528 < 0.01
Simulation CPU 0 panic: IPC 0.0008489 < 0.01
Simulation CPU 0 panic: IPC 0.0062336 < 0.01
Simulation CPU 0 critical: IPC 0.016962 < 0.02
Simulation CPU 0 warning: IPC 0.027921 < 0.05
Simulation CPU 0 warning: IPC 0.024836 < 0.05
Simulation CPU 0 panic: IPC 0.0093223 < 0.01
Simulation CPU 0 panic: IPC 0.0062246 < 0.01
Simulation CPU 0 panic: IPC 0.0062066 < 0.01
Simulation CPU 0 critical: IPC 0.018615 < 0.02
Simulation CPU 0 critical: IPC 0.012438 < 0.02
Simulation CPU 0 panic: IPC 0.0031166 < 0.01
Simulation CPU 0 panic: IPC 0.0031208 < 0.01
Simulation CPU 0 warning: IPC 0.02004 < 0.05
Simulation CPU 0 critical: IPC 0.010963 < 0.02
Simulation CPU 0 panic: IPC 0.0031072 < 0.01
Simulation CPU 0 critical: IPC 0.015524 < 0.02
Simulation CPU 0 panic: IPC 0.0031108 < 0.01
Simulation CPU 0 warning: IPC 0.037164 < 0.05
Simulation CPU 0 warning: IPC 0.024278 < 0.05
Simulation CPU 0 warning: IPC 0.022312 < 0.05
Simulation CPU 0 critical: IPC 0.012411 < 0.02
Simulation CPU 0 critical: IPC 0.012403 < 0.02
Simulation CPU 0 warning: IPC 0.023363 < 0.05
Simulation CPU 0 warning: IPC 0.038668 < 0.05
Simulation CPU 0 critical: IPC 0.01862 < 0.02
Heartbeat CPU 0 instructions: 1430000209 cycles: 40941208767 heartbeat IPC: 0.01671 cumulative IPC: 0.03493 (Simulation time: 06 hr 35 min 50 sec)
Simulation CPU 0 warning: IPC 0.046192 < 0.05
Simulation CPU 0 warning: IPC 0.034431 < 0.05
Simulation CPU 0 warning: IPC 0.042458 < 0.05
Simulation CPU 0 warning: IPC 0.041263 < 0.05
Simulation CPU 0 warning: IPC 0.024837 < 0.05
Simulation CPU 0 panic: IPC 0.0031006 < 0.01
Simulation CPU 0 critical: IPC 0.012431 < 0.02
Simulation CPU 0 panic: IPC 0.0062238 < 0.01
Simulation CPU 0 panic: IPC 0.0062067 < 0.01
Simulation CPU 0 critical: IPC 0.018612 < 0.02
Simulation CPU 0 panic: IPC 0.0093282 < 0.01
Simulation CPU 0 panic: IPC 0.000472 < 0.01
Simulation CPU 0 panic: IPC 0.0026454 < 0.01
Simulation CPU 0 warning: IPC 0.021713 < 0.05
Simulation CPU 0 panic: IPC 0.0043988 < 0.01
Simulation CPU 0 warning: IPC 0.045258 < 0.05
Simulation CPU 0 panic: IPC 0.0093066 < 0.01
Simulation CPU 0 panic: IPC 0.0031114 < 0.01
Simulation CPU 0 panic: IPC 0.0062124 < 0.01
Simulation CPU 0 warning: IPC 0.039638 < 0.05
Simulation CPU 0 warning: IPC 0.02554 < 0.05
Simulation CPU 0 panic: IPC 0.0093346 < 0.01
Simulation CPU 0 panic: IPC 0.0093324 < 0.01
Simulation CPU 0 panic: IPC 0.0031227 < 0.01
Simulation CPU 0 panic: IPC 0.0062073 < 0.01
Simulation CPU 0 panic: IPC 0.0030999 < 0.01
Simulation CPU 0 warning: IPC 0.027965 < 0.05
Simulation CPU 0 warning: IPC 0.034132 < 0.05
Simulation CPU 0 panic: IPC 0.0031036 < 0.01
Simulation CPU 0 critical: IPC 0.012404 < 0.02
Simulation CPU 0 critical: IPC 0.015556 < 0.02
Simulation CPU 0 critical: IPC 0.015535 < 0.02
Simulation CPU 0 panic: IPC 0.0031102 < 0.01
Simulation CPU 0 warning: IPC 0.04346 < 0.05
Simulation CPU 0 panic: IPC 0.0093036 < 0.01
Simulation CPU 0 warning: IPC 0.027935 < 0.05
Simulation CPU 0 warning: IPC 0.034133 < 0.05
Simulation CPU 0 panic: IPC 0.0062036 < 0.01
Simulation CPU 0 critical: IPC 0.012433 < 0.02
Simulation CPU 0 panic: IPC 0.0093132 < 0.01
Simulation CPU 0 panic: IPC 0.0062036 < 0.01
Simulation CPU 0 warning: IPC 0.024821 < 0.05
Simulation CPU 0 panic: IPC 0.006214 < 0.01
Simulation CPU 0 panic: IPC 8.5e-06 < 0.01
Simulation CPU 0 panic: IPC 1.7e-06 < 0.01
Simulation CPU 0 panic: IPC 4.5e-06 < 0.01
Simulation CPU 0 panic: IPC 2e-07 < 0.01
Simulation CPU 0 panic: IPC 0.0003641 < 0.01
Simulation CPU 0 critical: IPC 0.017813 < 0.02
Simulation CPU 0 panic: IPC 7.4e-06 < 0.01
Simulation CPU 0 panic: IPC 0.0001002 < 0.01
Simulation CPU 0 panic: IPC 0.0002544 < 0.01
Simulation CPU 0 panic: IPC 0.0005271 < 0.01
Simulation CPU 0 panic: IPC 0.0002088 < 0.01
Simulation CPU 0 panic: IPC 0.0004464 < 0.01
Simulation CPU 0 panic: IPC 6.69e-05 < 0.01
Simulation CPU 0 panic: IPC 2.1e-06 < 0.01
Simulation CPU 0 panic: IPC 0.0008102 < 0.01
Simulation CPU 0 pan