
*** ChampSim Multicore Out-of-Order Simulator ***
Warmup Instructions: 0
Simulation Instructions: 9223372036854775807
Number of CPUs: 1
Page size: 1048576

Off-chip DRAM Size: 64 GiB Channels: 2 Width: 32-bit Data Rate: 4807 MT/s
[ERROR_PAGE_MANAGER] Error latency: 2459910500 
[ERROR_PAGE_MANAGER] Random seed: 54321 (fixed for preload reproducibility)
[ERROR_PAGE_MANAGER] Cycle-based error modeling enabled
[ERROR_PAGE_MANAGER] Errors per interval: 1
[ERROR_PAGE_MANAGER] Error cycle interval: 464841614 cycles

=== ERROR PAGE STATISTICS ===
Mode: CYCLE
Error Cycle Interval: 464841614 CPU cycles
Total Error Accesses: 0
==============================
Warmup finished CPU 0 instructions: 0 cycles: 1 cumulative IPC: 0 (Simulation time: 00 hr 00 min 00 sec)
Warmup complete CPU 0 instructions: 0 cycles: 1 cumulative IPC: 0 (Simulation time: 00 hr 00 min 00 sec)
Simulation CPU 0 panic: IPC 0 < 0.01
Simulation CPU 0 panic: IPC 1e-07 < 0.01
Simulation CPU 0 panic: IPC 0 < 0.01
Simulation CPU 0 panic: IPC 2e-07 < 0.01
Simulation CPU 0 panic: IPC 6e-07 < 0.01
Simulation CPU 0 panic: IPC 1.07e-05 < 0.01
Simulation CPU 0 panic: IPC 0.0061264 < 0.01
Simulation CPU 0 panic: IPC 1.4e-06 < 0.01
Simulation CPU 0 panic: IPC 0 < 0.01
Heartbeat CPU 0 instructions: 10000000 cycles: 119908882 heartbeat IPC: 0.0834 cumulative IPC: 0.0834 (Simulation time: 00 hr 11 min 30 sec)
Heartbeat CPU 0 instructions: 20000000 cycles: 138174489 heartbeat IPC: 0.5475 cumulative IPC: 0.1447 (Simulation time: 00 hr 13 min 47 sec)
Heartbeat CPU 0 instructions: 30000000 cycles: 156447568 heartbeat IPC: 0.5473 cumulative IPC: 0.1918 (Simulation time: 00 hr 16 min 05 sec)
Heartbeat CPU 0 instructions: 40000001 cycles: 174725637 heartbeat IPC: 0.5471 cumulative IPC: 0.2289 (Simulation time: 00 hr 18 min 07 sec)
Simulation CPU 0 panic: IPC 4.15e-05 < 0.01
Simulation CPU 0 panic: IPC 2e-07 < 0.01
Simulation CPU 0 panic: IPC 1.6e-06 < 0.01
Simulation CPU 0 panic: IPC 5.75e-05 < 0.01
Simulation CPU 0 panic: IPC 0.0013368 < 0.01
Simulation CPU 0 panic: IPC 0.0019924 < 0.01
Simulation CPU 0 warning: IPC 0.045785 < 0.05
Simulation CPU 0 critical: IPC 0.011859 < 0.02
Simulation CPU 0 warning: IPC 0.021961 < 0.05
Simulation CPU 0 panic: IPC 0.0084677 < 0.01
Simulation CPU 0 warning: IPC 0.020324 < 0.05
Simulation CPU 0 warning: IPC 0.045785 < 0.05
Simulation CPU 0 critical: IPC 0.011859 < 0.02
Simulation CPU 0 warning: IPC 0.021961 < 0.05
Simulation CPU 0 warning: IPC 0.027887 < 0.05
Simulation CPU 0 warning: IPC 0.046547 < 0.05
Simulation CPU 0 critical: IPC 0.012002 < 0.02
Simulation CPU 0 critical: IPC 0.019373 < 0.02
Simulation CPU 0 panic: IPC 0.0025871 < 0.01
Simulation CPU 0 panic: IPC 0.006774 < 0.01
Simulation CPU 0 warning: IPC 0.020324 < 0.05
Simulation CPU 0 warning: IPC 0.046069 < 0.05
Simulation CPU 0 critical: IPC 0.012664 < 0.02
Simulation CPU 0 warning: IPC 0.022565 < 0.05
Simulation CPU 0 panic: IPC 4.77e-05 < 0.01
Simulation CPU 0 panic: IPC 0.0067263 < 0.01
Simulation CPU 0 critical: IPC 0.015004 < 0.02
Simulation CPU 0 panic: IPC 0.0053204 < 0.01
[ERROR_CYCLE] Error added at CPU cycle 464841614, interval 1, pending count: 1
[DRAM_CYCLE_ERROR] Cycle-based error applied! address=0x537c3a030 additional_latency=2459910500 cycles
Simulation CPU 0 warning: IPC 0.045787 < 0.05
Simulation CPU 0 panic: IPC 0 < 0.01
Simulation CPU 0 critical: IPC 0.01185 < 0.02
Simulation CPU 0 warning: IPC 0.02261 < 0.05
Simulation CPU 0 panic: IPC 0.0078242 < 0.01
Simulation CPU 0 warning: IPC 0.020324 < 0.05
Simulation CPU 0 warning: IPC 0.045787 < 0.05
Simulation CPU 0 critical: IPC 0.01185 < 0.02
Simulation CPU 0 warning: IPC 0.021967 < 0.05
Heartbeat CPU 0 instructions: 50000005 cycles: 550303532 heartbeat IPC: 0.02663 cumulative IPC: 0.09086 (Simulation time: 00 hr 58 min 59 sec)
Simulation CPU 0 warning: IPC 0.028792 < 0.05
Simulation CPU 0 warning: IPC 0.045787 < 0.05
Simulation CPU 0 critical: IPC 0.01185 < 0.02
Simulation CPU 0 critical: IPC 0.016055 < 0.02
Simulation CPU 0 panic: IPC 0.005912 < 0.01
Simulation CPU 0 panic: IPC 0.0082425 < 0.01
Simulation CPU 0 warning: IPC 0.020087 < 0.05
Simulation CPU 0 warning: IPC 0.04625 < 0.05
Simulation CPU 0 critical: IPC 0.01185 < 0.02
Simulation CPU 0 critical: IPC 0.018687 < 0.02
Simulation CPU 0 panic: IPC 0.0032803 < 0.01
Simulation CPU 0 warning: IPC 0.027099 < 0.05
Simulation CPU 0 panic: IPC 1e-07 < 0.01
Simulation CPU 0 panic: IPC 0.0045275 < 0.01
Simulation CPU 0 panic: IPC 0.0074089 < 0.01
Simulation CPU 0 critical: IPC 0.018933 < 0.02
Simulation CPU 0 panic: IPC 0.0074089 < 0.01
Simulation CPU 0 critical: IPC 0.018913 < 0.02
Simulation CPU 0 panic: IPC 0.0073801 < 0.01
Simulation CPU 0 critical: IPC 0.018655 < 0.02
Simulation CPU 0 panic: IPC 0.0073801 < 0.01
Simulation CPU 0 critical: IPC 0.018878 < 0.02
Simulation CPU 0 panic: IPC 0.0074089 < 0.01
Simulation CPU 0 critical: IPC 0.018933 < 0.02
Simulation CPU 0 panic: IPC 0.0074089 < 0.01
Simulation CPU 0 critical: IPC 0.018933 < 0.02
Simulation CPU 0 panic: IPC 0.0074089 < 0.01
Simulation CPU 0 critical: IPC 0.018933 < 0.02
Simulation CPU 0 panic: IPC 0.0074089 < 0.01
Simulation CPU 0 critical: IPC 0.014883 < 0.02
Simulation CPU 0 warning: IPC 0.049833 < 0.05
Heartbeat CPU 0 instructions: 60000005 cycles: 868506563 heartbeat IPC: 0.03143 cumulative IPC: 0.06908 (Simulation time: 01 hr 29 min 49 sec)
Heartbeat CPU 0 instructions: 70000008 cycles: 877519878 heartbeat IPC: 1.109 cumulative IPC: 0.07977 (Simulation time: 01 hr 30 min 45 sec)
Heartbeat CPU 0 instructions: 80000011 cycles: 886547690 heartbeat IPC: 1.108 cumulative IPC: 0.09024 (Simulation time: 01 hr 31 min 51 sec)
Heartbeat CPU 0 instructions: 90000011 cycles: 895563248 heartbeat IPC: 1.109 cumulative IPC: 0.1005 (Simulation time: 01 hr 33 min 01 sec)
Heartbeat CPU 0 instructions: 100000014 cycles: 904566410 heartbeat IPC: 1.111 cumulative IPC: 0.1106 (Simulation time: 01 hr 34 min 11 sec)
Heartbeat CPU 0 instructions: 110000014 cycles: 913580837 heartbeat IPC: 1.109 cumulative IPC: 0.1204 (Simulation time: 01 hr 35 min 19 sec)
[ERROR_CYCLE] Error added at CPU cycle 929683228, interval 2, pending count: 1
[DRAM_CYCLE_ERROR] Cycle-based error applied! address=0x2d4900000 additional_latency=2459910500 cycles
Simulation CPU 0 panic: IPC 7.42e-05 < 0.01
Simulation CPU 0 warning: IPC 0.038558 < 0.05
Simulation CPU 0 critical: IPC 0.014782 < 0.02
Heartbeat CPU 0 instructions: 120000018 cycles: 980914907 heartbeat IPC: 0.1485 cumulative IPC: 0.1223 (Simulation time: 01 hr 43 min 08 sec)
Simulation CPU 0 critical: IPC 0.011851 < 0.02
Simulation CPU 0 warning: IPC 0.023493 < 0.05
Simulation CPU 0 critical: IPC 0.012358 < 0.02
Simulation CPU 0 critical: IPC 0.011851 < 0.02
Simulation CPU 0 critical: IPC 0.012378 < 0.02
Simulation CPU 0 critical: IPC 0.012571 < 0.02
Simulation CPU 0 panic: IPC 0.0036026 < 0.01
Simulation CPU 0 critical: IPC 0.011861 < 0.02
Simulation CPU 0 warning: IPC 0.02618 < 0.05
Simulation CPU 0 warning: IPC 0.026342 < 0.05
Simulation CPU 0 warning: IPC 0.026342 < 0.05
Simulation CPU 0 warning: IPC 0.026342 < 0.05
Simulation CPU 0 warning: IPC 0.0262 < 0.05
Simulation CPU 0 warning: IPC 0.026073 < 0.05
Simulation CPU 0 warning: IPC 0.026342 < 0.05
Heartbeat CPU 0 instructions: 130000019 cycles: 1192460391 heartbeat IPC: 0.04727 cumulative IPC: 0.109 (Simulation time: 02 hr 04 min 48 sec)
Heartbeat CPU 0 instructions: 140000019 cycles: 1201478285 heartbeat IPC: 1.109 cumulative IPC: 0.1165 (Simulation time: 02 hr 05 min 54 sec)
Heartbeat CPU 0 instructions: 150000019 cycles: 1210492123 heartbeat IPC: 1.109 cumulative IPC: 0.1239 (Simulation time: 02 hr 06 min 59 sec)
Heartbeat CPU 0 instructions: 160000020 cycles: 1219511105 heartbeat IPC: 1.109 cumulative IPC: 0.1312 (Simulation time: 02 hr 08 min 06 sec)
Heartbeat CPU 0 instructions: 170000020 cycles: 1228517298 heartbeat IPC: 1.11 cumulative IPC: 0.1384 (Simulation time: 02 hr 09 min 12 sec)
Heartbeat CPU 0 instructions: 180000023 cycles: 1237527144 heartbeat IPC: 1.11 cumulative IPC: 0.1455 (Simulation time: 02 hr 10 min 19 sec)
Heartbeat CPU 0 instructions: 190000026 cycles: 1246547258 heartbeat IPC: 1.109 cumulative IPC: 0.1524 (Simulation time: 02 hr 11 min 25 sec)
Simulation CPU 0 critical: IPC 0.011851 < 0.02
Simulation CPU 0 critical: IPC 0.011851 < 0.02
Simulation CPU 0 panic: IPC 0.0061422 < 0.01
Simulation CPU 0 panic: IPC 0.0057881 < 0.01
Simulation CPU 0 critical: IPC 0.012659 < 0.02
Simulation CPU 0 critical: IPC 0.011859 < 0.02
Simulation CPU 0 critical: IPC 0.011859 < 0.02
Simulation CPU 0 panic: IPC 0.0027398 < 0.01
[ERROR_CYCLE] Error added at CPU cycle 1394524842, interval 3, pending count: 1
[DRAM_CYCLE_ERROR] Cycle-based error applied! address=0x6a3600000 additional_latency=2459910500 cycles
Simulation CPU 0 panic: IPC 0.0001911 < 0.01
Simulation CPU 0 panic: IPC 0.0089283 < 0.01
Simulation CPU 0 critical: IPC 0.011859 < 0.02
Heartbeat CPU 0 instructions: 200000030 cycles: 1448822053 heartbeat IPC: 0.04944 cumulative IPC: 0.138 (Simulation time: 02 hr 35 min 24 sec)
Simulation CPU 0 warning: IPC 0.026342 < 0.05
Simulation CPU 0 warning: IPC 0.026308 < 0.05
Simulation CPU 0 warning: IPC 0.026035 < 0.05
Simulation CPU 0 warning: IPC 0.026273 < 0.05
Simulation CPU 0 warning: IPC 0.026342 < 0.05
Simulation CPU 0 warning: IPC 0.026342 < 0.05
Simulation CPU 0 warning: IPC 0.026342 < 0.05
Heartbeat CPU 0 instructions: 210000030 cycles: 1525434712 heartbeat IPC: 0.1305 cumulative IPC: 0.1377 (Simulation time: 02 hr 43 min 05 sec)
Heartbeat CPU 0 instructions: 220000033 cycles: 1534445944 heartbeat IPC: 1.11 cumulative IPC: 0.1434 (Simulation time: 02 hr 44 min 12 sec)
Heartbeat CPU 0 instructions: 230000036 cycles: 1543471039 heartbeat IPC: 1.108 cumulative IPC: 0.149 (Simulation time: 02 hr 45 min 19 sec)
Heartbeat CPU 0 instructions: 240000039 cycles: 1552482792 heartbeat IPC: 1.11 cumulative IPC: 0.1546 (Simulation time: 02 hr 46 min 16 sec)
Heartbeat CPU 0 instructions: 250000039 cycles: 1561491990 heartbeat IPC: 1.11 cumulative IPC: 0.1601 (Simulation time: 02 hr 47 min 07 sec)
Heartbeat CPU 0 instructions: 260000039 cycles: 1570509715 heartbeat IPC: 1.109 cumulative IPC: 0.1656 (Simulation time: 02 hr 48 min 05 sec)
Simulation CPU 0 critical: IPC 0.012658 < 0.02
Simulation CPU 0 critical: IPC 0.012183 < 0.02
Simulation CPU 0 panic: IPC 0.0056663 < 0.01
Simulation CPU 0 critical: IPC 0.011859 < 0.02
Simulation CPU 0 critical: IPC 0.011862 < 0.02
Simulation CPU 0 critical: IPC 0.011859 < 0.02
Heartbeat CPU 0 instructions: 270000040 cycles: 1685753219 heartbeat IPC: 0.08677 cumulative IPC: 0.1602 (Simulation time: 03 hr 00 min 25 sec)
Simulation CPU 0 critical: IPC 0.012319 < 0.02
Simulation CPU 0 panic: IPC 0.0089976 < 0.01
Simulation CPU 0 critical: IPC 0.012622 < 0.02
Simulation CPU 0 critical: IPC 0.011856 < 0.02
Simulation CPU 0 warning: IPC 0.026166 < 0.05
Simulation CPU 0 warning: IPC 0.026342 < 0.05
Simulation CPU 0 warning: IPC 0.026342 < 0.05
Simulation CPU 0 warning: IPC 0.026342 < 0.05
Simulation CPU 0 warning: IPC 0.026215 < 0.05
Simulation CPU 0 warning: IPC 0.026058 < 0.05
Heartbeat CPU 0 instructions: 280000044 cycles: 1830470623 heartbeat IPC: 0.0691 cumulative IPC: 0.153 (Simulation time: 03 hr 16 min 59 sec)
Heartbeat CPU 0 instructions: 290000047 cycles: 1839489480 heartbeat IPC: 1.109 cumulative IPC: 0.1577 (Simulation time: 03 hr 18 min 07 sec)
Heartbeat CPU 0 instructions: 300000048 cycles: 1848508924 heartbeat IPC: 1.109 cumulative IPC: 0.1623 (Simulation time: 03 hr 19 min 15 sec)
Heartbeat CPU 0 instructions: 310000050 cycles: 1857527280 heartbeat IPC: 1.109 cumulative IPC: 0.1669 (Simulation time: 03 hr 20 min 23 sec)
[ERROR_CYCLE] Error added at CPU cycle 1859366456, interval 4, pending count: 1
[DRAM_CYCLE_ERROR] Cycle-based error applied! address=0x61cf7dd00 additional_latency=2459910500 cycles
Heartbeat CPU 0 instructions: 320000054 cycles: 1876372685 heartbeat IPC: 0.5306 cumulative IPC: 0.1705 (Simulation time: 03 hr 22 min 30 sec)
Heartbeat CPU 0 instructions: 330000056 cycles: 1885389973 heartbeat IPC: 1.109 cumulative IPC: 0.175 (Simulation time: 03 hr 23 min 38 sec)
Simulation CPU 0 critical: IPC 0.011859 < 0.02
Simulation CPU 0 critical: IPC 0.011859 < 0.02
Heartbeat CPU 0 instructions: 340000056 cycles: 1932628458 heartbeat IPC: 0.2117 cumulative IPC: 0.1759 (Simulation time: 03 hr 28 min 51 sec)
Simulation CPU 0 critical: IPC 0.019084 < 0.02
Simulation CPU 0 critical: IPC 0.011876 < 0.02
Simulation CPU 0 critical: IPC 0.012661 < 0.02
Simulation CPU 0 critical: IPC 0.011853 < 0.02
Simulation CPU 0 critical: IPC 0.011856 < 0.02
Simulation CPU 0 warning: IPC 0.022431 < 0.05
Simulation CPU 0 critical: IPC 0.011856 < 0.02
Simulation CPU 0 critical: IPC 0.011856 < 0.02
Heartbeat CPU 0 instructions: 350000056 cycles: 2080168354 heartbeat IPC: 0.06778 cumulative IPC: 0.1683 (Simulation time: 03 hr 47 min 06 sec)
Heartbeat CPU 0 instructions: 360000056 cycles: 2090462763 heartbeat IPC: 0.9714 cumulative IPC: 0.1722 (Simulation time: 03 hr 48 min 19 sec)
Heartbeat CPU 0 instructions: 370000058 cycles: 2100765504 heartbeat IPC: 0.9706 cumulative IPC: 0.1761 (Simulation time: 03 hr 49 min 32 sec)
Heartbeat CPU 0 instructions: 380000062 cycles: 2111039713 heartbeat IPC: 0.9733 cumulative IPC: 0.18 (Simulation time: 03 hr 50 min 45 sec)
Simulation CPU 0 critical: IPC 0.012665 < 0.02
Simulation CPU 0 critical: IPC 0.012244 < 0.02
Simulation CPU 0 warning: IPC 0.030838 < 0.05
Simulation CPU 0 critical: IPC 0.011856 < 0.02
Heartbeat CPU 0 instructions: 390000062 cycles: 2188175572 heartbeat IPC: 0.1296 cumulative IPC: 0.1782 (Simulation time: 03 hr 59 min 53 sec)
Simulation CPU 0 critical: IPC 0.011856 < 0.02
Simulation CPU 0 critical: IPC 0.011856 < 0.02
Simulation CPU 0 critical: IPC 0.012263 < 0.02
Simulation CPU 0 warning: IPC 0.034185 < 0.05
Simulation CPU 0 critical: IPC 0.012667 < 0.02
Simulation CPU 0 critical: IPC 0.01186 < 0.02
Simulation CPU 0 panic: IPC 4.68e-05 < 0.01
Simulation CPU 0 panic: IPC 0.0001208 < 0.01
[ERROR_CYCLE] Error added at CPU cycle 2324208070, interval 5, pending count: 1
[DRAM_CYCLE_ERROR] Cycle-based error applied! address=0x537cdb998 additional_latency=2459910500 cycles
Simulation CPU 0 panic: IPC 0 < 0.01
Simulation CPU 0 panic: IPC 1.3e-06 < 0.01
Simulation CPU 0 panic: IPC 2e-07 < 0.01
Simulation CPU 0 panic: IPC 0.0031289 < 0.01
Simulation CPU 0 panic: IPC 0.0031327 < 0.01
Simulation CPU 0 panic: IPC 0.0031281 < 0.01
Simulation CPU 0 panic: IPC 0.0031304 < 0.01
Simulation CPU 0 panic: IPC 0.0031304 < 0.01
Simulation CPU 0 panic: IPC 0.0031304 < 0.01
Simulation CPU 0 panic: IPC 0.0031304 < 0.01
Simulation CPU 0 panic: IPC 0.0031304 < 0.01
Simulation CPU 0 panic: IPC 0.0062608 < 0.01
Simulation CPU 0 panic: IPC 0.0031304 < 0.01
Simulation CPU 0 panic: IPC 0.0031304 < 0.01
Simulation CPU 0 panic: IPC 0.0031304 < 0.01
Simulation CPU 0 panic: IPC 0.0031304 < 0.01
Simulation CPU 0 panic: IPC 0.0031304 < 0.01
Simulation CPU 0 panic: IPC 0.0031304 < 0.01
Simulation CPU 0 panic: IPC 0.0031304 < 0.01
Simulation CPU 0 panic: IPC 0.0031304 < 0.01
Simulation CPU 0 panic: IPC 0.0031304 < 0.01
Simulation CPU 0 panic: IPC 0.0031304 < 0.01
Simulation CPU 0 panic: IPC 0.0031304 < 0.01
Simulation CPU 0 panic: IPC 0.0031304 < 0.01
Simulation CPU 0 panic: IPC 0.0062608 < 0.01
Simulation CPU 0 panic: IPC 0.0031304 < 0.01
Simulation CPU 0 panic: IPC 0.0031304 < 0.01
Simulation CPU 0 panic: IPC 1.3e-06 < 0.01
Simulation CPU 0 panic: IPC 0.0031291 < 0.01
Simulation CPU 0 panic: IPC 0.0031304 < 0.01
Simulation CPU 0 panic: IPC 0.0062608 < 0.01
Simulation CPU 0 panic: IPC 0.0031304 < 0.01
Simulation CPU 0 panic: IPC 0.0031304 < 0.01
Simulation CPU 0 panic: IPC 0.0031304 < 0.01
Simulation CPU 0 panic: IPC 0.0031304 < 0.01
Simulation CPU 0 panic: IPC 0.0031304 < 0.01
Simulation CPU 0 panic: IPC 0.0031304 < 0.01
Simulation CPU 0 panic: IPC 0.0031304 < 0.01
Simulation CPU 0 panic: IPC 0.0031304 < 0.01
Simulation CPU 0 warning: IPC 0.041392 < 0.05
Simulation CPU 0 panic: IPC 0.0039007 < 0.01
Simulation CPU 0 panic: IPC 4.09e-05 < 0.01
Simulation CPU 0 panic: IPC 4.09e-05 < 0.01
Simulation CPU 0 panic: IPC 4.09e-05 < 0.01
Simulation CPU 0 panic: IPC 4.09e-05 < 0.01
Simulation CPU 0 panic: IPC 4.09e-05 < 0.01
[ERROR_CYCLE] Error added at CPU cycle 2789049684, interval 6, pending count: 1
Simulation CPU 0 panic: IPC 4.09e-05 < 0.01
[DRAM_CYCLE_ERROR] Cycle-based error applied! address=0xaac28e4b8 additional_latency=2459910500 cycles
Simulation CPU 0 panic: IPC 0 < 0.01
Simulation CPU 0 panic: IPC 4.09e-05 < 0.01
Simulation CPU 0 panic: IPC 4.09e-05 < 0.01
Simulation CPU 0 panic: IPC 4.09e-05 < 0.01
Simulation CPU 0 panic: IPC 4.09e-05 < 0.01
Simulation CPU 0 panic: IPC 4.09e-05 < 0.01
Simulation CPU 0 panic: IPC 4.09e-05 < 0.01
Simulation CPU 0 panic: IPC 4.09e-05 < 0.01
Simulation CPU 0 panic: IPC 4.09e-05 < 0.01
Simulation CPU 0 panic: IPC 8.18e-05 < 0.01
Simulation CPU 0 panic: IPC 4.09e-05 < 0.01
Simulation CPU 0 panic: IPC 4.09e-05 < 0.01
Simulation CPU 0 panic: IPC 4.09e-05 < 0.01
Simulation CPU 0 panic: IPC 4.09e-05 < 0.01
Simulation CPU 0 panic: IPC 4.09e-05 < 0.01
Simulation CPU 0 panic: IPC 4.09e-05 < 0.01
Simulation CPU 0 panic: IPC 4.09e-05 < 0.01
Simulation CPU 0 panic: IPC 4.09e-05 < 0.01
Simulation CPU 0 panic: IPC 4.09e-05 < 0.01
Simulation CPU 0 panic: IPC 4.09e-05 < 0.01
Simulation CPU 0 panic: IPC 4.09e-05 < 0.01
Simulation CPU 0 panic: IPC 8.18e-05 < 0.01
Simulation CPU 0 panic: IPC 4.09e-05 < 0.01
Simulation CPU 0 panic: IPC 4.09e-05 < 0.01
Simulation CPU 0 panic: IPC 4.09e-05 < 0.01
Simulation CPU 0 panic: IPC 4.09e-05 < 0.01
Simulation CPU 0 panic: IPC 4.09e-05 < 0.01
Simulation CPU 0 panic: IPC 4.09e-05 < 0.01
Simulation CPU 0 panic: IPC 4.09e-05 < 0.01
Simulation CPU 0 panic: IPC 4.09e-05 < 0.01
Simulation CPU 0 panic: IPC 4.09e-05 < 0.01
Simulation CPU 0 panic: IPC 4.09e-05 < 0.01
Heartbeat CPU 0 instructions: 400000062 cycles: 3112723514 heartbeat IPC: 0.01082 cumulative IPC: 0.1285 (Simulation time: 05 hr 43 min 21 sec)
Simulation CPU 0 warning: IPC 0.032731 < 0.05
Simulation CPU 0 panic: IPC 3.8e-05 < 0.01
Heartbeat CPU 0 instructions: 410000062 cycles: 3165685262 heartbeat IPC: 0.1888 cumulative IPC: 0.1295 (Simulation time: 05 hr 49 min 06 sec)
Simulation CPU 0 warning: IPC 0.034305 < 0.05
Heartbeat CPU 0 instructions: 420000065 cycles: 3200519489 heartbeat IPC: 0.2871 cumulative IPC: 0.1312 (Simulation time: 05 hr 52 min 54 sec)
Simulation CPU 0 warning: IPC 0.045619 < 0.05
Simulation CPU 0 warning: IPC 0.026382 < 0.05
[ERROR_CYCLE] Error added at CPU cycle 3253891298, interval 7, pending count: 1
[DRAM_CYCLE_ERROR] Cycle-based error applied! address=0x41dffef40 additional_latency=2459910500 cycles
Heartbeat CPU 0 instructions: 430000067 cycles: 3265093749 heartbeat IPC: 0.1549 cumulative IPC: 0.1317 (Simulation time: 06 hr 00 min 47 sec)
Simulation CPU 0 panic: IPC 9.6e-06 < 0.01
Simulation CPU 0 critical: IPC 0.01132 < 0.02
Simulation CPU 0 panic: IPC 9.6e-06 < 0.01
Simulation CPU 0 critical: IPC 0.011756 < 0.02
Simulation CPU 0 warning: IPC 0.034433 < 0.05
Simulation CPU 0 warning: IPC 0.045832 < 0.05
Simulation CPU 0 critical: IPC 0.012519 < 0.02
Heartbeat CPU 0 instructions: 440000070 cycles: 3384841970 heartbeat IPC: 0.08351 cumulative IPC: 0.13 (Simulation time: 06 hr 15 min 24 sec)
Simulation CPU 0 critical: IPC 0.012519 < 0.02
Simulation CPU 0 panic: IPC 9.6e-06 < 0.01
Heartbeat CPU 0 instructions: 450000072 cycles: 3458024858 heartbeat IPC: 0.1366 cumulative IPC: 0.1301 (Simulation time: 06 hr 24 min 11 sec)
Simulation CPU 0 panic: IPC 0.000352 < 0.01
Simulation CPU 0 warning: IPC 0.032841 < 0.05
Simulation CPU 0 panic: IPC 9.6e-06 < 0.01
Simulation CPU 0 warning: IPC 0.034415 < 0.05
Heartbeat CPU 0 instructions: 460000074 cycles: 3549722314 heartbeat IPC: 0.1091 cumulative IPC: 0.1296 (Simulation time: 06 hr 34 min 28 sec)
Simulation CPU 0 warning: IPC 0.04551 < 0.05
Simulation CPU 0 warning: IPC 0.026491 < 0.05
Heartbeat CPU 0 instructions: 470000078 cycles: 3604441427 heartbeat IPC: 0.1828 cumulative IPC: 0.1304 (Simulation time: 06 hr 41 min 11 sec)
Simulation CPU 0 warning: IPC 0.045492 < 0.05
Simulation CPU 0 panic: IPC 9.6e-06 < 0.01
Simulation CPU 0 panic: IPC 9.6e-06 < 0.01
Simulation CPU 0 critical: IPC 0.011866 < 0.02
Simulation CPU 0 warning: IPC 0.034433 < 0.05
Simulation CPU 0 warning: IPC 0.045723 < 0.05
[ERROR_CYCLE] Error added at CPU cycle 3718732912, interval 8, pending count: 1
Simulation CPU 0 critical: IPC 0.019129 < 0.02
[DRAM_CYCLE_ERROR] Cycle-based error applied! address=0xcdf200000 additional_latency=2459910500 cycles
Simulation CPU 0 panic: IPC 0 < 0.01
Heartbeat CPU 0 instructions: 480000081 cycles: 3733754608 heartbeat IPC: 0.07733 cumulative IPC: 0.1286 (Simulation time: 06 hr 54 min 37 sec)
Simulation CPU 0 critical: IPC 0.012519 < 0.02
Simulation CPU 0 critical: IPC 0.012519 < 0.02
Heartbeat CPU 0 instructions: 490000084 cycles: 3816430682 heartbeat IPC: 0.121 cumulative IPC: 0.1284 (Simulation time: 07 hr 03 min 05 sec)
Simulation CPU 0 panic: IPC 9.6e-06 < 0.01
Simulation CPU 0 warning: IPC 0.032951 < 0.05
Simulation CPU 0 warning: IPC 0.048571 < 0.05
Simulation CPU 0 panic: IPC 9.6e-06 < 0.01
Simulation CPU 0 warning: IPC 0.034433 < 0.05
Heartbeat CPU 0 instructions: 500000086 cycles: 3926513808 heartbeat IPC: 0.09084 cumulative IPC: 0.1273 (Simulation time: 07 hr 15 min 43 sec)
Heartbeat CPU 0 instructions: 510000088 cycles: 3981239345 heartbeat IPC: 0.1827 cumulative IPC: 0.1281 (Simulation time: 07 hr 21 min 38 sec)
Simulation CPU 0 panic: IPC 9.6e-06 < 0.01
Simulation CPU 0 panic: IPC 9.6e-06 < 0.01
Simulation CPU 0 critical: IPC 0.011976 < 0.02
Heartbeat CPU 0 instructions: 520000089 cycles: 4091419367 heartbeat IPC: 0.09076 cumulative IPC: 0.1271 (Simulation time: 07 hr 34 min 37 sec)
Simulation CPU 0 critical: IPC 0.012519 < 0.02
Simulation CPU 0 critical: IPC 0.012519 < 0.02
Heartbeat CPU 0 instructions: 530000091 cycles: 4164836589 heartbeat IPC: 0.1362 cumulative IPC: 0.1273 (Simulation time: 07 hr 42 min 21 sec)
Simulation CPU 0 panic: IPC 9.6e-06 < 0.01
[ERROR_CYCLE] Error added at CPU cycle 4183574526, interval 9, pending count: 1
[DRAM_CYCLE_ERROR] Cycle-based error applied! address=0xb646009e8 additional_latency=2459910500 cycles
Simulation CPU 0 panic: IPC 0 < 0.01
Simulation CPU 0 warning: IPC 0.033061 < 0.05
Simulation CPU 0 panic: IPC 9.6e-06 < 0.01
Simulation CPU 0 warning: IPC 0.034433 < 0.05
Heartbeat CPU 0 instructions: 540000091 cycles: 4294064992 heartbeat IPC: 0.07738 cumulative IPC: 0.1258 (Simulation time: 07 hr 56 min 05 sec)
Simulation CPU 0 warning: IPC 0.025137 < 0.05
Simulation CPU 0 warning: IPC 0.026711 < 0.05
Heartbeat CPU 0 instructions: 550000094 cycles: 4358018863 heartbeat IPC: 0.1564 cumulative IPC: 0.1262 (Simulation time: 08 hr 03 min 09 sec)
Simulation CPU 0 panic: IPC 9.6e-06 < 0.01
Simulation CPU 0 panic: IPC 9.6e-06 < 0.01
Simulation CPU 0 critical: IPC 0.012086 < 0.02
Simulation CPU 0 warning: IPC 0.034433 < 0.05
Simulation CPU 0 warning: IPC 0.045503 < 0.05
Simulation CPU 0 panic: IPC 9.6e-06 < 0.01
Heartbeat CPU 0 instructions: 560000098 cycles: 4477426183 heartbeat IPC: 0.08375 cumulative IPC: 0.1251 (Simulation time: 08 hr 17 min 02 sec)
Simulation CPU 0 critical: IPC 0.012519 < 0.02
Heartbeat CPU 0 instructions: 570000100 cycles: 4541439702 heartbeat IPC: 0.1562 cumulative IPC: 0.1255 (Simulation time: 08 hr 25 min 01 sec)
Simulation CPU 0 panic: IPC 9.6e-06 < 0.01
Simulation CPU 0 warning: IPC 0.03317 < 0.05
Simulation CPU 0 panic: IPC 9.6e-06 < 0.01
[ERROR_CYCLE] Error added at CPU cycle 4648416140, interval 10, pending count: 1
Simulation CPU 0 warning: IPC 0.034433 < 0.05
[DRAM_CYCLE_ERROR] Cycle-based error applied! address=0x3935017c8 additional_latency=2459910500 cycles
Simulation CPU 0 panic: IPC 0 < 0.01
Heartbeat CPU 0 instructions: 580000100 cycles: 4661721133 heartbeat IPC: 0.08314 cumulative IPC: 0.1244 (Simulation time: 08 hr 39 min 50 sec)
Simulation CPU 0 panic: IPC 9.6e-06 < 0.01
Simulation CPU 0 warning: IPC 0.025247 < 0.05
Simulation CPU 0 warning: IPC 0.026821 < 0.05
Heartbeat CPU 0 instructions: 590000101 cycles: 4744026715 heartbeat IPC: 0.1215 cumulative IPC: 0.1244 (Simulation time: 08 hr 49 min 25 sec)
Simulation CPU 0 panic: IPC 9.6e-06 < 0.01
Simulation CPU 0 warning: IPC 0.029887 < 0.05
Simulation CPU 0 panic: IPC 9.6e-06 < 0.01
Simulation CPU 0 warning: IPC 0.034433 < 0.05
Simulation CPU 0 warning: IPC 0.045393 < 0.05
Simulation CPU 0 panic: IPC 9.6e-06 < 0.01
Heartbeat CPU 0 instructions: 600000105 cycles: 4863428724 heartbeat IPC: 0.08375 cumulative IPC: 0.1234 (Simulation time: 09 hr 02 min 24 sec)
Simulation CPU 0 critical: IPC 0.012519 < 0.02
Heartbeat CPU 0 instructions: 610000107 cycles: 4888843348 heartbeat IPC: 0.3935 cumulative IPC: 0.1248 (Simulation time: 09 hr 05 min 49 sec)
Simulation CPU 0 critical: IPC 0.012519 < 0.02
Heartbeat CPU 0 instructions: 620000108 cycles: 4923276830 heartbeat IPC: 0.2904 cumulative IPC: 0.1259 (Simulation time: 09 hr 09 min 58 sec)
Simulation CPU 0 panic: IPC 3.8e-05 < 0.01
Heartbeat CPU 0 instructions: 630000109 cycles: 4957712183 heartbeat IPC: 0.2904 cumulative IPC: 0.1271 (Simulation time: 09 hr 14 min 05 sec)
Simulation CPU 0 warning: IPC 0.03328 < 0.05
Simulation CPU 0 panic: IPC 3.8e-05 < 0.01
Heartbeat CPU 0 instructions: 640000109 cycles: 5010624784 heartbeat IPC: 0.189 cumulative IPC: 0.1277 (Simulation time: 09 hr 19 min 41 sec)
Simulation CPU 0 warning: IPC 0.034433 < 0.05
Simulation CPU 0 panic: IPC 4e-05 < 0.01
Heartbeat CPU 0 instructions: 650000113 cycles: 5054115938 heartbeat IPC: 0.2299 cumulative IPC: 0.1286 (Simulation time: 09 hr 25 min 09 sec)
Simulation CPU 0 warning: IPC 0.025357 < 0.05
Heartbeat CPU 0 instructions: 660000113 cycles: 5088321872 heartbeat IPC: 0.2923 cumulative IPC: 0.1297 (Simulation time: 09 hr 29 min 37 sec)
Simulation CPU 0 warning: IPC 0.026931 < 0.05
[ERROR_CYCLE] Error added at CPU cycle 5113257755, interval 11, pending count: 1
[DRAM_CYCLE_ERROR] Cycle-based error applied! address=0xff1a9a740 additional_latency=2459910500 cycles
Heartbeat CPU 0 instructions: 670000114 cycles: 5123137110 heartbeat IPC: 0.2872 cumulative IPC: 0.1308 (Simulation time: 09 hr 33 min 40 sec)
Simulation CPU 0 panic: IPC 9.6e-06 < 0.01
Simulation CPU 0 panic: IPC 9.6e-06 < 0.01
Heartbeat CPU 0 instructions: 680000114 cycles: 5195130621 heartbeat IPC: 0.1389 cumulative IPC: 0.1309 (Simulation time: 09 hr 41 min 29 sec)
Simulation CPU 0 warning: IPC 0.037686 < 0.05
Simulation CPU 0 panic: IPC 9.6e-06 < 0.01
Simulation CPU 0 critical: IPC 0.012519 < 0.02
Heartbeat CPU 0 instructions: 690000115 cycles: 5258028227 heartbeat IPC: 0.159 cumulative IPC: 0.1312 (Simulation time: 09 hr 48 min 38 sec)
Simulation CPU 0 warning: IPC 0.046918 < 0.05
Heartbeat CPU 0 instructions: 700000115 cycles: 5292204561 heartbeat IPC: 0.2926 cumulative IPC: 0.1323 (Simulation time: 09 hr 53 min 03 sec)
Simulation CPU 0 warning: IPC 0.045713 < 0.05
Simulation CPU 0 panic: IPC 9.6e-06 < 0.01
Heartbeat CPU 0 instructions: 710000117 cycles: 5345494162 heartbeat IPC: 0.1877 cumulative IPC: 0.1328 (Simulation time: 09 hr 59 min 01 sec)
Simulation CPU 0 warning: IPC 0.030259 < 0.05
Simulation CPU 0 panic: IPC 9.6e-06 < 0.01
Simulation CPU 0 warning: IPC 0.034433 < 0.05
Simulation CPU 0 panic: IPC 9.6e-06 < 0.01
Simulation CPU 0 warning: IPC 0.025467 < 0.05
Heartbeat CPU 0 instructions: 720000118 cycles: 5465156911 heartbeat IPC: 0.08357 cumulative IPC: 0.1317 (Simulation time: 10 hr 13 min 03 sec)
Simulation CPU 0 warning: IPC 0.034433 < 0.05
Simulation CPU 0 warning: IPC 0.02704 < 0.05
Simulation CPU 0 warning: IPC 0.045527 < 0.05
Simulation CPU 0 panic: IPC 9.6e-06 < 0.01
Heartbeat CPU 0 instructions: 730000120 cycles: 5547552706 heartbeat IPC: 0.1214 cumulative IPC: 0.1316 (Simulation time: 10 hr 22 min 44 sec)
Simulation CPU 0 panic: IPC 9.6e-06 < 0.01
[ERROR_CYCLE] Error added at CPU cycle 5578099368, interval 12, pending count: 1
[DRAM_CYCLE_ERROR] Cycle-based error applied! address=0x8f0400000 additional_latency=2459910500 cycles
Simulation CPU 0 panic: IPC 0 < 0.01
Simulation CPU 0 panic: IPC 9.6e-06 < 0.01
Simulation CPU 0 critical: IPC 0.012519 < 0.02
Heartbeat CPU 0 instructions: 740000123 cycles: 5639832507 heartbeat IPC: 0.1084 cumulative IPC: 0.1312 (Simulation time: 10 hr 33 min 40 sec)
Simulation CPU 0 warning: IPC 0.032811 < 0.05
Simulation CPU 0 panic: IPC 9.6e-06 < 0.01
Simulation CPU 0 warning: IPC 0.020012 < 0.05
Heartbeat CPU 0 instructions: 750000124 cycles: 5722280208 heartbeat IPC: 0.1213 cumulative IPC: 0.1311 (Simulation time: 10 hr 42 min 43 sec)
Simulation CPU 0 panic: IPC 9.6e-06 < 0.01
Simulation CPU 0 warning: IPC 0.034433 < 0.05
Simulation CPU 0 panic: IPC 9.6e-06 < 0.01
Heartbeat CPU 0 instructions: 760000124 cycles: 5823268171 heartbeat IPC: 0.09902 cumulative IPC: 0.1305 (Simulation time: 10 hr 54 min 16 sec)
Simulation CPU 0 warning: IPC 0.034433 < 0.05
Simulation CPU 0 warning: IPC 0.02715 < 0.05
Simulation CPU 0 warning: IPC 0.045418 < 0.05
Heartbeat CPU 0 instructions: 770000125 cycles: 5896764371 heartbeat IPC: 0.1361 cumulative IPC: 0.1306 (Simulation time: 11 hr 02 min 39 sec)
Simulation CPU 0 panic: IPC 9.6e-06 < 0.01
Simulation CPU 0 panic: IPC 9.6e-06 < 0.01
Simulation CPU 0 critical: IPC 0.012519 < 0.02
Heartbeat CPU 0 instructions: 780000128 cycles: 5979076797 heartbeat IPC: 0.1215 cumulative IPC: 0.1305 (Simulation time: 11 hr 12 min 09 sec)
Simulation CPU 0 critical: IPC 0.012519 < 0.02
Heartbeat CPU 0 instructions: 790000129 cycles: 6033826652 heartbeat IPC: 0.1826 cumulative IPC: 0.1309 (Simulation time: 11 hr 18 min 42 sec)
[ERROR_CYCLE] Error added at CPU cycle 6042940983, interval 13, pending count: 1
[DRAM_CYCLE_ERROR] Cycle-based error applied! address=0x2546011f8 additional_latency=2459910500 cycles
Simulation CPU 0 panic: IPC 0 < 0.01
Simulation CPU 0 panic: IPC 9.6e-06 < 0.01
Simulation CPU 0 warning: IPC 0.034433 < 0.05
Simulation CPU 0 panic: IPC 9.6e-06 < 0.01
Heartbeat CPU 0 instructions: 800000130 cycles: 6135400684 heartbeat IPC: 0.09845 cumulative IPC: 0.1304 (Simulation time: 11 hr 31 min 06 sec)
Simulation CPU 0 warning: IPC 0.046882 < 0.05
Simulation CPU 0 panic: IPC 0.0094627 < 0.01
Simulation CPU 0 warning: IPC 0.034433 < 0.05
Simulation CPU 0 critical: IPC 0.011036 < 0.02
Heartbeat CPU 0 instructions: 810000131 cycles: 6227265625 heartbeat IPC: 0.1089 cumulative IPC: 0.1301 (Simulation time: 11 hr 42 min 25 sec)
Simulation CPU 0 warning: IPC 0.048453 < 0.05
Simulation CPU 0 panic: IPC 9.6e-06 < 0.01
Simulation CPU 0 panic: IPC 9.6e-06 < 0.01
Simulation CPU 0 critical: IPC 0.012519 < 0.02
Heartbeat CPU 0 instructions: 820000134 cycles: 6346670280 heartbeat IPC: 0.08375 cumulative IPC: 0.1292 (Simulation time: 11 hr 56 min 19 sec)
Simulation CPU 0 critical: IPC 0.012519 < 0.02
Simulation CPU 0 warning: IPC 0.046137 < 0.05
Heartbeat CPU 0 instructions: 830000138 cycles: 6401407539 heartbeat IPC: 0.1827 cumulative IPC: 0.1297 (Simulation time: 12 hr 02 min 39 sec)
Simulation CPU 0 panic: IPC 9.6e-06 < 0.01
Simulation CPU 0 warning: IPC 0.034433 < 0.05
Simulation CPU 0 warning: IPC 0.048571 < 0.05
Simulation CPU 0 panic: IPC 9.6e-06 < 0.01
Heartbeat CPU 0 instructions: 840000141 cycles: 6493092723 heartbeat IPC: 0.1091 cumulative IPC: 0.1294 (Simulation time: 12 hr 12 min 01 sec)
[ERROR_CYCLE] Error added at CPU cycle 6507782596, interval 14, pending count: 1
[DRAM_CYCLE_ERROR] Cycle-based error applied! address=0x94a532fb0 additional_latency=2459910500 cycles
Simulation CPU 0 warning: IPC 0.046772 < 0.05
Simulation CPU 0 panic: IPC 0 < 0.01
Simulation CPU 0 panic: IPC 0.0095725 < 0.01
Simulation CPU 0 warning: IPC 0.034433 < 0.05
Simulation CPU 0 critical: IPC 0.011146 < 0.02
Heartbeat CPU 0 instructions: 850000141 cycles: 6594607102 heartbeat IPC: 0.09851 cumulative IPC: 0.1289 (Simulation time: 12 hr 24 min 15 sec)
Simulation CPU 0 panic: IPC 9.6e-06 < 0.01
Simulation CPU 0 panic: IPC 9.6e-06 < 0.01
Simulation CPU 0 critical: IPC 0.012519 < 0.02
Heartbeat CPU 0 instructions: 860000145 cycles: 6705094528 heartbeat IPC: 0.09051 cumulative IPC: 0.1283 (Simulation time: 12 hr 35 min 26 sec)
Simulation CPU 0 critical: IPC 0.012519 < 0.02
Simulation CPU 0 warning: IPC 0.046028 < 0.05
Heartbeat CPU 0 instructions: 870000148 cycles: 6778150194 heartbeat IPC: 0.1369 cumulative IPC: 0.1284 (Simulation time: 12 hr 44 min 15 sec)
Simulation CPU 0 critical: IPC 0.018046 < 0.02
Simulation CPU 0 warning: IPC 0.043867 < 0.05
Simulation CPU 0 warning: IPC 0.030144 < 0.05
Heartbeat CPU 0 instructions: 880000152 cycles: 6869835597 heartbeat IPC: 0.1091 cumulative IPC: 0.1281 (Simulation time: 12 hr 55 min 36 sec)
Simulation CPU 0 warning: IPC 0.039753 < 0.05
Simulation CPU 0 warning: IPC 0.025519 < 0.05
Heartbeat CPU 0 instructions: 890000155 cycles: 6952278946 heartbeat IPC: 0.1213 cumulative IPC: 0.128 (Simulation time: 13 hr 04 min 17 sec)
[ERROR_CYCLE] Error added at CPU cycle 6972624211, interval 15, pending count: 1
[DRAM_CYCLE_ERROR] Cycle-based error applied! address=0x1b67a5380 additional_latency=2459910500 cycles
Simulation CPU 0 panic: IPC 9.6e-06 < 0.01
Simulation CPU 0 panic: IPC 9.6e-06 < 0.01
Simulation CPU 0 critical: IPC 0.012519 < 0.02
Heartbeat CPU 0 instructions: 900000156 cycles: 7063180399 heartbeat IPC: 0.09017 cumulative IPC: 0.1274 (Simulation time: 13 hr 16 min 20 sec)
Simulation CPU 0 panic: IPC 9.6e-06 < 0.01
Simulation CPU 0 critical: IPC 0.012519 < 0.02
Simulation CPU 0 warning: IPC 0.045918 < 0.05
Heartbeat CPU 0 instructions: 910000156 cycles: 7145681352 heartbeat IPC: 0.1212 cumulative IPC: 0.1273 (Simulation time: 13 hr 26 min 10 sec)
Simulation CPU 0 panic: IPC 9.6e-06 < 0.01
Simulation CPU 0 warning: IPC 0.034433 < 0.05
Simulation CPU 0 panic: IPC 9.6e-06 < 0.01
Heartbeat CPU 0 instructions: 920000159 cycles: 7237356682 heartbeat IPC: 0.1091 cumulative IPC: 0.1271 (Simulation time: 13 hr 36 min 46 sec)
Simulation CPU 0 warning: IPC 0.043422 < 0.05
Simulation CPU 0 panic: IPC 0.0097921 < 0.01
Simulation CPU 0 warning: IPC 0.034433 < 0.05
Simulation CPU 0 panic: IPC 9.6e-06 < 0.01
Simulation CPU 0 critical: IPC 0.011366 < 0.02
Heartbeat CPU 0 instructions: 930000159 cycles: 7338279039 heartbeat IPC: 0.09909 cumulative IPC: 0.1267 (Simulation time: 13 hr 48 min 06 sec)
Simulation CPU 0 warning: IPC 0.039395 < 0.05
Simulation CPU 0 panic: IPC 0.0099478 < 0.01
Heartbeat CPU 0 instructions: 940000161 cycles: 7420718898 heartbeat IPC: 0.1213 cumulative IPC: 0.1267 (Simulation time: 13 hr 56 min 09 sec)
[ERROR_CYCLE] Error added at CPU cycle 7437465824, interval 16, pending count: 1
[DRAM_CYCLE_ERROR] Cycle-based error applied! address=0xa199003f8 additional_latency=2459910500 cycles
Simulation CPU 0 panic: IPC 0.005369 < 0.01
Simulation CPU 0 critical: IPC 0.012519 < 0.02
Simulation CPU 0 warning: IPC 0.045808 < 0.05
Heartbeat CPU 0 instructions: 950000161 cycles: 7522561177 heartbeat IPC: 0.09819 cumulative IPC: 0.1263 (Simulation time: 14 hr 08 min 23 sec)
Simulation CPU 0 panic: IPC 9.6e-06 < 0.01
Simulation CPU 0 warning: IPC 0.034433 < 0.05
Simulation CPU 0 panic: IPC 9.6e-06 < 0.01
Heartbeat CPU 0 instructions: 960000163 cycles: 7604908757 heartbeat IPC: 0.1214 cumulative IPC: 0.1262 (Simulation time: 14 hr 18 min 26 sec)
Simulation CPU 0 panic: IPC 0.0099019 < 0.01
Simulation CPU 0 warning: IPC 0.034433 < 0.05
Simulation CPU 0 panic: IPC 9.6e-06 < 0.01
Simulation CPU 0 critical: IPC 0.011476 < 0.02
Heartbeat CPU 0 instructions: 970000164 cycles: 7687382092 heartbeat IPC: 0.1213 cumulative IPC: 0.1262 (Simulation time: 14 hr 28 min 26 sec)
Simulation CPU 0 panic: IPC 9.6e-06 < 0.01
Simulation CPU 0 panic: IPC 9.6e-06 < 0.01
Heartbeat CPU 0 instructions: 980000165 cycles: 7769863767 heartbeat IPC: 0.1212 cumulative IPC: 0.1261 (Simulation time: 14 hr 38 min 25 sec)
Simulation CPU 0 critical: IPC 0.012519 < 0.02
Heartbeat CPU 0 instructions: 990000165 cycles: 7852409255 heartbeat IPC: 0.1211 cumulative IPC: 0.1261 (Simulation time: 14 hr 48 min 23 sec)
Simulation CPU 0 warning: IPC 0.045713 < 0.05
Simulation CPU 0 panic: IPC 9.6e-06 < 0.01
[ERROR_CYCLE] Error added at CPU cycle 7902307439, interval 17, pending count: 1
[DRAM_CYCLE_ERROR] Cycle-based error applied! address=0xc44f01798 additional_latency=2459910500 cycles
Simulation CPU 0 panic: IPC 0 < 0.01
Simulation CPU 0 warning: IPC 0.031302 < 0.05
Heartbeat CPU 0 instructions: 1000000165 cycles: 7944833493 heartbeat IPC: 0.1082 cumulative IPC: 0.1259 (Simulation time: 14 hr 58 min 03 sec)
Simulation CPU 0 panic: IPC 9.6e-06 < 0.01
Simulation CPU 0 critical: IPC 0.010012 < 0.02
Simulation CPU 0 warning: IPC 0.034433 < 0.05
Simulation CPU 0 panic: IPC 9.6e-06 < 0.01
Simulation CPU 0 critical: IPC 0.011586 < 0.02
Simulation CPU 0 warning: IPC 0.034433 < 0.05
Heartbeat CPU 0 instructions: 1010000167 cycles: 8054928803 heartbeat IPC: 0.09083 cumulative IPC: 0.1254 (Simulation time: 15 hr 10 min 29 sec)
Simulation CPU 0 panic: IPC 9.6e-06 < 0.01
Simulation CPU 0 panic: IPC 9.6e-06 < 0.01
Heartbeat CPU 0 instructions: 1020000171 cycles: 8137360062 heartbeat IPC: 0.1213 cumulative IPC: 0.1253 (Simulation time: 15 hr 20 min 16 sec)
Simulation CPU 0 panic: IPC 9.6e-06 < 0.01
Simulation CPU 0 critical: IPC 0.01946 < 0.02
Simulation CPU 0 warning: IPC 0.045588 < 0.05
Simulation CPU 0 warning: IPC 0.03267 < 0.05
Heartbeat CPU 0 instructions: 1030000174 cycles: 8219785054 heartbeat IPC: 0.1213 cumulative IPC: 0.1253 (Simulation time: 15 hr 29 min 21 sec)
Simulation CPU 0 panic: IPC 9.6e-06 < 0.01
Heartbeat CPU 0 instructions: 1040000174 cycles: 8302496572 heartbeat IPC: 0.1209 cumulative IPC: 0.1253 (Simulation time: 15 hr 37 min 00 sec)
Simulation CPU 0 panic: IPC 9.6e-06 < 0.01
Simulation CPU 0 critical: IPC 0.010122 < 0.02
Simulation CPU 0 warning: IPC 0.034433 < 0.05
[ERROR_CYCLE] Error added at CPU cycle 8367149052, interval 18, pending count: 1
Simulation CPU 0 panic: IPC 9.6e-06 < 0.01
[DRAM_CYCLE_ERROR] Cycle-based error applied! address=0x356602848 additional_latency=2459910500 cycles
Simulation CPU 0 panic: IPC 0 < 0.01
Simulation CPU 0 critical: IPC 0.011695 < 0.02
Simulation CPU 0 warning: IPC 0.034433 < 0.05
Heartbeat CPU 0 instructions: 1050000178 cycles: 8413219161 heartbeat IPC: 0.09032 cumulative IPC: 0.1248 (Simulation time: 15 hr 50 min 08 sec)
Simulation CPU 0 panic: IPC 9.6e-06 < 0.01
Heartbeat CPU 0 instructions: 1060000182 cycles: 8477195148 heartbeat IPC: 0.1563 cumulative IPC: 0.125 (Simulation time: 15 hr 56 min 52 sec)
Simulation CPU 0 panic: IPC 9.6e-06 < 0.01
Simulation CPU 0 warning: IPC 0.040169 < 0.05
Simulation CPU 0 warning: IPC 0.045479 < 0.05
Simulation CPU 0 warning: IPC 0.03278 < 0.05
Heartbeat CPU 0 instructions: 1070000184 cycles: 8550392428 heartbeat IPC: 0.1366 cumulative IPC: 0.1251 (Simulation time: 16 hr 05 min 14 sec)
Heartbeat CPU 0 instructions: 1080000186 cycles: 8605179602 heartbeat IPC: 0.1825 cumulative IPC: 0.1255 (Simulation time: 16 hr 11 min 42 sec)
Simulation CPU 0 panic: IPC 9.6e-06 < 0.01
Simulation CPU 0 warning: IPC 0.040534 < 0.05
Simulation CPU 0 warning: IPC 0.041247 < 0.05
Simulation CPU 0 critical: IPC 0.010231 < 0.02
Simulation CPU 0 warning: IPC 0.034433 < 0.05
Simulation CPU 0 panic: IPC 9.6e-06 < 0.01
Simulation CPU 0 critical: IPC 0.011805 < 0.02
Simulation CPU 0 warning: IPC 0.034433 < 0.05
Heartbeat CPU 0 instructions: 1090000187 cycles: 8734066274 heartbeat IPC: 0.07759 cumulative IPC: 0.1248 (Simulation time: 16 hr 25 min 44 sec)
Simulation CPU 0 critical: IPC 0.012519 < 0.02
Simulation CPU 0 panic: IPC 9.6e-06 < 0.01
Heartbeat CPU 0 instructions: 1100000187 cycles: 8807144066 heartbeat IPC: 0.1368 cumulative IPC: 0.1249 (Simulation time: 16 hr 33 min 10 sec)
Simulation CPU 0 warning: IPC 0.031316 < 0.05
[ERROR_CYCLE] Error added at CPU cycle 8831990667, interval 19, pending count: 1
[DRAM_CYCLE_ERROR] Cycle-based error applied! address=0xb67511930 additional_latency=2459910500 cycles
Simulation CPU 0 panic: IPC 0 < 0.01
Simulation CPU 0 warning: IPC 0.045428 < 0.05
Simulation CPU 0 panic: IPC 9.6e-06 < 0.01
Simulation CPU 0 warning: IPC 0.03289 < 0.05
Heartbeat CPU 0 instructions: 1110000188 cycles: 8908658501 heartbeat IPC: 0.09851 cumulative IPC: 0.1246 (Simulation time: 16 hr 45 min 03 sec)
Heartbeat CPU 0 instructions: 1120000189 cycles: 8954165297 heartbeat IPC: 0.2197 cumulative IPC: 0.1251 (Simulation time: 16 hr 50 min 06 sec)
Simulation CPU 0 warning: IPC 0.045461 < 0.05
Simulation CPU 0 warning: IPC 0.04711 < 0.05
Simulation CPU 0 panic: IPC 9.6e-06 < 0.01
Simulation CPU 0 critical: IPC 0.010341 < 0.02
Simulation CPU 0 warning: IPC 0.034433 < 0.05
Simulation CPU 0 panic: IPC 9.6e-06 < 0.01
Simulation CPU 0 critical: IPC 0.011915 < 0.02
Heartbeat CPU 0 instructions: 1130000189 cycles: 9082979489 heartbeat IPC: 0.07763 cumulative IPC: 0.1244 (Simulation time: 17 hr 05 min 23 sec)
Simulation CPU 0 warning: IPC 0.034433 < 0.05
Simulation CPU 0 critical: IPC 0.012519 < 0.02
Simulation CPU 0 panic: IPC 9.6e-06 < 0.01
Heartbeat CPU 0 instructions: 1140000189 cycles: 9174649456 heartbeat IPC: 0.1091 cumulative IPC: 0.1243 (Simulation time: 17 hr 14 min 51 sec)
Simulation CPU 0 warning: IPC 0.031426 < 0.05
Simulation CPU 0 panic: IPC 9.6e-06 < 0.01
Simulation CPU 0 warning: IPC 0.033 < 0.05
Heartbeat CPU 0 instructions: 1150000189 cycles: 9266322673 heartbeat IPC: 0.1091 cumulative IPC: 0.1241 (Simulation time: 17 hr 24 min 49 sec)
[ERROR_CYCLE] Error added at CPU cycle 9296832280, interval 20, pending count: 1
[DRAM_CYCLE_ERROR] Cycle-based error applied! address=0xb6df02838 additional_latency=2459910500 cycles
Simulation CPU 0 warning: IPC 0.034416 < 0.05
Simulation CPU 0 warning: IPC 0.046925 < 0.05
Simulation CPU 0 warning: IPC 0.025076 < 0.05
Heartbeat CPU 0 instructions: 1160000190 cycles: 9330899016 heartbeat IPC: 0.1549 cumulative IPC: 0.1243 (Simulation time: 17 hr 32 min 50 sec)
Simulation CPU 0 panic: IPC 9.6e-06 < 0.01
Simulation CPU 0 critical: IPC 0.010451 < 0.02
Simulation CPU 0 warning: IPC 0.034433 < 0.05
Simulation CPU 0 panic: IPC 9.6e-06 < 0.01
Heartbeat CPU 0 instructions: 1170000194 cycles: 9431853435 heartbeat IPC: 0.09905 cumulative IPC: 0.124 (Simulation time: 17 hr 45 min 18 sec)
Simulation CPU 0 critical: IPC 0.012025 < 0.02
Simulation CPU 0 warning: IPC 0.034433 < 0.05
Simulation CPU 0 critical: IPC 0.012519 < 0.02
Heartbeat CPU 0 instructions: 1180000194 cycles: 9514600232 heartbeat IPC: 0.1209 cumulative IPC: 0.124 (Simulation time: 17 hr 55 min 30 sec)
Simulation CPU 0 panic: IPC 9.6e-06 < 0.01
Simulation CPU 0 warning: IPC 0.031536 < 0.05
Simulation CPU 0 panic: IPC 9.6e-06 < 0.01
Simulation CPU 0 warning: IPC 0.033109 < 0.05
Simulation CPU 0 panic: IPC 9.6e-06 < 0.01
Simulation CPU 0 panic: IPC 0.0038386 < 0.01
Heartbeat CPU 0 instructions: 1190000194 cycles: 9643116087 heartbeat IPC: 0.07781 cumulative IPC: 0.1234 (Simulation time: 18 hr 10 min 08 sec)
Simulation CPU 0 warning: IPC 0.046815 < 0.05
Simulation CPU 0 warning: IPC 0.025186 < 0.05
Heartbeat CPU 0 instructions: 1200000198 cycles: 9697862897 heartbeat IPC: 0.1827 cumulative IPC: 0.1237 (Simulation time: 18 hr 16 min 30 sec)
Simulation CPU 0 panic: IPC 9.6e-06 < 0.01
Simulation CPU 0 panic: IPC 0.0074301 < 0.01
Simulation CPU 0 warning: IPC 0.034433 < 0.05
[ERROR_CYCLE] Error added at CPU cycle 9761673895, interval 21, pending count: 1
[DRAM_CYCLE_ERROR] Cycle-based error applied! address=0xb6756a3c0 additional_latency=2459910500 cycles
Simulation CPU 0 panic: IPC 0 < 0.01
Simulation CPU 0 panic: IPC 9.6e-06 < 0.01
Simulation CPU 0 panic: IPC 9.6e-06 < 0.01
Heartbeat CPU 0 instructions: 1210000199 cycles: 9817895895 heartbeat IPC: 0.08331 cumulative IPC: 0.1232 (Simulation time: 18 hr 29 min 37 sec)
Simulation CPU 0 critical: IPC 0.012134 < 0.02
Simulation CPU 0 warning: IPC 0.034433 < 0.05
Simulation CPU 0 critical: IPC 0.012519 < 0.02
Heartbeat CPU 0 instructions: 1220000200 cycles: 9900514697 heartbeat IPC: 0.121 cumulative IPC: 0.1232 (Simulation time: 18 hr 37 min 48 sec)
Simulation CPU 0 critical: IPC 0.015794 < 0.02
Simulation CPU 0 warning: IPC 0.031645 < 0.05
Simulation CPU 0 panic: IPC 0.0053913 < 0.01
Simulation CPU 0 warning: IPC 0.033219 < 0.05
Heartbeat CPU 0 instructions: 1230000203 cycles: 9992273096 heartbeat IPC: 0.109 cumulative IPC: 0.1231 (Simulation time: 18 hr 47 min 32 sec)
Simulation CPU 0 panic: IPC 9.6e-06 < 0.01
Simulation CPU 0 warning: IPC 0.046705 < 0.05
Simulation CPU 0 warning: IPC 0.025296 < 0.05
Heartbeat CPU 0 instructions: 1240000204 cycles: 10065497273 heartbeat IPC: 0.1366 cumulative IPC: 0.1232 (Simulation time: 18 hr 55 min 53 sec)
Simulation CPU 0 panic: IPC 9.6e-06 < 0.01
Simulation CPU 0 warning: IPC 0.034433 < 0.05
Simulation CPU 0 warning: IPC 0.046918 < 0.05
Simulation CPU 0 panic: IPC 9.6e-06 < 0.01
Heartbeat CPU 0 instructions: 1250000205 cycles: 10157205096 heartbeat IPC: 0.109 cumulative IPC: 0.1231 (Simulation time: 19 hr 05 min 43 sec)
Simulation CPU 0 panic: IPC 9.6e-06 < 0.01
Simulation CPU 0 critical: IPC 0.012244 < 0.02
Simulation CPU 0 critical: IPC 0.012519 < 0.02
[ERROR_CYCLE] Error added at CPU cycle 10226515508, interval 22, pending count: 1
[DRAM_CYCLE_ERROR] Cycle-based error applied! address=0x508b02238 additional_latency=2459910500 cycles
Simulation CPU 0 panic: IPC 0 < 0.01
Heartbeat CPU 0 instructions: 1260000207 cycles: 10240268961 heartbeat IPC: 0.1204 cumulative IPC: 0.123 (Simulation time: 19 hr 15 min 29 sec)
Simulation CPU 0 warning: IPC 0.031755 < 0.05
Simulation CPU 0 warning: IPC 0.033329 < 0.05
Heartbeat CPU 0 instructions: 1270000207 cycles: 10341507685 heartbeat IPC: 0.09878 cumulative IPC: 0.1228 (Simulation time: 19 hr 27 min 40 sec)
Simulation CPU 0 panic: IPC 9.6e-06 < 0.01
Simulation CPU 0 warning: IPC 0.046595 < 0.05
Simulation CPU 0 warning: IPC 0.025406 < 0.05
Heartbeat CPU 0 instructions: 1280000207 cycles: 10414602869 heartbeat IPC: 0.1368 cumulative IPC: 0.1229 (Simulation time: 19 hr 36 min 32 sec)
Simulation CPU 0 warning: IPC 0.026979 < 0.05
Simulation CPU 0 warning: IPC 0.045713 < 0.05
Simulation CPU 0 panic: IPC 9.6e-06 < 0.01
Simulation CPU 0 warning: IPC 0.031302 < 0.05
Simulation CPU 0 warning: IPC 0.046809 < 0.05
Simulation CPU 0 panic: IPC 9.6e-06 < 0.01
Heartbeat CPU 0 instructions: 1290000208 cycles: 10506270671 heartbeat IPC: 0.1091 cumulative IPC: 0.1228 (Simulation time: 19 hr 47 min 07 sec)
Simulation CPU 0 panic: IPC 9.6e-06 < 0.01
Simulation CPU 0 critical: IPC 0.014464 < 0.02
Simulation CPU 0 critical: IPC 0.012354 < 0.02
Simulation CPU 0 critical: IPC 0.012519 < 0.02
Heartbeat CPU 0 instructions: 1300000209 cycles: 10607193833 heartbeat IPC: 0.09909 cumulative IPC: 0.1226 (Simulation time: 19 hr 57 min 35 sec)
Simulation CPU 0 warning: IPC 0.048856 < 0.05
Simulation CPU 0 panic: IPC 9.6e-06 < 0.01
Simulation CPU 0 panic: IPC 9.6e-06 < 0.01
[ERROR_CYCLE] Error added at CPU cycle 10691357123, interval 23, pending count: 1
[DRAM_CYCLE_ERROR] Cycle-based error applied! address=0xb675c3940 additional_latency=2459910500 cycles
Simulation CPU 0 panic: IPC 0 < 0.01
Heartbeat CPU 0 instructions: 1310000212 cycles: 10718051012 heartbeat IPC: 0.09021 cumulative IPC: 0.1222 (Simulation time: 20 hr 09 min 13 sec)
Simulation CPU 0 warning: IPC 0.033439 < 0.05
Simulation CPU 0 panic: IPC 9.6e-06 < 0.01
Simulation CPU 0 warning: IPC 0.034433 < 0.05
Heartbeat CPU 0 instructions: 1320000212 cycles: 10809881256 heartbeat IPC: 0.1089 cumulative IPC: 0.1221 (Simulation time: 20 hr 19 min 13 sec)
Simulation CPU 0 warning: IPC 0.027089 < 0.05
Simulation CPU 0 panic: IPC 9.6e-06 < 0.01
Simulation CPU 0 warning: IPC 0.046699 < 0.05
Simulation CPU 0 panic: IPC 9.6e-06 < 0.01
Heartbeat CPU 0 instructions: 1330000214 cycles: 10892280445 heartbeat IPC: 0.1214 cumulative IPC: 0.1221 (Simulation time: 20 hr 28 min 13 sec)
Simulation CPU 0 panic: IPC 9.6e-06 < 0.01
Simulation CPU 0 critical: IPC 0.012464 < 0.02
Simulation CPU 0 critical: IPC 0.012519 < 0.02
Heartbeat CPU 0 instructions: 1340000215 cycles: 10965501758 heartbeat IPC: 0.1366 cumulative IPC: 0.1222 (Simulation time: 20 hr 36 min 51 sec)
Simulation CPU 0 panic: IPC 9.6e-06 < 0.01
Heartbeat CPU 0 instructions: 1350000216 cycles: 11047946188 heartbeat IPC: 0.1213 cumulative IPC: 0.1222 (Simulation time: 20 hr 46 min 23 sec)
Simulation CPU 0 warning: IPC 0.033549 < 0.05
Simulation CPU 0 panic: IPC 9.6e-06 < 0.01
Simulation CPU 0 warning: IPC 0.034433 < 0.05
Heartbeat CPU 0 instructions: 1360000216 cycles: 11139943234 heartbeat IPC: 0.1087 cumulative IPC: 0.1221 (Simulation time: 20 hr 57 min 04 sec)
Simulation CPU 0 warning: IPC 0.022948 < 0.05
[ERROR_CYCLE] Error added at CPU cycle 11156198736, interval 24, pending count: 1
[DRAM_CYCLE_ERROR] Cycle-based error applied! address=0x92b500b98 additional_latency=2459910500 cycles
Simulation CPU 0 panic: IPC 0 < 0.01
Simulation CPU 0 warning: IPC 0.041819 < 0.05
Simulation CPU 0 warning: IPC 0.046589 < 0.05
Simulation CPU 0 panic: IPC 9.6e-06 < 0.01
Heartbeat CPU 0 instructions: 1370000217 cycles: 11241445467 heartbeat IPC: 0.09852 cumulative IPC: 0.1219 (Simulation time: 21 hr 07 min 26 sec)
Simulation CPU 0 panic: IPC 9.6e-06 < 0.01
Simulation CPU 0 critical: IPC 0.012519 < 0.02
Simulation CPU 0 critical: IPC 0.012519 < 0.02
Heartbeat CPU 0 instructions: 1380000217 cycles: 11314676762 heartbeat IPC: 0.1366 cumulative IPC: 0.122 (Simulation time: 21 hr 16 min 13 sec)
Simulation CPU 0 critical: IPC 0.012519 < 0.02
Simulation CPU 0 panic: IPC 9.6e-06 < 0.01
Heartbeat CPU 0 instructions: 1390000220 cycles: 11387904055 heartbeat IPC: 0.1366 cumulative IPC: 0.1221 (Simulation time: 21 hr 23 min 57 sec)
Simulation CPU 0 warning: IPC 0.033658 < 0.05
Simulation CPU 0 warning: IPC 0.045428 < 0.05
Simulation CPU 0 panic: IPC 9.6e-06 < 0.01
Simulation CPU 0 warning: IPC 0.034433 < 0.05
Heartbeat CPU 0 instructions: 1400000220 cycles: 11488925805 heartbeat IPC: 0.09899 cumulative IPC: 0.1219 (Simulation time: 21 hr 35 min 29 sec)
Simulation CPU 0 warning: IPC 0.025735 < 0.05
Simulation CPU 0 warning: IPC 0.046833 < 0.05
Simulation CPU 0 panic: IPC 0.0095115 < 0.01
Simulation CPU 0 critical: IPC 0.010641 < 0.02
Simulation CPU 0 warning: IPC 0.046479 < 0.05
Heartbeat CPU 0 instructions: 1410000224 cycles: 11580872981 heartbeat IPC: 0.1088 cumulative IPC: 0.1218 (Simulation time: 21 hr 45 min 27 sec)
Simulation CPU 0 warning: IPC 0.048746 < 0.05
[ERROR_CYCLE] Error added at CPU cycle 11621040351, interval 25, pending count: 1
[DRAM_CYCLE_ERROR] Cycle-based error applied! address=0x67991cc38 additional_latency=2459910500 cycles
Simulation CPU 0 critical: IPC 0.012519 < 0.02
Simulation CPU 0 critical: IPC 0.016514 < 0.02
Heartbeat CPU 0 instructions: 1420000227 cycles: 11700770974 heartbeat IPC: 0.0834 cumulative IPC: 0.1214 (Simulation time: 21 hr 59 min 34 sec)
Simulation CPU 0 critical: IPC 0.012519 < 0.02
Simulation CPU 0 panic: IPC 9.6e-06 < 0.01
Heartbeat CPU 0 instructions: 1430000227 cycles: 11773972638 heartbeat IPC: 0.1366 cumulative IPC: 0.1215 (Simulation time: 22 hr 08 min 29 sec)
Simulation CPU 0 warning: IPC 0.033768 < 0.05
Simulation CPU 0 panic: IPC 9.6e-06 < 0.01
Simulation CPU 0 warning: IPC 0.034433 < 0.05
Heartbeat CPU 0 instructions: 1440000229 cycles: 11865692596 heartbeat IPC: 0.109 cumulative IPC: 0.1214 (Simulation time: 22 hr 18 min 09 sec)
Simulation CPU 0 warning: IPC 0.025845 < 0.05
Simulation CPU 0 warning: IPC 0.046723 < 0.05
Simulation CPU 0 panic: IPC 0.0096213 < 0.01
Heartbeat CPU 0 instructions: 1450000231 cycles: 11909076707 heartbeat IPC: 0.2305 cumulative IPC: 0.1218 (Simulation time: 22 hr 23 min 15 sec)
Heartbeat CPU 0 instructions: 1460000232 cycles: 11924777021 heartbeat IPC: 0.6369 cumulative IPC: 0.1224 (Simulation time: 22 hr 25 min 17 sec)
Simulation CPU 0 warning: IPC 0.046369 < 0.05
Simulation CPU 0 panic: IPC 4e-05 < 0.01
Simulation CPU 0 panic: IPC 4e-05 < 0.01
Heartbeat CPU 0 instructions: 1470000236 cycles: 11995904867 heartbeat IPC: 0.1406 cumulative IPC: 0.1225 (Simulation time: 22 hr 34 min 14 sec)
Simulation CPU 0 critical: IPC 0.012519 < 0.02
Heartbeat CPU 0 instructions: 1480000237 cycles: 12039314379 heartbeat IPC: 0.2304 cumulative IPC: 0.1229 (Simulation time: 22 hr 39 min 32 sec)
Heartbeat CPU 0 instructions: 1490000237 cycles: 12073488893 heartbeat IPC: 0.2926 cumulative IPC: 0.1234 (Simulation time: 22 hr 43 min 05 sec)
[ERROR_CYCLE] Error added at CPU cycle 12085881964, interval 26, pending count: 1
[DRAM_CYCLE_ERROR] Cycle-based error applied! address=0x97fbe6a00 additional_latency=2459910500 cycles
Simulation CPU 0 critical: IPC 0.012519 < 0.02
Heartbeat CPU 0 instructions: 1500000237 cycles: 12107659823 heartbeat IPC: 0.2926 cumulative IPC: 0.1239 (Simulation time: 22 hr 46 min 57 sec)
Heartbeat CPU 0 instructions: 1510000238 cycles: 12160333820 heartbeat IPC: 0.1898 cumulative IPC: 0.1242 (Simulation time: 22 hr 52 min 50 sec)
Simulation CPU 0 warning: IPC 0.033878 < 0.05
Simulation CPU 0 panic: IPC 4e-05 < 0.01
Heartbeat CPU 0 instructions: 1520000238 cycles: 12212983217 heartbeat IPC: 0.1899 cumulative IPC: 0.1245 (Simulation time: 22 hr 59 min 07 sec)
Simulation CPU 0 warning: IPC 0.034433 < 0.05
Simulation CPU 0 panic: IPC 4e-05 < 0.01
Heartbeat CPU 0 instructions: 1530000238 cycles: 12265643581 heartbeat IPC: 0.1899 cumulative IPC: 0.1247 (Simulation time: 23 hr 05 min 08 sec)
Simulation CPU 0 warning: IPC 0.025955 < 0.05
Simulation CPU 0 warning: IPC 0.046613 < 0.05
Simulation CPU 0 panic: IPC 0.0097311 < 0.01
Heartbeat CPU 0 instructions: 1540000240 cycles: 12309053472 heartbeat IPC: 0.2304 cumulative IPC: 0.1251 (Simulation time: 23 hr 10 min 22 sec)
Heartbeat CPU 0 instructions: 1550000241 cycles: 12324763488 heartbeat IPC: 0.6365 cumulative IPC: 0.1258 (Simulation time: 23 hr 12 min 08 sec)
Simulation CPU 0 warning: IPC 0.04626 < 0.05
Simulation CPU 0 panic: IPC 4e-05 < 0.01
Heartbeat CPU 0 instructions: 1560000242 cycles: 12377403124 heartbeat IPC: 0.19 cumulative IPC: 0.126 (Simulation time: 23 hr 17 min 35 sec)
Simulation CPU 0 warning: IPC 0.031816 < 0.05
Heartbeat CPU 0 instructions: 1570000244 cycles: 12429986011 heartbeat IPC: 0.1902 cumulative IPC: 0.1263 (Simulation time: 23 hr 23 min 38 sec)
Heartbeat CPU 0 instructions: 1580000245 cycles: 12454498933 heartbeat IPC: 0.4079 cumulative IPC: 0.1269 (Simulation time: 23 hr 26 min 28 sec)
Simulation CPU 0 critical: IPC 0.012519 < 0.02
Heartbeat CPU 0 instructions: 1590000247 cycles: 12479323488 heartbeat IPC: 0.4028 cumulative IPC: 0.1274 (Simulation time: 23 hr 29 min 45 sec)
Simulation CPU 0 critical: IPC 0.012519 < 0.02
Heartbeat CPU 0 instructions: 1600000248 cycles: 12513490838 heartbeat IPC: 0.2927 cumulative IPC: 0.1279 (Simulation time: 23 hr 33 min 30 sec)
Simulation CPU 0 panic: IPC 4e-05 < 0.01
[ERROR_CYCLE] Error added at CPU cycle 12550723579, interval 27, pending count: 1
[DRAM_CYCLE_ERROR] Cycle-based error applied! address=0x454c00ea8 additional_latency=2459910500 cycles
Simulation CPU 0 panic: IPC 0 < 0.01
Heartbeat CPU 0 instructions: 1610000250 cycles: 12575977900 heartbeat IPC: 0.16 cumulative IPC: 0.128 (Simulation time: 23 hr 41 min 05 sec)
Simulation CPU 0 warning: IPC 0.033988 < 0.05
Simulation CPU 0 panic: IPC 4e-05 < 0.01
Heartbeat CPU 0 instructions: 1620000252 cycles: 12637856348 heartbeat IPC: 0.1616 cumulative IPC: 0.1282 (Simulation time: 23 hr 47 min 11 sec)
Simulation CPU 0 warning: IPC 0.035639 < 0.05
Simulation CPU 0 panic: IPC 4e-05 < 0.01
Heartbeat CPU 0 instructions: 1630000256 cycles: 12681271125 heartbeat IPC: 0.2303 cumulative IPC: 0.1285 (Simulation time: 23 hr 52 min 28 sec)
Simulation CPU 0 warning: IPC 0.026064 < 0.05
Simulation CPU 0 warning: IPC 0.046504 < 0.05
Simulation CPU 0 panic: IPC 0.0098409 < 0.01
Heartbeat CPU 0 instructions: 1640000256 cycles: 12733945402 heartbeat IPC: 0.1898 cumulative IPC: 0.1288 (Simulation time: 23 hr 58 min 24 sec)
Heartbeat CPU 0 instructions: 1650000256 cycles: 12749642810 heartbeat IPC: 0.637 cumulative IPC: 0.1294 (Simulation time: 00 hr 00 min 40 sec)
Simulation CPU 0 panic: IPC 4e-05 < 0.01
Heartbeat CPU 0 instructions: 1660000258 cycles: 12793062427 heartbeat IPC: 0.2303 cumulative IPC: 0.1298 (Simulation time: 00 hr 05 min 23 sec)
Simulation CPU 0 panic: IPC 4e-05 < 0.01
Simulation CPU 0 panic: IPC 4e-05 < 0.01
Heartbeat CPU 0 instructions: 1670000258 cycles: 12854948397 heartbeat IPC: 0.1616 cumulative IPC: 0.1299 (Simulation time: 00 hr 12 min 00 sec)
Simulation CPU 0 critical: IPC 0.012519 < 0.02
Heartbeat CPU 0 instructions: 1680000260 cycles: 12879903590 heartbeat IPC: 0.4007 cumulative IPC: 0.1304 (Simulation time: 00 hr 15 min 10 sec)
Simulation CPU 0 critical: IPC 0.012519 < 0.02
Heartbeat CPU 0 instructions: 1690000261 cycles: 12914085640 heartbeat IPC: 0.2926 cumulative IPC: 0.1309 (Simulation time: 00 hr 19 min 19 sec)
Simulation CPU 0 panic: IPC 4e-05 < 0.01
Heartbeat CPU 0 instructions: 1700000265 cycles: 12948291397 heartbeat IPC: 0.2923 cumulative IPC: 0.1313 (Simulation time: 00 hr 22 min 59 sec)
Simulation CPU 0 warning: IPC 0.034098 < 0.05
Heartbeat CPU 0 instructions: 1710000267 cycles: 12982478105 heartbeat IPC: 0.2925 cumulative IPC: 0.1317 (Simulation time: 00 hr 26 min 55 sec)
Simulation CPU 0 panic: IPC 4e-05 < 0.01
[ERROR_CYCLE] Error added at CPU cycle 13015565192, interval 28, pending count: 1
[DRAM_CYCLE_ERROR] Cycle-based error applied! address=0x6c4900658 additional_latency=2459910500 cycles
Simulation CPU 0 panic: IPC 0 < 0.01
Heartbeat CPU 0 instructions: 1720000269 cycles: 13026269254 heartbeat IPC: 0.2284 cumulative IPC: 0.132 (Simulation time: 00 hr 31 min 23 sec)
Simulation CPU 0 warning: IPC 0.034433 < 0.05
Simulation CPU 0 panic: IPC 4e-05 < 0.01
Heartbeat CPU 0 instructions: 1730000269 cycles: 13060043192 heartbeat IPC: 0.2961 cumulative IPC: 0.1325 (Simulation time: 00 hr 35 min 15 sec)
Simulation CPU 0 warning: IPC 0.045098 < 0.05
Simulation CPU 0 warning: IPC 0.046394 < 0.05
Simulation CPU 0 panic: IPC 0.0099507 < 0.01
Heartbeat CPU 0 instructions: 1740000270 cycles: 13112722292 heartbeat IPC: 0.1898 cumulative IPC: 0.1327 (Simulation time: 00 hr 40 min 57 sec)
Heartbeat CPU 0 instructions: 1750000273 cycles: 13137640785 heartbeat IPC: 0.4013 cumulative IPC: 0.1332 (Simulation time: 00 hr 43 min 53 sec)
Simulation CPU 0 panic: IPC 4e-05 < 0.01
Simulation CPU 0 panic: IPC 4e-05 < 0.01
Heartbeat CPU 0 instructions: 1760000277 cycles: 13199531908 heartbeat IPC: 0.1616 cumulative IPC: 0.1333 (Simulation time: 00 hr 50 min 13 sec)
Simulation CPU 0 panic: IPC 0.0069169 < 0.01
Heartbeat CPU 0 instructions: 1770000278 cycles: 13252186126 heartbeat IPC: 0.1899 cumulative IPC: 0.1336 (Simulation time: 00 hr 56 min 18 sec)
Simulation CPU 0 critical: IPC 0.012519 < 0.02
Heartbeat CPU 0 instructions: 1780000281 cycles: 13286370140 heartbeat IPC: 0.2925 cumulative IPC: 0.134 (Simulation time: 01 hr 00 min 27 sec)
Simulation CPU 0 critical: IPC 0.012519 < 0.02
Heartbeat CPU 0 instructions: 1790000282 cycles: 13320550467 heartbeat IPC: 0.2926 cumulative IPC: 0.1344 (Simulation time: 01 hr 04 min 55 sec)
Simulation CPU 0 panic: IPC 4e-05 < 0.01
Heartbeat CPU 0 instructions: 1800000283 cycles: 13363972989 heartbeat IPC: 0.2303 cumulative IPC: 0.1347 (Simulation time: 01 hr 10 min 28 sec)
Simulation CPU 0 panic: IPC 4e-05 < 0.01
Heartbeat CPU 0 instructions: 1810000283 cycles: 13407394991 heartbeat IPC: 0.2303 cumulative IPC: 0.135 (Simulation time: 01 hr 16 min 06 sec)
Simulation CPU 0 warning: IPC 0.034433 < 0.05
Heartbeat CPU 0 instructions: 1820000283 cycles: 13450798939 heartbeat IPC: 0.2304 cumulative IPC: 0.1353 (Simulation time: 01 hr 21 min 42 sec)
Simulation CPU 0 warning: IPC 0.023153 < 0.05
Simulation CPU 0 warning: IPC 0.046284 < 0.05
[ERROR_CYCLE] Error added at CPU cycle 13480406807, interval 29, pending count: 1
[DRAM_CYCLE_ERROR] Cycle-based error applied! address=0xac6900000 additional_latency=2459910500 cycles
Simulation CPU 0 panic: IPC 0 < 0.01
Simulation CPU 0 critical: IPC 0.01006 < 0.02
Simulation CPU 0 warning: IPC 0.034433 < 0.05
Heartbeat CPU 0 instructions: 1830000287 cycles: 13513303935 heartbeat IPC: 0.16 cumulative IPC: 0.1354 (Simulation time: 01 hr 29 min 27 sec)
Heartbeat CPU 0 instructions: 1840000287 cycles: 13538221822 heartbeat IPC: 0.4013 cumulative IPC: 0.1359 (Simulation time: 01 hr 32 min 10 sec)
Simulation CPU 0 panic: IPC 4e-05 < 0.01
Heartbeat CPU 0 instructions: 1850000290 cycles: 13581662565 heartbeat IPC: 0.2302 cumulative IPC: 0.1362 (Simulation time: 01 hr 36 min 57 sec)
Simulation CPU 0 panic: IPC 4e-05 < 0.01
Heartbeat CPU 0 instructions: 1860000291 cycles: 13615860000 heartbeat IPC: 0.2924 cumulative IPC: 0.1366 (Simulation time: 01 hr 40 min 51 sec)
Simulation CPU 0 panic: IPC 4e-05 < 0.01
Simulation CPU 0 critical: IPC 0.012519 < 0.02
Heartbeat CPU 0 instructions: 1870000293 cycles: 13668116356 heartbeat IPC: 0.1914 cumulative IPC: 0.1368 (Simulation time: 01 hr 47 min 26 sec)
Heartbeat CPU 0 instructions: 1880000296 cycles: 13683585684 heartbeat IPC: 0.6464 cumulative IPC: 0.1374 (Simulation time: 01 hr 49 min 40 sec)
Simulation CPU 0 critical: IPC 0.012519 < 0.02
Heartbeat CPU 0 instructions: 1890000299 cycles: 13708520533 heartbeat IPC: 0.401 cumulative IPC: 0.1379 (Simulation time: 01 hr 53 min 00 sec)
Heartbeat CPU 0 instructions: 1900000299 cycles: 13742687506 heartbeat IPC: 0.2927 cumulative IPC: 0.1383 (Simulation time: 01 hr 56 min 59 sec)
Simulation CPU 0 panic: IPC 4e-05 < 0.01
Heartbeat CPU 0 instructions: 1910000302 cycles: 13786095752 heartbeat IPC: 0.2304 cumulative IPC: 0.1385 (Simulation time: 02 hr 02 min 33 sec)
Simulation CPU 0 warning: IPC 0.034433 < 0.05
Simulation CPU 0 panic: IPC 4e-05 < 0.01
Heartbeat CPU 0 instructions: 1920000303 cycles: 13829499445 heartbeat IPC: 0.2304 cumulative IPC: 0.1388 (Simulation time: 02 hr 07 min 15 sec)
Simulation CPU 0 warning: IPC 0.046174 < 0.05
Simulation CPU 0 critical: IPC 0.011744 < 0.02
Heartbeat CPU 0 instructions: 1930000307 cycles: 13872908745 heartbeat IPC: 0.2304 cumulative IPC: 0.1391 (Simulation time: 02 hr 12 min 10 sec)
Simulation CPU 0 critical: IPC 0.011744 < 0.02
Heartbeat CPU 0 instructions: 1940000308 cycles: 13907100140 heartbeat IPC: 0.2925 cumulative IPC: 0.1395 (Simulation time: 02 hr 16 min 03 sec)
Heartbeat CPU 0 instructions: 1950000308 cycles: 13932042880 heartbeat IPC: 0.4009 cumulative IPC: 0.14 (Simulation time: 02 hr 18 min 53 sec)
[ERROR_CYCLE] Error added at CPU cycle 13945248420, interval 30, pending count: 1
[DRAM_CYCLE_ERROR] Cycle-based error applied! address=0x6799edf90 additional_latency=2459910500 cycles
Simulation CPU 0 panic: IPC 4e-05 < 0.01
Simulation CPU 0 panic: IPC 0 < 0.01
Simulation CPU 0 panic: IPC 4e-05 < 0.01
Heartbeat CPU 0 instructions: 1960000310 cycles: 14003777184 heartbeat IPC: 0.1394 cumulative IPC: 0.14 (Simulation time: 02 hr 27 min 14 sec)
Simulation CPU 0 warning: IPC 0.039107 < 0.05
Simulation CPU 0 critical: IPC 0.012519 < 0.02
Heartbeat CPU 0 instructions: 1970000311 cycles: 14047175943 heartbeat IPC: 0.2304 cumulative IPC: 0.1402 (Simulation time: 02 hr 32 min 36 sec)
Simulation CPU 0 critical: IPC 0.012519 < 0.02
Simulation CPU 0 warning: IPC 0.04543 < 0.05
Heartbeat CPU 0 instructions: 1980000312 cycles: 14081364611 heartbeat IPC: 0.2925 cumulative IPC: 0.1406 (Simulation time: 02 hr 36 min 55 sec)
Heartbeat CPU 0 instructions: 1990000313 cycles: 14106285129 heartbeat IPC: 0.4013 cumulative IPC: 0.1411 (Simulation time: 02 hr 40 min 06 sec)

=== ERROR PAGE STATISTICS ===
Mode: CYCLE
Error Cycle Interval: 464841614 CPU cycles
Total Error Accesses: 30
==============================
Simulation finished CPU 0 instructions: 1999999509 cycles: 14131230823 cumulative IPC: 0.1415 (Simulation time: 02 hr 43 min 22 sec)
Simulation complete CPU 0 instructions: 1999999509 cycles: 14131230823 cumulative IPC: 0.1415 (Simulation time: 02 hr 43 min 22 sec)

ChampSim completed all CPUs

=== Simulation ===
CPU 0 runs test_traces/654.roms_s-1007B.champsimtrace.xz

Region of Interest Statistics

CPU 0 cumulative IPC: 0.1415 instructions: 1999999509 cycles: 14131230823
CPU 0 Branch Prediction Accuracy: 95.85% MPKI: 3.086 Average ROB Occupancy at Mispredict: 45.56
Branch type MPKI
BRANCH_DIRECT_JUMP: 9.8e-05
BRANCH_INDIRECT: 6e-06
BRANCH_CONDITIONAL: 1.593
BRANCH_DIRECT_CALL: 3.65e-05
BRANCH_INDIRECT_CALL: 0
BRANCH_RETURN: 1.493

cpu0->cpu0_STLB TOTAL        ACCESS:   39120812 HIT:   39119288 MISS:       1524 MSHR_MERGE:          0
cpu0->cpu0_STLB LOAD         ACCESS:   39120812 HIT:   39119288 MISS:       1524 MSHR_MERGE:          0
cpu0->cpu0_STLB RFO          ACCESS:          0 HIT:          0 MISS:          0 MSHR_MERGE:          0
cpu0->cpu0_STLB PREFETCH     ACCESS:          0 HIT:          0 MISS:          0 MSHR_MERGE:          0
cpu0->cpu0_STLB WRITE        ACCESS:          0 HIT:          0 MISS:          0 MSHR_MERGE:          0
cpu0->cpu0_STLB TRANSLATION  ACCESS:          0 HIT:          0 MISS:          0 MSHR_MERGE:          0
cpu0->cpu0_STLB PREFETCH REQUESTED:          0 ISSUED:          0 USEFUL:          0 USELESS:          0
cpu0->cpu0_STLB AVERAGE MISS LATENCY: 9.295e+06 cycles
cpu0->cpu0_L2C TOTAL        ACCESS:   35188178 HIT:   15859221 MISS:   19328957 MSHR_MERGE:          0
cpu0->cpu0_L2C LOAD         ACCESS:   22564005 HIT:    7672719 MISS:   14891286 MSHR_MERGE:          0
cpu0->cpu0_L2C RFO          ACCESS:    5289518 HIT:     857674 MISS:    4431844 MSHR_MERGE:          0
cpu0->cpu0_L2C PREFETCH     ACCESS:          0 HIT:          0 MISS:          0 MSHR_MERGE:          0
cpu0->cpu0_L2C WRITE        ACCESS:    7334655 HIT:    7328828 MISS:       5827 MSHR_MERGE:          0
cpu0->cpu0_L2C TRANSLATION  ACCESS:          0 HIT:          0 MISS:          0 MSHR_MERGE:          0
cpu0->cpu0_L2C PREFETCH REQUESTED:          0 ISSUED:          0 USEFUL:          0 USELESS:          0
cpu0->cpu0_L2C AVERAGE MISS LATENCY: 71.52 cycles
cpu0->cpu0_L1I TOTAL        ACCESS:  419251151 HIT:  419250554 MISS:        597 MSHR_MERGE:        184
cpu0->cpu0_L1I LOAD         ACCESS:  419251151 HIT:  419250554 MISS:        597 MSHR_MERGE:        184
cpu0->cpu0_L1I RFO          ACCESS:          0 HIT:          0 MISS:          0 MSHR_MERGE:          0
cpu0->cpu0_L1I PREFETCH     ACCESS:          0 HIT:          0 MISS:          0 MSHR_MERGE:          0
cpu0->cpu0_L1I WRITE        ACCESS:          0 HIT:          0 MISS:          0 MSHR_MERGE:          0
cpu0->cpu0_L1I TRANSLATION  ACCESS:          0 HIT:          0 MISS:          0 MSHR_MERGE:          0
cpu0->cpu0_L1I PREFETCH REQUESTED:          0 ISSUED:          0 USEFUL:          0 USELESS:          0
cpu0->cpu0_L1I AVERAGE MISS LATENCY: 116.4 cycles
cpu0->cpu0_L1D TOTAL        ACCESS:  768633192 HIT:  729891100 MISS:   38742092 MSHR_MERGE:   10888447
cpu0->cpu0_L1D LOAD         ACCESS:  587554043 HIT:  557812145 MISS:   29741898 MSHR_MERGE:    7178299
cpu0->cpu0_L1D RFO          ACCESS:          0 HIT:          0 MISS:          0 MSHR_MERGE:          0
cpu0->cpu0_L1D PREFETCH     ACCESS:          0 HIT:          0 MISS:          0 MSHR_MERGE:          0
cpu0->cpu0_L1D WRITE        ACCESS:  181079149 HIT:  172078955 MISS:    9000194 MSHR_MERGE:    3710148
cpu0->cpu0_L1D TRANSLATION  ACCESS:          0 HIT:          0 MISS:          0 MSHR_MERGE:          0
cpu0->cpu0_L1D PREFETCH REQUESTED:          0 ISSUED:          0 USEFUL:          0 USELESS:          0
cpu0->cpu0_L1D AVERAGE MISS LATENCY: 58.37 cycles
cpu0->cpu0_ITLB TOTAL        ACCESS:  364566317 HIT:  364566315 MISS:          2 MSHR_MERGE:          0
cpu0->cpu0_ITLB LOAD         ACCESS:  364566317 HIT:  364566315 MISS:          2 MSHR_MERGE:          0
cpu0->cpu0_ITLB RFO          ACCESS:          0 HIT:          0 MISS:          0 MSHR_MERGE:          0
cpu0->cpu0_ITLB PREFETCH     ACCESS:          0 HIT:          0 MISS:          0 MSHR_MERGE:          0
cpu0->cpu0_ITLB WRITE        ACCESS:          0 HIT:          0 MISS:          0 MSHR_MERGE:          0
cpu0->cpu0_ITLB TRANSLATION  ACCESS:          0 HIT:          0 MISS:          0 MSHR_MERGE:          0
cpu0->cpu0_ITLB PREFETCH REQUESTED:          0 ISSUED:          0 USEFUL:          0 USELESS:          0
cpu0->cpu0_ITLB AVERAGE MISS LATENCY: 1.386e+07 cycles
cpu0->cpu0_DTLB TOTAL        ACCESS:  653154248 HIT:  614021166 MISS:   39133082 MSHR_MERGE:      12272
cpu0->cpu0_DTLB LOAD         ACCESS:  653154248 HIT:  614021166 MISS:   39133082 MSHR_MERGE:      12272
cpu0->cpu0_DTLB RFO          ACCESS:          0 HIT:          0 MISS:          0 MSHR_MERGE:          0
cpu0->cpu0_DTLB PREFETCH     ACCESS:          0 HIT:          0 MISS:          0 MSHR_MERGE:          0
cpu0->cpu0_DTLB WRITE        ACCESS:          0 HIT:          0 MISS:          0 MSHR_MERGE:          0
cpu0->cpu0_DTLB TRANSLATION  ACCESS:          0 HIT:          0 MISS:          0 MSHR_MERGE:          0
cpu0->cpu0_DTLB PREFETCH REQUESTED:          0 ISSUED:          0 USEFUL:          0 USELESS:          0
cpu0->cpu0_DTLB AVERAGE MISS LATENCY: 366.4 cycles
cpu0->LLC TOTAL        ACCESS:   25251975 HIT:   16383801 MISS:    8868174 MSHR_MERGE:          0
cpu0->LLC LOAD         ACCESS:   14891286 HIT:    7671955 MISS:    7219331 MSHR_MERGE:          0
cpu0->LLC RFO          ACCESS:    4431844 HIT:    2788326 MISS:    1643518 MSHR_MERGE:          0
cpu0->LLC PREFETCH     ACCESS:          0 HIT:          0 MISS:          0 MSHR_MERGE:          0
cpu0->LLC WRITE        ACCESS:    5928845 HIT:    5923520 MISS:       5325 MSHR_MERGE:          0
cpu0->LLC TRANSLATION  ACCESS:          0 HIT:          0 MISS:          0 MSHR_MERGE:          0
cpu0->LLC PREFETCH REQUESTED:          0 ISSUED:          0 USEFUL:          0 USELESS:          0
cpu0->LLC AVERAGE MISS LATENCY: 122.2 cycles

DRAM Statistics

Channel 0 RQ ROW_BUFFER_HIT:      78455
  ROW_BUFFER_MISS:    4353984
  AVG DBUS CONGESTED CYCLE: 11.44
Channel 0 WQ ROW_BUFFER_HIT:     172523
  ROW_BUFFER_MISS:     685923
  FULL:          0
Channel 0 REFRESHES ISSUED:    1177527

Channel 1 RQ ROW_BUFFER_HIT:      78428
  ROW_BUFFER_MISS:    4354909
  AVG DBUS CONGESTED CYCLE: 11.45
Channel 1 WQ ROW_BUFFER_HIT:     173160
  ROW_BUFFER_MISS:     684861
  FULL:          0
Channel 1 REFRESHES ISSUED:    1177527
