[VMEM] WARNING: physical memory size is smaller than virtual memory size.

*** ChampSim Multicore Out-of-Order Simulator ***
Warmup Instructions: 0
Simulation Instructions: 9223372036854775807
Number of CPUs: 1
Page size: 4096

Off-chip DRAM Size: 64 GiB Channels: 2 Width: 32-bit Data Rate: 4807 MT/s
[ERROR_PAGE_MANAGER] Error latency: 173500 
[ERROR_PAGE_MANAGER] Random seed: 54321 (fixed for preload reproducibility)
[ERROR_PAGE_MANAGER] Cycle-based error modeling enabled
[ERROR_PAGE_MANAGER] Errors per interval: 1
[ERROR_PAGE_MANAGER] Error cycle interval: 46484161 cycles

=== ERROR PAGE STATISTICS ===
Mode: CYCLE
Error Cycle Interval: 46484161 CPU cycles
Total Error Accesses: 0
==============================
Warmup finished CPU 0 instructions: 0 cycles: 1 cumulative IPC: 0 (Simulation time: 00 hr 00 min 01 sec)
Warmup complete CPU 0 instructions: 0 cycles: 1 cumulative IPC: 0 (Simulation time: 00 hr 00 min 01 sec)
Heartbeat CPU 0 instructions: 10000003 cycles: 9267110 heartbeat IPC: 1.079 cumulative IPC: 1.079 (Simulation time: 00 hr 01 min 05 sec)
Heartbeat CPU 0 instructions: 20000006 cycles: 19900777 heartbeat IPC: 0.9404 cumulative IPC: 1.005 (Simulation time: 00 hr 02 min 09 sec)
Heartbeat CPU 0 instructions: 30000006 cycles: 32036301 heartbeat IPC: 0.824 cumulative IPC: 0.9364 (Simulation time: 00 hr 03 min 22 sec)
[ERROR_CYCLE] Error added at CPU cycle 46484161, interval 1, pending count: 1
[DRAM_CYCLE_ERROR] Cycle-based error applied! address=0x1078d4684 additional_latency=173500 cycles
Heartbeat CPU 0 instructions: 40000008 cycles: 48170400 heartbeat IPC: 0.6198 cumulative IPC: 0.8304 (Simulation time: 00 hr 05 min 06 sec)
Heartbeat CPU 0 instructions: 50000009 cycles: 59521539 heartbeat IPC: 0.881 cumulative IPC: 0.84 (Simulation time: 00 hr 06 min 23 sec)
Heartbeat CPU 0 instructions: 60000012 cycles: 71639310 heartbeat IPC: 0.8252 cumulative IPC: 0.8375 (Simulation time: 00 hr 07 min 44 sec)
Heartbeat CPU 0 instructions: 70000012 cycles: 86232275 heartbeat IPC: 0.6853 cumulative IPC: 0.8118 (Simulation time: 00 hr 09 min 19 sec)
[ERROR_CYCLE] Error added at CPU cycle 92968322, interval 2, pending count: 1
[DRAM_CYCLE_ERROR] Cycle-based error applied! address=0xe7885d548 additional_latency=173500 cycles
Heartbeat CPU 0 instructions: 80000013 cycles: 98234120 heartbeat IPC: 0.8332 cumulative IPC: 0.8144 (Simulation time: 00 hr 10 min 52 sec)
Heartbeat CPU 0 instructions: 90000015 cycles: 110693812 heartbeat IPC: 0.8026 cumulative IPC: 0.8131 (Simulation time: 00 hr 12 min 34 sec)
Heartbeat CPU 0 instructions: 100000015 cycles: 128021254 heartbeat IPC: 0.5771 cumulative IPC: 0.7811 (Simulation time: 00 hr 14 min 52 sec)
Heartbeat CPU 0 instructions: 110000019 cycles: 134444143 heartbeat IPC: 1.557 cumulative IPC: 0.8182 (Simulation time: 00 hr 15 min 53 sec)
[ERROR_CYCLE] Error added at CPU cycle 139452483, interval 3, pending count: 1
[DRAM_CYCLE_ERROR] Cycle-based error applied! address=0x875f6bec4 additional_latency=173500 cycles
Heartbeat CPU 0 instructions: 120000021 cycles: 142640018 heartbeat IPC: 1.22 cumulative IPC: 0.8413 (Simulation time: 00 hr 17 min 06 sec)
Heartbeat CPU 0 instructions: 130000021 cycles: 148733673 heartbeat IPC: 1.641 cumulative IPC: 0.874 (Simulation time: 00 hr 18 min 06 sec)
Heartbeat CPU 0 instructions: 140000021 cycles: 157020063 heartbeat IPC: 1.207 cumulative IPC: 0.8916 (Simulation time: 00 hr 19 min 11 sec)
Heartbeat CPU 0 instructions: 150000024 cycles: 163631706 heartbeat IPC: 1.512 cumulative IPC: 0.9167 (Simulation time: 00 hr 19 min 57 sec)
Heartbeat CPU 0 instructions: 160000027 cycles: 171038100 heartbeat IPC: 1.35 cumulative IPC: 0.9355 (Simulation time: 00 hr 20 min 57 sec)
Heartbeat CPU 0 instructions: 170000028 cycles: 178953687 heartbeat IPC: 1.263 cumulative IPC: 0.95 (Simulation time: 00 hr 21 min 47 sec)
Heartbeat CPU 0 instructions: 180000028 cycles: 185133921 heartbeat IPC: 1.618 cumulative IPC: 0.9723 (Simulation time: 00 hr 22 min 35 sec)
[ERROR_CYCLE] Error added at CPU cycle 185936644, interval 4, pending count: 1
[DRAM_CYCLE_ERROR] Cycle-based error applied! address=0x76deb6994 additional_latency=173500 cycles
Heartbeat CPU 0 instructions: 190000028 cycles: 193895189 heartbeat IPC: 1.141 cumulative IPC: 0.9799 (Simulation time: 00 hr 23 min 36 sec)
Heartbeat CPU 0 instructions: 200000028 cycles: 200251168 heartbeat IPC: 1.573 cumulative IPC: 0.9987 (Simulation time: 00 hr 24 min 37 sec)
Heartbeat CPU 0 instructions: 210000028 cycles: 206635390 heartbeat IPC: 1.566 cumulative IPC: 1.016 (Simulation time: 00 hr 25 min 40 sec)
Heartbeat CPU 0 instructions: 220000030 cycles: 213124765 heartbeat IPC: 1.541 cumulative IPC: 1.032 (Simulation time: 00 hr 26 min 44 sec)
Heartbeat CPU 0 instructions: 230000031 cycles: 225712423 heartbeat IPC: 0.7944 cumulative IPC: 1.019 (Simulation time: 00 hr 28 min 31 sec)
[ERROR_CYCLE] Error added at CPU cycle 232420805, interval 5, pending count: 1
[DRAM_CYCLE_ERROR] Cycle-based error applied! address=0xd59b72f44 additional_latency=173500 cycles
Heartbeat CPU 0 instructions: 240000032 cycles: 238484752 heartbeat IPC: 0.7829 cumulative IPC: 1.006 (Simulation time: 00 hr 30 min 23 sec)
Heartbeat CPU 0 instructions: 250000033 cycles: 244784115 heartbeat IPC: 1.587 cumulative IPC: 1.021 (Simulation time: 00 hr 31 min 26 sec)
Heartbeat CPU 0 instructions: 260000037 cycles: 251866038 heartbeat IPC: 1.412 cumulative IPC: 1.032 (Simulation time: 00 hr 32 min 34 sec)
Heartbeat CPU 0 instructions: 270000040 cycles: 258747676 heartbeat IPC: 1.453 cumulative IPC: 1.043 (Simulation time: 00 hr 33 min 41 sec)
Heartbeat CPU 0 instructions: 280000044 cycles: 264938398 heartbeat IPC: 1.615 cumulative IPC: 1.057 (Simulation time: 00 hr 34 min 42 sec)
Heartbeat CPU 0 instructions: 290000047 cycles: 271771805 heartbeat IPC: 1.463 cumulative IPC: 1.067 (Simulation time: 00 hr 35 min 48 sec)
[ERROR_CYCLE] Error added at CPU cycle 278904966, interval 6, pending count: 1
[DRAM_CYCLE_ERROR] Cycle-based error applied! address=0x8329fab84 additional_latency=173500 cycles
Heartbeat CPU 0 instructions: 300000049 cycles: 279916446 heartbeat IPC: 1.228 cumulative IPC: 1.072 (Simulation time: 00 hr 37 min 02 sec)
Heartbeat CPU 0 instructions: 310000049 cycles: 292378515 heartbeat IPC: 0.8024 cumulative IPC: 1.06 (Simulation time: 00 hr 38 min 35 sec)
Heartbeat CPU 0 instructions: 320000053 cycles: 301292418 heartbeat IPC: 1.122 cumulative IPC: 1.062 (Simulation time: 00 hr 39 min 46 sec)
Heartbeat CPU 0 instructions: 330000055 cycles: 312045305 heartbeat IPC: 0.93 cumulative IPC: 1.058 (Simulation time: 00 hr 41 min 19 sec)
Heartbeat CPU 0 instructions: 340000057 cycles: 324098054 heartbeat IPC: 0.8297 cumulative IPC: 1.049 (Simulation time: 00 hr 42 min 50 sec)
[ERROR_CYCLE] Error added at CPU cycle 325389128, interval 7, pending count: 1
[DRAM_CYCLE_ERROR] Cycle-based error applied! address=0xe9a49ce40 additional_latency=173500 cycles
Heartbeat CPU 0 instructions: 350000057 cycles: 339915478 heartbeat IPC: 0.6322 cumulative IPC: 1.03 (Simulation time: 00 hr 44 min 39 sec)
Heartbeat CPU 0 instructions: 360000059 cycles: 351605175 heartbeat IPC: 0.8555 cumulative IPC: 1.024 (Simulation time: 00 hr 46 min 09 sec)
Heartbeat CPU 0 instructions: 370000059 cycles: 363925704 heartbeat IPC: 0.8117 cumulative IPC: 1.017 (Simulation time: 00 hr 47 min 26 sec)
[ERROR_CYCLE] Error added at CPU cycle 371873289, interval 8, pending count: 1
[DRAM_CYCLE_ERROR] Cycle-based error applied! address=0x59fcd6cf8 additional_latency=173500 cycles
Heartbeat CPU 0 instructions: 380000060 cycles: 378694718 heartbeat IPC: 0.6771 cumulative IPC: 1.003 (Simulation time: 00 hr 49 min 30 sec)
Heartbeat CPU 0 instructions: 390000060 cycles: 391102034 heartbeat IPC: 0.806 cumulative IPC: 0.9972 (Simulation time: 00 hr 50 min 43 sec)
Heartbeat CPU 0 instructions: 400000060 cycles: 403919997 heartbeat IPC: 0.7802 cumulative IPC: 0.9903 (Simulation time: 00 hr 52 min 00 sec)
[ERROR_CYCLE] Error added at CPU cycle 418357450, interval 9, pending count: 1
[DRAM_CYCLE_ERROR] Cycle-based error applied! address=0xe873d8cc8 additional_latency=173500 cycles
Heartbeat CPU 0 instructions: 410000063 cycles: 418363098 heartbeat IPC: 0.6924 cumulative IPC: 0.98 (Simulation time: 00 hr 53 min 49 sec)
Heartbeat CPU 0 instructions: 420000066 cycles: 430732530 heartbeat IPC: 0.8084 cumulative IPC: 0.9751 (Simulation time: 00 hr 55 min 21 sec)
Heartbeat CPU 0 instructions: 430000068 cycles: 445197945 heartbeat IPC: 0.6913 cumulative IPC: 0.9659 (Simulation time: 00 hr 56 min 51 sec)
Heartbeat CPU 0 instructions: 440000069 cycles: 458874770 heartbeat IPC: 0.7312 cumulative IPC: 0.9589 (Simulation time: 00 hr 58 min 07 sec)
[ERROR_CYCLE] Error added at CPU cycle 464841611, interval 10, pending count: 1
[DRAM_CYCLE_ERROR] Cycle-based error applied! address=0x562f16808 additional_latency=173500 cycles
Heartbeat CPU 0 instructions: 450000069 cycles: 471101145 heartbeat IPC: 0.8179 cumulative IPC: 0.9552 (Simulation time: 00 hr 59 min 33 sec)
Heartbeat CPU 0 instructions: 460000072 cycles: 486863882 heartbeat IPC: 0.6344 cumulative IPC: 0.9448 (Simulation time: 01 hr 01 min 39 sec)
Heartbeat CPU 0 instructions: 470000073 cycles: 504258941 heartbeat IPC: 0.5749 cumulative IPC: 0.9321 (Simulation time: 01 hr 03 min 37 sec)
Heartbeat CPU 0 instructions: 480000074 cycles: 510628645 heartbeat IPC: 1.57 cumulative IPC: 0.94 (Simulation time: 01 hr 04 min 42 sec)
[ERROR_CYCLE] Error added at CPU cycle 511325771, interval 11, pending count: 1
[DRAM_CYCLE_ERROR] Cycle-based error applied! address=0xda59ba40 additional_latency=173500 cycles
Heartbeat CPU 0 instructions: 490000078 cycles: 517754973 heartbeat IPC: 1.403 cumulative IPC: 0.9464 (Simulation time: 01 hr 05 min 56 sec)
Heartbeat CPU 0 instructions: 500000080 cycles: 526598413 heartbeat IPC: 1.131 cumulative IPC: 0.9495 (Simulation time: 01 hr 07 min 22 sec)
Heartbeat CPU 0 instructions: 510000083 cycles: 538147211 heartbeat IPC: 0.8659 cumulative IPC: 0.9477 (Simulation time: 01 hr 08 min 40 sec)
Heartbeat CPU 0 instructions: 520000087 cycles: 544577519 heartbeat IPC: 1.555 cumulative IPC: 0.9549 (Simulation time: 01 hr 09 min 38 sec)
Heartbeat CPU 0 instructions: 530000091 cycles: 551834997 heartbeat IPC: 1.378 cumulative IPC: 0.9604 (Simulation time: 01 hr 10 min 44 sec)
[ERROR_CYCLE] Error added at CPU cycle 557809932, interval 12, pending count: 1
[DRAM_CYCLE_ERROR] Cycle-based error applied! address=0xce5801904 additional_latency=173500 cycles
Heartbeat CPU 0 instructions: 540000092 cycles: 561412806 heartbeat IPC: 1.044 cumulative IPC: 0.9619 (Simulation time: 01 hr 12 min 00 sec)
Heartbeat CPU 0 instructions: 550000092 cycles: 573348204 heartbeat IPC: 0.8378 cumulative IPC: 0.9593 (Simulation time: 01 hr 13 min 39 sec)
Heartbeat CPU 0 instructions: 560000093 cycles: 579784425 heartbeat IPC: 1.554 cumulative IPC: 0.9659 (Simulation time: 01 hr 14 min 46 sec)
Heartbeat CPU 0 instructions: 570000093 cycles: 587052268 heartbeat IPC: 1.376 cumulative IPC: 0.971 (Simulation time: 01 hr 15 min 59 sec)
Heartbeat CPU 0 instructions: 580000093 cycles: 596659929 heartbeat IPC: 1.041 cumulative IPC: 0.9721 (Simulation time: 01 hr 17 min 24 sec)
[ERROR_CYCLE] Error added at CPU cycle 604294093, interval 13, pending count: 1
[DRAM_CYCLE_ERROR] Cycle-based error applied! address=0x8775ebdc0 additional_latency=173500 cycles
Heartbeat CPU 0 instructions: 590000093 cycles: 608304985 heartbeat IPC: 0.8587 cumulative IPC: 0.9699 (Simulation time: 01 hr 18 min 58 sec)
Heartbeat CPU 0 instructions: 600000094 cycles: 614815819 heartbeat IPC: 1.536 cumulative IPC: 0.9759 (Simulation time: 01 hr 20 min 06 sec)
Heartbeat CPU 0 instructions: 610000096 cycles: 622068183 heartbeat IPC: 1.379 cumulative IPC: 0.9806 (Simulation time: 01 hr 21 min 19 sec)
Heartbeat CPU 0 instructions: 620000096 cycles: 631970630 heartbeat IPC: 1.01 cumulative IPC: 0.9811 (Simulation time: 01 hr 22 min 46 sec)
Heartbeat CPU 0 instructions: 630000097 cycles: 643767569 heartbeat IPC: 0.8477 cumulative IPC: 0.9786 (Simulation time: 01 hr 24 min 13 sec)
Heartbeat CPU 0 instructions: 640000097 cycles: 650282588 heartbeat IPC: 1.535 cumulative IPC: 0.9842 (Simulation time: 01 hr 25 min 16 sec)
[ERROR_CYCLE] Error added at CPU cycle 650778254, interval 14, pending count: 1
[DRAM_CYCLE_ERROR] Cycle-based error applied! address=0xad47cf0c0 additional_latency=173500 cycles
Heartbeat CPU 0 instructions: 650000097 cycles: 657608380 heartbeat IPC: 1.365 cumulative IPC: 0.9884 (Simulation time: 01 hr 26 min 13 sec)
Heartbeat CPU 0 instructions: 660000099 cycles: 667567833 heartbeat IPC: 1.004 cumulative IPC: 0.9887 (Simulation time: 01 hr 27 min 30 sec)
Heartbeat CPU 0 instructions: 670000103 cycles: 679813499 heartbeat IPC: 0.8166 cumulative IPC: 0.9856 (Simulation time: 01 hr 29 min 06 sec)
Heartbeat CPU 0 instructions: 680000105 cycles: 686218974 heartbeat IPC: 1.561 cumulative IPC: 0.9909 (Simulation time: 01 hr 29 min 59 sec)
Heartbeat CPU 0 instructions: 690000106 cycles: 692646234 heartbeat IPC: 1.556 cumulative IPC: 0.9962 (Simulation time: 01 hr 30 min 43 sec)
[ERROR_CYCLE] Error added at CPU cycle 697262415, interval 15, pending count: 1
[DRAM_CYCLE_ERROR] Cycle-based error applied! address=0x3e0b8b5c0 additional_latency=173500 cycles
Heartbeat CPU 0 instructions: 700000110 cycles: 699056435 heartbeat IPC: 1.56 cumulative IPC: 1.001 (Simulation time: 01 hr 31 min 34 sec)
Heartbeat CPU 0 instructions: 710000110 cycles: 706486224 heartbeat IPC: 1.346 cumulative IPC: 1.005 (Simulation time: 01 hr 32 min 26 sec)
Heartbeat CPU 0 instructions: 720000110 cycles: 713325313 heartbeat IPC: 1.462 cumulative IPC: 1.009 (Simulation time: 01 hr 33 min 22 sec)
Heartbeat CPU 0 instructions: 730000110 cycles: 720179424 heartbeat IPC: 1.459 cumulative IPC: 1.014 (Simulation time: 01 hr 34 min 31 sec)
Heartbeat CPU 0 instructions: 740000110 cycles: 728062239 heartbeat IPC: 1.269 cumulative IPC: 1.016 (Simulation time: 01 hr 35 min 34 sec)
Heartbeat CPU 0 instructions: 750000110 cycles: 735885461 heartbeat IPC: 1.278 cumulative IPC: 1.019 (Simulation time: 01 hr 36 min 16 sec)
[ERROR_CYCLE] Error added at CPU cycle 743746576, interval 16, pending count: 1
Heartbeat CPU 0 instructions: 760000110 cycles: 743831209 heartbeat IPC: 1.259 cumulative IPC: 1.022 (Simulation time: 01 hr 36 min 59 sec)
[DRAM_CYCLE_ERROR] Cycle-based error applied! address=0x39ba71c4 additional_latency=173500 cycles
Heartbeat CPU 0 instructions: 770000110 cycles: 751731141 heartbeat IPC: 1.266 cumulative IPC: 1.024 (Simulation time: 01 hr 37 min 54 sec)
Heartbeat CPU 0 instructions: 780000114 cycles: 759665099 heartbeat IPC: 1.26 cumulative IPC: 1.027 (Simulation time: 01 hr 38 min 48 sec)
Heartbeat CPU 0 instructions: 790000115 cycles: 767671907 heartbeat IPC: 1.249 cumulative IPC: 1.029 (Simulation time: 01 hr 39 min 51 sec)
Heartbeat CPU 0 instructions: 800000115 cycles: 775564844 heartbeat IPC: 1.267 cumulative IPC: 1.032 (Simulation time: 01 hr 40 min 53 sec)
Heartbeat CPU 0 instructions: 810000115 cycles: 783519625 heartbeat IPC: 1.257 cumulative IPC: 1.034 (Simulation time: 01 hr 41 min 51 sec)
[ERROR_CYCLE] Error added at CPU cycle 790230737, interval 17, pending count: 1
[DRAM_CYCLE_ERROR] Cycle-based error applied! address=0x17146f828 additional_latency=173500 cycles
Heartbeat CPU 0 instructions: 820000115 cycles: 791595365 heartbeat IPC: 1.238 cumulative IPC: 1.036 (Simulation time: 01 hr 42 min 55 sec)
Heartbeat CPU 0 instructions: 830000115 cycles: 799389055 heartbeat IPC: 1.283 cumulative IPC: 1.038 (Simulation time: 01 hr 43 min 56 sec)
Heartbeat CPU 0 instructions: 840000119 cycles: 807598731 heartbeat IPC: 1.218 cumulative IPC: 1.04 (Simulation time: 01 hr 45 min 01 sec)
Heartbeat CPU 0 instructions: 850000122 cycles: 815467786 heartbeat IPC: 1.271 cumulative IPC: 1.042 (Simulation time: 01 hr 45 min 58 sec)
Heartbeat CPU 0 instructions: 860000126 cycles: 823681710 heartbeat IPC: 1.217 cumulative IPC: 1.044 (Simulation time: 01 hr 46 min 58 sec)
Heartbeat CPU 0 instructions: 870000127 cycles: 831600055 heartbeat IPC: 1.263 cumulative IPC: 1.046 (Simulation time: 01 hr 48 min 00 sec)
[ERROR_CYCLE] Error added at CPU cycle 836714899, interval 18, pending count: 1
[DRAM_CYCLE_ERROR] Cycle-based error applied! address=0x39205c860 additional_latency=173500 cycles
Heartbeat CPU 0 instructions: 880000130 cycles: 839717678 heartbeat IPC: 1.232 cumulative IPC: 1.048 (Simulation time: 01 hr 49 min 03 sec)
Heartbeat CPU 0 instructions: 890000130 cycles: 847909280 heartbeat IPC: 1.221 cumulative IPC: 1.05 (Simulation time: 01 hr 50 min 07 sec)
Heartbeat CPU 0 instructions: 900000134 cycles: 855784367 heartbeat IPC: 1.27 cumulative IPC: 1.052 (Simulation time: 01 hr 51 min 10 sec)
Heartbeat CPU 0 instructions: 910000134 cycles: 864252076 heartbeat IPC: 1.181 cumulative IPC: 1.053 (Simulation time: 01 hr 52 min 15 sec)
Heartbeat CPU 0 instructions: 920000138 cycles: 872323629 heartbeat IPC: 1.239 cumulative IPC: 1.055 (Simulation time: 01 hr 53 min 19 sec)
Heartbeat CPU 0 instructions: 930000142 cycles: 880437597 heartbeat IPC: 1.232 cumulative IPC: 1.056 (Simulation time: 01 hr 54 min 20 sec)
[ERROR_CYCLE] Error added at CPU cycle 883199060, interval 19, pending count: 1
[DRAM_CYCLE_ERROR] Cycle-based error applied! address=0xd4d1122e4 additional_latency=173500 cycles
Heartbeat CPU 0 instructions: 940000145 cycles: 888651097 heartbeat IPC: 1.218 cumulative IPC: 1.058 (Simulation time: 01 hr 55 min 23 sec)
Heartbeat CPU 0 instructions: 950000148 cycles: 896629023 heartbeat IPC: 1.253 cumulative IPC: 1.06 (Simulation time: 01 hr 56 min 24 sec)
Heartbeat CPU 0 instructions: 960000148 cycles: 904917279 heartbeat IPC: 1.207 cumulative IPC: 1.061 (Simulation time: 01 hr 57 min 27 sec)
Heartbeat CPU 0 instructions: 970000150 cycles: 912871432 heartbeat IPC: 1.257 cumulative IPC: 1.063 (Simulation time: 01 hr 58 min 27 sec)
Heartbeat CPU 0 instructions: 980000151 cycles: 921250799 heartbeat IPC: 1.193 cumulative IPC: 1.064 (Simulation time: 01 hr 59 min 30 sec)
Heartbeat CPU 0 instructions: 990000151 cycles: 929130985 heartbeat IPC: 1.269 cumulative IPC: 1.066 (Simulation time: 02 hr 00 min 30 sec)
[ERROR_CYCLE] Error added at CPU cycle 929683221, interval 20, pending count: 1
[DRAM_CYCLE_ERROR] Cycle-based error applied! address=0xd4d112d6c additional_latency=173500 cycles
Heartbeat CPU 0 instructions: 1000000152 cycles: 937499875 heartbeat IPC: 1.195 cumulative IPC: 1.067 (Simulation time: 02 hr 01 min 25 sec)
Heartbeat CPU 0 instructions: 1010000154 cycles: 945333168 heartbeat IPC: 1.277 cumulative IPC: 1.068 (Simulation time: 02 hr 02 min 27 sec)
Heartbeat CPU 0 instructions: 1020000155 cycles: 953600189 heartbeat IPC: 1.21 cumulative IPC: 1.07 (Simulation time: 02 hr 03 min 31 sec)
Heartbeat CPU 0 instructions: 1030000157 cycles: 961615661 heartbeat IPC: 1.248 cumulative IPC: 1.071 (Simulation time: 02 hr 04 min 34 sec)
Heartbeat CPU 0 instructions: 1040000157 cycles: 969953001 heartbeat IPC: 1.199 cumulative IPC: 1.072 (Simulation time: 02 hr 05 min 40 sec)
[ERROR_CYCLE] Error added at CPU cycle 976167382, interval 21, pending count: 1
[DRAM_CYCLE_ERROR] Cycle-based error applied! address=0x2ec4c9914 additional_latency=173500 cycles
Heartbeat CPU 0 instructions: 1050000157 cycles: 978072446 heartbeat IPC: 1.232 cumulative IPC: 1.074 (Simulation time: 02 hr 06 min 43 sec)
Heartbeat CPU 0 instructions: 1060000158 cycles: 985951687 heartbeat IPC: 1.269 cumulative IPC: 1.075 (Simulation time: 02 hr 07 min 46 sec)
Heartbeat CPU 0 instructions: 1070000161 cycles: 994222509 heartbeat IPC: 1.209 cumulative IPC: 1.076 (Simulation time: 02 hr 08 min 50 sec)
Heartbeat CPU 0 instructions: 1080000163 cycles: 1002285385 heartbeat IPC: 1.24 cumulative IPC: 1.078 (Simulation time: 02 hr 09 min 54 sec)
Heartbeat CPU 0 instructions: 1090000163 cycles: 1010384854 heartbeat IPC: 1.235 cumulative IPC: 1.079 (Simulation time: 02 hr 10 min 57 sec)
Heartbeat CPU 0 instructions: 1100000167 cycles: 1018327702 heartbeat IPC: 1.259 cumulative IPC: 1.08 (Simulation time: 02 hr 12 min 00 sec)
[ERROR_CYCLE] Error added at CPU cycle 1022651542, interval 22, pending count: 1
[DRAM_CYCLE_ERROR] Cycle-based error applied! address=0x76dd1f4a8 additional_latency=173500 cycles
Heartbeat CPU 0 instructions: 1110000170 cycles: 1026414957 heartbeat IPC: 1.237 cumulative IPC: 1.081 (Simulation time: 02 hr 13 min 04 sec)
Heartbeat CPU 0 instructions: 1120000170 cycles: 1034190177 heartbeat IPC: 1.286 cumulative IPC: 1.083 (Simulation time: 02 hr 14 min 05 sec)
Heartbeat CPU 0 instructions: 1130000172 cycles: 1042757410 heartbeat IPC: 1.167 cumulative IPC: 1.084 (Simulation time: 02 hr 15 min 13 sec)
Heartbeat CPU 0 instructions: 1140000172 cycles: 1050599680 heartbeat IPC: 1.275 cumulative IPC: 1.085 (Simulation time: 02 hr 16 min 27 sec)
Heartbeat CPU 0 instructions: 1150000172 cycles: 1056965095 heartbeat IPC: 1.571 cumulative IPC: 1.088 (Simulation time: 02 hr 17 min 14 sec)
Heartbeat CPU 0 instructions: 1160000172 cycles: 1063356640 heartbeat IPC: 1.565 cumulative IPC: 1.091 (Simulation time: 02 hr 18 min 05 sec)
[ERROR_CYCLE] Error added at CPU cycle 1069135703, interval 23, pending count: 1
[DRAM_CYCLE_ERROR] Cycle-based error applied! address=0x288132f4 additional_latency=173500 cycles
Heartbeat CPU 0 instructions: 1170000173 cycles: 1074027553 heartbeat IPC: 0.9371 cumulative IPC: 1.089 (Simulation time: 02 hr 19 min 21 sec)
Heartbeat CPU 0 instructions: 1180000173 cycles: 1089566397 heartbeat IPC: 0.6435 cumulative IPC: 1.083 (Simulation time: 02 hr 21 min 13 sec)
Heartbeat CPU 0 instructions: 1190000173 cycles: 1099225813 heartbeat IPC: 1.035 cumulative IPC: 1.083 (Simulation time: 02 hr 22 min 50 sec)
Heartbeat CPU 0 instructions: 1200000175 cycles: 1106320960 heartbeat IPC: 1.409 cumulative IPC: 1.085 (Simulation time: 02 hr 23 min 52 sec)
Heartbeat CPU 0 instructions: 1210000175 cycles: 1113411128 heartbeat IPC: 1.41 cumulative IPC: 1.087 (Simulation time: 02 hr 24 min 51 sec)
[ERROR_CYCLE] Error added at CPU cycle 1115619864, interval 24, pending count: 1
[DRAM_CYCLE_ERROR] Cycle-based error applied! address=0x19610d280 additional_latency=173500 cycles
Heartbeat CPU 0 instructions: 1220000176 cycles: 1120505474 heartbeat IPC: 1.41 cumulative IPC: 1.089 (Simulation time: 02 hr 25 min 55 sec)
Heartbeat CPU 0 instructions: 1230000177 cycles: 1136843262 heartbeat IPC: 0.6121 cumulative IPC: 1.082 (Simulation time: 02 hr 27 min 26 sec)
Heartbeat CPU 0 instructions: 1240000181 cycles: 1149108846 heartbeat IPC: 0.8153 cumulative IPC: 1.079 (Simulation time: 02 hr 28 min 31 sec)
Heartbeat CPU 0 instructions: 1250000185 cycles: 1157076540 heartbeat IPC: 1.255 cumulative IPC: 1.08 (Simulation time: 02 hr 29 min 22 sec)
[ERROR_CYCLE] Error added at CPU cycle 1162104025, interval 25, pending count: 1
[DRAM_CYCLE_ERROR] Cycle-based error applied! address=0xd2046d00 additional_latency=173500 cycles
Heartbeat CPU 0 instructions: 1260000185 cycles: 1164963760 heartbeat IPC: 1.268 cumulative IPC: 1.082 (Simulation time: 02 hr 30 min 18 sec)
Heartbeat CPU 0 instructions: 1270000185 cycles: 1172849242 heartbeat IPC: 1.268 cumulative IPC: 1.083 (Simulation time: 02 hr 31 min 11 sec)
Heartbeat CPU 0 instructions: 1280000185 cycles: 1180732608 heartbeat IPC: 1.268 cumulative IPC: 1.084 (Simulation time: 02 hr 31 min 59 sec)
Heartbeat CPU 0 instructions: 1290000185 cycles: 1188610219 heartbeat IPC: 1.269 cumulative IPC: 1.085 (Simulation time: 02 hr 32 min 40 sec)
Heartbeat CPU 0 instructions: 1300000186 cycles: 1196490501 heartbeat IPC: 1.269 cumulative IPC: 1.087 (Simulation time: 02 hr 33 min 21 sec)
Heartbeat CPU 0 instructions: 1310000188 cycles: 1204352399 heartbeat IPC: 1.272 cumulative IPC: 1.088 (Simulation time: 02 hr 34 min 02 sec)
[ERROR_CYCLE] Error added at CPU cycle 1208588186, interval 26, pending count: 1
[DRAM_CYCLE_ERROR] Cycle-based error applied! address=0xd6cbbb800 additional_latency=173500 cycles
Heartbeat CPU 0 instructions: 1320000191 cycles: 1212199338 heartbeat IPC: 1.274 cumulative IPC: 1.089 (Simulation time: 02 hr 34 min 52 sec)
Heartbeat CPU 0 instructions: 1330000194 cycles: 1220033861 heartbeat IPC: 1.276 cumulative IPC: 1.09 (Simulation time: 02 hr 35 min 49 sec)
Heartbeat CPU 0 instructions: 1340000195 cycles: 1227854430 heartbeat IPC: 1.279 cumulative IPC: 1.091 (Simulation time: 02 hr 36 min 48 sec)
Heartbeat CPU 0 instructions: 1350000198 cycles: 1235658680 heartbeat IPC: 1.281 cumulative IPC: 1.093 (Simulation time: 02 hr 37 min 36 sec)
Heartbeat CPU 0 instructions: 1360000198 cycles: 1243445560 heartbeat IPC: 1.284 cumulative IPC: 1.094 (Simulation time: 02 hr 38 min 21 sec)
Heartbeat CPU 0 instructions: 1370000200 cycles: 1251245619 heartbeat IPC: 1.282 cumulative IPC: 1.095 (Simulation time: 02 hr 39 min 16 sec)
[ERROR_CYCLE] Error added at CPU cycle 1255072347, interval 27, pending count: 1
[DRAM_CYCLE_ERROR] Cycle-based error applied! address=0x5ae7b2d00 additional_latency=173500 cycles
Heartbeat CPU 0 instructions: 1380000201 cycles: 1259035878 heartbeat IPC: 1.284 cumulative IPC: 1.096 (Simulation time: 02 hr 40 min 17 sec)
Heartbeat CPU 0 instructions: 1390000201 cycles: 1266830298 heartbeat IPC: 1.283 cumulative IPC: 1.097 (Simulation time: 02 hr 41 min 18 sec)
Heartbeat CPU 0 instructions: 1400000205 cycles: 1274628499 heartbeat IPC: 1.282 cumulative IPC: 1.098 (Simulation time: 02 hr 42 min 19 sec)
Heartbeat CPU 0 instructions: 1410000206 cycles: 1282428667 heartbeat IPC: 1.282 cumulative IPC: 1.099 (Simulation time: 02 hr 43 min 15 sec)
Heartbeat CPU 0 instructions: 1420000206 cycles: 1290242459 heartbeat IPC: 1.28 cumulative IPC: 1.101 (Simulation time: 02 hr 43 min 59 sec)
Heartbeat CPU 0 instructions: 1430000210 cycles: 1298057325 heartbeat IPC: 1.28 cumulative IPC: 1.102 (Simulation time: 02 hr 44 min 44 sec)
[ERROR_CYCLE] Error added at CPU cycle 1301556508, interval 28, pending count: 1
[DRAM_CYCLE_ERROR] Cycle-based error applied! address=0xc4c61b3c0 additional_latency=173500 cycles
Heartbeat CPU 0 instructions: 1440000213 cycles: 1305873344 heartbeat IPC: 1.279 cumulative IPC: 1.103 (Simulation time: 02 hr 45 min 31 sec)
Heartbeat CPU 0 instructions: 1450000214 cycles: 1313679369 heartbeat IPC: 1.281 cumulative IPC: 1.104 (Simulation time: 02 hr 46 min 15 sec)
Heartbeat CPU 0 instructions: 1460000214 cycles: 1321485021 heartbeat IPC: 1.281 cumulative IPC: 1.105 (Simulation time: 02 hr 46 min 59 sec)
Heartbeat CPU 0 instructions: 1470000214 cycles: 1329294469 heartbeat IPC: 1.281 cumulative IPC: 1.106 (Simulation time: 02 hr 47 min 45 sec)
Heartbeat CPU 0 instructions: 1480000214 cycles: 1337108407 heartbeat IPC: 1.28 cumulative IPC: 1.107 (Simulation time: 02 hr 48 min 26 sec)
Heartbeat CPU 0 instructions: 1490000216 cycles: 1344926128 heartbeat IPC: 1.279 cumulative IPC: 1.108 (Simulation time: 02 hr 49 min 10 sec)
[ERROR_CYCLE] Error added at CPU cycle 1348040670, interval 29, pending count: 1
[DRAM_CYCLE_ERROR] Cycle-based error applied! address=0xc4c61bbc0 additional_latency=173500 cycles
Heartbeat CPU 0 instructions: 1500000217 cycles: 1352743792 heartbeat IPC: 1.279 cumulative IPC: 1.109 (Simulation time: 02 hr 50 min 09 sec)
Heartbeat CPU 0 instructions: 1510000220 cycles: 1360561238 heartbeat IPC: 1.279 cumulative IPC: 1.11 (Simulation time: 02 hr 51 min 08 sec)
Heartbeat CPU 0 instructions: 1520000220 cycles: 1368367060 heartbeat IPC: 1.281 cumulative IPC: 1.111 (Simulation time: 02 hr 52 min 07 sec)
Heartbeat CPU 0 instructions: 1530000221 cycles: 1376178783 heartbeat IPC: 1.28 cumulative IPC: 1.112 (Simulation time: 02 hr 53 min 09 sec)
Heartbeat CPU 0 instructions: 1540000221 cycles: 1383981279 heartbeat IPC: 1.282 cumulative IPC: 1.113 (Simulation time: 02 hr 54 min 10 sec)
Heartbeat CPU 0 instructions: 1550000222 cycles: 1391776194 heartbeat IPC: 1.283 cumulative IPC: 1.114 (Simulation time: 02 hr 55 min 12 sec)
[ERROR_CYCLE] Error added at CPU cycle 1394524831, interval 30, pending count: 1
[DRAM_CYCLE_ERROR] Cycle-based error applied! address=0xfdee7d3c0 additional_latency=173500 cycles
Heartbeat CPU 0 instructions: 1560000222 cycles: 1399539860 heartbeat IPC: 1.288 cumulative IPC: 1.115 (Simulation time: 02 hr 56 min 14 sec)
Heartbeat CPU 0 instructions: 1570000222 cycles: 1407303328 heartbeat IPC: 1.288 cumulative IPC: 1.116 (Simulation time: 02 hr 57 min 15 sec)
Heartbeat CPU 0 instructions: 1580000222 cycles: 1415081005 heartbeat IPC: 1.286 cumulative IPC: 1.117 (Simulation time: 02 hr 58 min 16 sec)
Heartbeat CPU 0 instructions: 1590000225 cycles: 1422860352 heartbeat IPC: 1.285 cumulative IPC: 1.117 (Simulation time: 02 hr 59 min 17 sec)
Heartbeat CPU 0 instructions: 1600000229 cycles: 1430631381 heartbeat IPC: 1.287 cumulative IPC: 1.118 (Simulation time: 03 hr 00 min 18 sec)
Heartbeat CPU 0 instructions: 1610000233 cycles: 1438407419 heartbeat IPC: 1.286 cumulative IPC: 1.119 (Simulation time: 03 hr 01 min 19 sec)
[ERROR_CYCLE] Error added at CPU cycle 1441008992, interval 31, pending count: 1
[DRAM_CYCLE_ERROR] Cycle-based error applied! address=0xb2ad67cc0 additional_latency=173500 cycles
Heartbeat CPU 0 instructions: 1620000233 cycles: 1446175003 heartbeat IPC: 1.287 cumulative IPC: 1.12 (Simulation time: 03 hr 02 min 20 sec)
Heartbeat CPU 0 instructions: 1630000235 cycles: 1453951491 heartbeat IPC: 1.286 cumulative IPC: 1.121 (Simulation time: 03 hr 03 min 18 sec)
Heartbeat CPU 0 instructions: 1640000237 cycles: 1461730750 heartbeat IPC: 1.285 cumulative IPC: 1.122 (Simulation time: 03 hr 04 min 20 sec)
Heartbeat CPU 0 instructions: 1650000238 cycles: 1469514350 heartbeat IPC: 1.285 cumulative IPC: 1.123 (Simulation time: 03 hr 05 min 18 sec)
Heartbeat CPU 0 instructions: 1660000238 cycles: 1477309027 heartbeat IPC: 1.283 cumulative IPC: 1.124 (Simulation time: 03 hr 06 min 08 sec)
Heartbeat CPU 0 instructions: 1670000242 cycles: 1485110762 heartbeat IPC: 1.282 cumulative IPC: 1.124 (Simulation time: 03 hr 07 min 02 sec)
[ERROR_CYCLE] Error added at CPU cycle 1487493153, interval 32, pending count: 1
[DRAM_CYCLE_ERROR] Cycle-based error applied! address=0x47f51a880 additional_latency=173500 cycles
Heartbeat CPU 0 instructions: 1680000242 cycles: 1492923290 heartbeat IPC: 1.28 cumulative IPC: 1.125 (Simulation time: 03 hr 08 min 03 sec)
Heartbeat CPU 0 instructions: 1690000242 cycles: 1500742247 heartbeat IPC: 1.279 cumulative IPC: 1.126 (Simulation time: 03 hr 08 min 56 sec)
Heartbeat CPU 0 instructions: 1700000242 cycles: 1508552689 heartbeat IPC: 1.28 cumulative IPC: 1.127 (Simulation time: 03 hr 09 min 57 sec)
Heartbeat CPU 0 instructions: 1710000242 cycles: 1516365106 heartbeat IPC: 1.28 cumulative IPC: 1.128 (Simulation time: 03 hr 10 min 59 sec)
Heartbeat CPU 0 instructions: 1720000243 cycles: 1524179393 heartbeat IPC: 1.28 cumulative IPC: 1.128 (Simulation time: 03 hr 12 min 01 sec)
Heartbeat CPU 0 instructions: 1730000244 cycles: 1531992667 heartbeat IPC: 1.28 cumulative IPC: 1.129 (Simulation time: 03 hr 13 min 02 sec)
[ERROR_CYCLE] Error added at CPU cycle 1533977313, interval 33, pending count: 1
[DRAM_CYCLE_ERROR] Cycle-based error applied! address=0xe03b14d40 additional_latency=173500 cycles
Heartbeat CPU 0 instructions: 1740000244 cycles: 1539804486 heartbeat IPC: 1.28 cumulative IPC: 1.13 (Simulation time: 03 hr 13 min 46 sec)
Heartbeat CPU 0 instructions: 1750000247 cycles: 1547616703 heartbeat IPC: 1.28 cumulative IPC: 1.131 (Simulation time: 03 hr 14 min 38 sec)
Heartbeat CPU 0 instructions: 1760000248 cycles: 1555429252 heartbeat IPC: 1.28 cumulative IPC: 1.132 (Simulation time: 03 hr 15 min 33 sec)
Heartbeat CPU 0 instructions: 1770000248 cycles: 1563247412 heartbeat IPC: 1.279 cumulative IPC: 1.132 (Simulation time: 03 hr 16 min 33 sec)
Heartbeat CPU 0 instructions: 1780000248 cycles: 1571060755 heartbeat IPC: 1.28 cumulative IPC: 1.133 (Simulation time: 03 hr 17 min 28 sec)
Heartbeat CPU 0 instructions: 1790000249 cycles: 1578884193 heartbeat IPC: 1.278 cumulative IPC: 1.134 (Simulation time: 03 hr 18 min 13 sec)
[ERROR_CYCLE] Error added at CPU cycle 1580461474, interval 34, pending count: 1
[DRAM_CYCLE_ERROR] Cycle-based error applied! address=0x64f49c480 additional_latency=173500 cycles
Heartbeat CPU 0 instructions: 1800000251 cycles: 1586696591 heartbeat IPC: 1.28 cumulative IPC: 1.134 (Simulation time: 03 hr 19 min 13 sec)
Heartbeat CPU 0 instructions: 1810000252 cycles: 1594509404 heartbeat IPC: 1.28 cumulative IPC: 1.135 (Simulation time: 03 hr 20 min 13 sec)
Heartbeat CPU 0 instructions: 1820000253 cycles: 1602325612 heartbeat IPC: 1.279 cumulative IPC: 1.136 (Simulation time: 03 hr 21 min 10 sec)
Heartbeat CPU 0 instructions: 1830000253 cycles: 1609633487 heartbeat IPC: 1.368 cumulative IPC: 1.137 (Simulation time: 03 hr 22 min 00 sec)
Heartbeat CPU 0 instructions: 1840000256 cycles: 1615938459 heartbeat IPC: 1.586 cumulative IPC: 1.139 (Simulation time: 03 hr 22 min 49 sec)
Heartbeat CPU 0 instructions: 1850000259 cycles: 1622393990 heartbeat IPC: 1.549 cumulative IPC: 1.14 (Simulation time: 03 hr 23 min 37 sec)
[ERROR_CYCLE] Error added at CPU cycle 1626945635, interval 35, pending count: 1
[DRAM_CYCLE_ERROR] Cycle-based error applied! address=0x9e1b82140 additional_latency=173500 cycles
Heartbeat CPU 0 instructions: 1860000260 cycles: 1628924040 heartbeat IPC: 1.531 cumulative IPC: 1.142 (Simulation time: 03 hr 24 min 35 sec)
Heartbeat CPU 0 instructions: 1870000261 cycles: 1635498028 heartbeat IPC: 1.521 cumulative IPC: 1.143 (Simulation time: 03 hr 25 min 28 sec)
Heartbeat CPU 0 instructions: 1880000262 cycles: 1642195408 heartbeat IPC: 1.493 cumulative IPC: 1.145 (Simulation time: 03 hr 26 min 09 sec)
Heartbeat CPU 0 instructions: 1890000262 cycles: 1649188082 heartbeat IPC: 1.43 cumulative IPC: 1.146 (Simulation time: 03 hr 26 min 55 sec)
Heartbeat CPU 0 instructions: 1900000263 cycles: 1654808181 heartbeat IPC: 1.779 cumulative IPC: 1.148 (Simulation time: 03 hr 27 min 49 sec)
Heartbeat CPU 0 instructions: 1910000263 cycles: 1660381165 heartbeat IPC: 1.794 cumulative IPC: 1.15 (Simulation time: 03 hr 28 min 42 sec)
Heartbeat CPU 0 instructions: 1920000264 cycles: 1666088821 heartbeat IPC: 1.752 cumulative IPC: 1.152 (Simulation time: 03 hr 29 min 36 sec)
Heartbeat CPU 0 instructions: 1930000266 cycles: 1671708895 heartbeat IPC: 1.779 cumulative IPC: 1.155 (Simulation time: 03 hr 30 min 29 sec)
[ERROR_CYCLE] Error added at CPU cycle 1673429796, interval 36, pending count: 1
[DRAM_CYCLE_ERROR] Cycle-based error applied! address=0x1fdc0e800 additional_latency=173500 cycles
Heartbeat CPU 0 instructions: 1940000269 cycles: 1677304794 heartbeat IPC: 1.787 cumulative IPC: 1.157 (Simulation time: 03 hr 31 min 22 sec)
Heartbeat CPU 0 instructions: 1950000269 cycles: 1682950180 heartbeat IPC: 1.771 cumulative IPC: 1.159 (Simulation time: 03 hr 32 min 14 sec)
Heartbeat CPU 0 instructions: 1960000270 cycles: 1688562169 heartbeat IPC: 1.782 cumulative IPC: 1.161 (Simulation time: 03 hr 33 min 03 sec)
Heartbeat CPU 0 instructions: 1970000274 cycles: 1694182860 heartbeat IPC: 1.779 cumulative IPC: 1.163 (Simulation time: 03 hr 33 min 38 sec)
Heartbeat CPU 0 instructions: 1980000277 cycles: 1699775032 heartbeat IPC: 1.788 cumulative IPC: 1.165 (Simulation time: 03 hr 34 min 17 sec)
Heartbeat CPU 0 instructions: 1990000279 cycles: 1705332884 heartbeat IPC: 1.799 cumulative IPC: 1.167 (Simulation time: 03 hr 34 min 55 sec)

=== ERROR PAGE STATISTICS ===
Mode: CYCLE
Error Cycle Interval: 46484161 CPU cycles
Total Error Accesses: 36
==============================
Simulation finished CPU 0 instructions: 1999999905 cycles: 1714550394 cumulative IPC: 1.166 (Simulation time: 03 hr 35 min 44 sec)
Simulation complete CPU 0 instructions: 1999999905 cycles: 1714550394 cumulative IPC: 1.166 (Simulation time: 03 hr 35 min 44 sec)

ChampSim completed all CPUs

=== Simulation ===
CPU 0 runs test_traces/621.wrf_s-6673B.champsimtrace.xz

Region of Interest Statistics

CPU 0 cumulative IPC: 1.166 instructions: 1999999905 cycles: 1714550394
CPU 0 Branch Prediction Accuracy: 93.25% MPKI: 6.743 Average ROB Occupancy at Mispredict: 68.22
Branch type MPKI
BRANCH_DIRECT_JUMP: 0.00112
BRANCH_INDIRECT: 6.95e-05
BRANCH_CONDITIONAL: 5.98
BRANCH_DIRECT_CALL: 0.002089
BRANCH_INDIRECT_CALL: 2e-06
BRANCH_RETURN: 0.7595

cpu0->cpu0_STLB TOTAL        ACCESS:    1304368 HIT:    1183759 MISS:     120609 MSHR_MERGE:          0
cpu0->cpu0_STLB LOAD         ACCESS:    1304368 HIT:    1183759 MISS:     120609 MSHR_MERGE:          0
cpu0->cpu0_STLB RFO          ACCESS:          0 HIT:          0 MISS:          0 MSHR_MERGE:          0
cpu0->cpu0_STLB PREFETCH     ACCESS:          0 HIT:          0 MISS:          0 MSHR_MERGE:          0
cpu0->cpu0_STLB WRITE        ACCESS:          0 HIT:          0 MISS:          0 MSHR_MERGE:          0
cpu0->cpu0_STLB TRANSLATION  ACCESS:          0 HIT:          0 MISS:          0 MSHR_MERGE:          0
cpu0->cpu0_STLB PREFETCH REQUESTED:          0 ISSUED:          0 USEFUL:          0 USELESS:          0
cpu0->cpu0_STLB AVERAGE MISS LATENCY: 267.6 cycles
cpu0->cpu0_L2C TOTAL        ACCESS:   24598544 HIT:   12898550 MISS:   11699994 MSHR_MERGE:          0
cpu0->cpu0_L2C LOAD         ACCESS:   13804931 HIT:    4632353 MISS:    9172578 MSHR_MERGE:          0
cpu0->cpu0_L2C RFO          ACCESS:    3870237 HIT:    1347004 MISS:    2523233 MSHR_MERGE:          0
cpu0->cpu0_L2C PREFETCH     ACCESS:          0 HIT:          0 MISS:          0 MSHR_MERGE:          0
cpu0->cpu0_L2C WRITE        ACCESS:    6923376 HIT:    6919193 MISS:       4183 MSHR_MERGE:          0
cpu0->cpu0_L2C TRANSLATION  ACCESS:          0 HIT:          0 MISS:          0 MSHR_MERGE:          0
cpu0->cpu0_L2C PREFETCH REQUESTED:          0 ISSUED:          0 USEFUL:          0 USELESS:          0
cpu0->cpu0_L2C AVERAGE MISS LATENCY: 111.2 cycles
cpu0->cpu0_L1I TOTAL        ACCESS:  174631268 HIT:  173503066 MISS:    1128202 MSHR_MERGE:     425907
cpu0->cpu0_L1I LOAD         ACCESS:  174631268 HIT:  173503066 MISS:    1128202 MSHR_MERGE:     425907
cpu0->cpu0_L1I RFO          ACCESS:          0 HIT:          0 MISS:          0 MSHR_MERGE:          0
cpu0->cpu0_L1I PREFETCH     ACCESS:          0 HIT:          0 MISS:          0 MSHR_MERGE:          0
cpu0->cpu0_L1I WRITE        ACCESS:          0 HIT:          0 MISS:          0 MSHR_MERGE:          0
cpu0->cpu0_L1I TRANSLATION  ACCESS:          0 HIT:          0 MISS:          0 MSHR_MERGE:          0
cpu0->cpu0_L1I PREFETCH REQUESTED:          0 ISSUED:          0 USEFUL:          0 USELESS:          0
cpu0->cpu0_L1I AVERAGE MISS LATENCY: 13.82 cycles
cpu0->cpu0_L1D TOTAL        ACCESS:  520556523 HIT:  483404914 MISS:   37151609 MSHR_MERGE:   20178537
cpu0->cpu0_L1D LOAD         ACCESS:  407434035 HIT:  384017706 MISS:   23416329 MSHR_MERGE:   10313579
cpu0->cpu0_L1D RFO          ACCESS:          0 HIT:          0 MISS:          0 MSHR_MERGE:          0
cpu0->cpu0_L1D PREFETCH     ACCESS:          0 HIT:          0 MISS:          0 MSHR_MERGE:          0
cpu0->cpu0_L1D WRITE        ACCESS:  113122488 HIT:   99387208 MISS:   13735280 MSHR_MERGE:    9864958
cpu0->cpu0_L1D TRANSLATION  ACCESS:          0 HIT:          0 MISS:          0 MSHR_MERGE:          0
cpu0->cpu0_L1D PREFETCH REQUESTED:          0 ISSUED:          0 USEFUL:          0 USELESS:          0
cpu0->cpu0_L1D AVERAGE MISS LATENCY: 85.23 cycles
cpu0->cpu0_ITLB TOTAL        ACCESS:  150103872 HIT:  150100440 MISS:       3432 MSHR_MERGE:       2427
cpu0->cpu0_ITLB LOAD         ACCESS:  150103872 HIT:  150100440 MISS:       3432 MSHR_MERGE:       2427
cpu0->cpu0_ITLB RFO          ACCESS:          0 HIT:          0 MISS:          0 MSHR_MERGE:          0
cpu0->cpu0_ITLB PREFETCH     ACCESS:          0 HIT:          0 MISS:          0 MSHR_MERGE:          0
cpu0->cpu0_ITLB WRITE        ACCESS:          0 HIT:          0 MISS:          0 MSHR_MERGE:          0
cpu0->cpu0_ITLB TRANSLATION  ACCESS:          0 HIT:          0 MISS:          0 MSHR_MERGE:          0
cpu0->cpu0_ITLB PREFETCH REQUESTED:          0 ISSUED:          0 USEFUL:          0 USELESS:          0
cpu0->cpu0_ITLB AVERAGE MISS LATENCY: 413.9 cycles
cpu0->cpu0_DTLB TOTAL        ACCESS:  475773784 HIT:  473783066 MISS:    1990718 MSHR_MERGE:     687355
cpu0->cpu0_DTLB LOAD         ACCESS:  475773784 HIT:  473783066 MISS:    1990718 MSHR_MERGE:     687355
cpu0->cpu0_DTLB RFO          ACCESS:          0 HIT:          0 MISS:          0 MSHR_MERGE:          0
cpu0->cpu0_DTLB PREFETCH     ACCESS:          0 HIT:          0 MISS:          0 MSHR_MERGE:          0
cpu0->cpu0_DTLB WRITE        ACCESS:          0 HIT:          0 MISS:          0 MSHR_MERGE:          0
cpu0->cpu0_DTLB TRANSLATION  ACCESS:          0 HIT:          0 MISS:          0 MSHR_MERGE:          0
cpu0->cpu0_DTLB PREFETCH REQUESTED:          0 ISSUED:          0 USEFUL:          0 USELESS:          0
cpu0->cpu0_DTLB AVERAGE MISS LATENCY: 29.58 cycles
cpu0->LLC TOTAL        ACCESS:   16646775 HIT:    6522349 MISS:   10124426 MSHR_MERGE:          0
cpu0->LLC LOAD         ACCESS:    9172578 HIT:    1173492 MISS:    7999086 MSHR_MERGE:          0
cpu0->LLC RFO          ACCESS:    2523233 HIT:     411384 MISS:    2111849 MSHR_MERGE:          0
cpu0->LLC PREFETCH     ACCESS:          0 HIT:          0 MISS:          0 MSHR_MERGE:          0
cpu0->LLC WRITE        ACCESS:    4950964 HIT:    4937473 MISS:      13491 MSHR_MERGE:          0
cpu0->LLC TRANSLATION  ACCESS:          0 HIT:          0 MISS:          0 MSHR_MERGE:          0
cpu0->LLC PREFETCH REQUESTED:          0 ISSUED:          0 USEFUL:          0 USELESS:          0
cpu0->LLC AVERAGE MISS LATENCY: 110.2 cycles

DRAM Statistics

Channel 0 RQ ROW_BUFFER_HIT:       5211
  ROW_BUFFER_MISS:    5171245
  AVG DBUS CONGESTED CYCLE: 9.831
Channel 0 WQ ROW_BUFFER_HIT:     395818
  ROW_BUFFER_MISS:    1640121
  FULL:        278
Channel 0 REFRESHES ISSUED:     142870

Channel 1 RQ ROW_BUFFER_HIT:       5018
  ROW_BUFFER_MISS:    5169218
  AVG DBUS CONGESTED CYCLE: 9.85
Channel 1 WQ ROW_BUFFER_HIT:     395230
  ROW_BUFFER_MISS:    1641051
  FULL:         56
Channel 1 REFRESHES ISSUED:     142870
