[VMEM] WARNING: physical memory size is smaller than virtual memory size.

*** ChampSim Multicore Out-of-Order Simulator ***
Warmup Instructions: 0
Simulation Instructions: 9223372036854775807
Number of CPUs: 1
Page size: 4096

Off-chip DRAM Size: 64 GiB Channels: 2 Width: 32-bit Data Rate: 4807 MT/s
[ERROR_PAGE_MANAGER] Error latency: 173500 
[ERROR_PAGE_MANAGER] Random seed: 54321 (fixed for preload reproducibility)
[ERROR_PAGE_MANAGER] Cycle-based error modeling enabled
[ERROR_PAGE_MANAGER] Errors per interval: 1
[ERROR_PAGE_MANAGER] Error cycle interval: 46484161 cycles

=== ERROR PAGE STATISTICS ===
Mode: CYCLE
Error Cycle Interval: 46484161 CPU cycles
Total Error Accesses: 0
==============================
Warmup finished CPU 0 instructions: 0 cycles: 1 cumulative IPC: 0 (Simulation time: 00 hr 00 min 01 sec)
Warmup complete CPU 0 instructions: 0 cycles: 1 cumulative IPC: 0 (Simulation time: 00 hr 00 min 01 sec)
Heartbeat CPU 0 instructions: 10000002 cycles: 5278447 heartbeat IPC: 1.894 cumulative IPC: 1.894 (Simulation time: 00 hr 01 min 06 sec)
Heartbeat CPU 0 instructions: 20000002 cycles: 10685910 heartbeat IPC: 1.849 cumulative IPC: 1.872 (Simulation time: 00 hr 02 min 12 sec)
Heartbeat CPU 0 instructions: 30000006 cycles: 16063120 heartbeat IPC: 1.86 cumulative IPC: 1.868 (Simulation time: 00 hr 03 min 18 sec)
Heartbeat CPU 0 instructions: 40000007 cycles: 21446213 heartbeat IPC: 1.858 cumulative IPC: 1.865 (Simulation time: 00 hr 04 min 24 sec)
Heartbeat CPU 0 instructions: 50000007 cycles: 26809429 heartbeat IPC: 1.865 cumulative IPC: 1.865 (Simulation time: 00 hr 05 min 30 sec)
Heartbeat CPU 0 instructions: 60000007 cycles: 34081372 heartbeat IPC: 1.375 cumulative IPC: 1.76 (Simulation time: 00 hr 06 min 49 sec)
Heartbeat CPU 0 instructions: 70000007 cycles: 41637030 heartbeat IPC: 1.324 cumulative IPC: 1.681 (Simulation time: 00 hr 08 min 11 sec)
[ERROR_CYCLE] Error added at CPU cycle 46484161, interval 1, pending count: 1
[DRAM_CYCLE_ERROR] Cycle-based error applied! address=0x180560e70 additional_latency=173500 cycles
Heartbeat CPU 0 instructions: 80000009 cycles: 49080939 heartbeat IPC: 1.343 cumulative IPC: 1.63 (Simulation time: 00 hr 09 min 32 sec)
Heartbeat CPU 0 instructions: 90000010 cycles: 56651169 heartbeat IPC: 1.321 cumulative IPC: 1.589 (Simulation time: 00 hr 10 min 53 sec)
Heartbeat CPU 0 instructions: 100000013 cycles: 64153613 heartbeat IPC: 1.333 cumulative IPC: 1.559 (Simulation time: 00 hr 12 min 15 sec)
Heartbeat CPU 0 instructions: 110000016 cycles: 71615040 heartbeat IPC: 1.34 cumulative IPC: 1.536 (Simulation time: 00 hr 13 min 36 sec)
Heartbeat CPU 0 instructions: 120000019 cycles: 79022767 heartbeat IPC: 1.35 cumulative IPC: 1.519 (Simulation time: 00 hr 14 min 34 sec)
Heartbeat CPU 0 instructions: 130000022 cycles: 86481559 heartbeat IPC: 1.341 cumulative IPC: 1.503 (Simulation time: 00 hr 15 min 36 sec)
[ERROR_CYCLE] Error added at CPU cycle 92968322, interval 2, pending count: 1
[DRAM_CYCLE_ERROR] Cycle-based error applied! address=0x8c2a19200 additional_latency=173500 cycles
Heartbeat CPU 0 instructions: 140000022 cycles: 93979703 heartbeat IPC: 1.334 cumulative IPC: 1.49 (Simulation time: 00 hr 16 min 46 sec)
Heartbeat CPU 0 instructions: 150000024 cycles: 101407438 heartbeat IPC: 1.346 cumulative IPC: 1.479 (Simulation time: 00 hr 17 min 53 sec)
Heartbeat CPU 0 instructions: 160000024 cycles: 108540946 heartbeat IPC: 1.402 cumulative IPC: 1.474 (Simulation time: 00 hr 19 min 03 sec)
Heartbeat CPU 0 instructions: 170000025 cycles: 115678683 heartbeat IPC: 1.401 cumulative IPC: 1.47 (Simulation time: 00 hr 20 min 22 sec)
Heartbeat CPU 0 instructions: 180000026 cycles: 122867432 heartbeat IPC: 1.391 cumulative IPC: 1.465 (Simulation time: 00 hr 21 min 41 sec)
Heartbeat CPU 0 instructions: 190000027 cycles: 129942957 heartbeat IPC: 1.413 cumulative IPC: 1.462 (Simulation time: 00 hr 23 min 00 sec)
Heartbeat CPU 0 instructions: 200000029 cycles: 137152355 heartbeat IPC: 1.387 cumulative IPC: 1.458 (Simulation time: 00 hr 24 min 20 sec)
[ERROR_CYCLE] Error added at CPU cycle 139452483, interval 3, pending count: 1
[DRAM_CYCLE_ERROR] Cycle-based error applied! address=0x4ec8d2b00 additional_latency=173500 cycles
Heartbeat CPU 0 instructions: 210000030 cycles: 144290227 heartbeat IPC: 1.401 cumulative IPC: 1.455 (Simulation time: 00 hr 25 min 16 sec)
Heartbeat CPU 0 instructions: 220000032 cycles: 151385538 heartbeat IPC: 1.409 cumulative IPC: 1.453 (Simulation time: 00 hr 26 min 11 sec)
Heartbeat CPU 0 instructions: 230000034 cycles: 158509236 heartbeat IPC: 1.404 cumulative IPC: 1.451 (Simulation time: 00 hr 27 min 18 sec)
Heartbeat CPU 0 instructions: 240000034 cycles: 165685607 heartbeat IPC: 1.393 cumulative IPC: 1.449 (Simulation time: 00 hr 28 min 37 sec)
Heartbeat CPU 0 instructions: 250000034 cycles: 172898483 heartbeat IPC: 1.386 cumulative IPC: 1.446 (Simulation time: 00 hr 29 min 57 sec)
Heartbeat CPU 0 instructions: 260000037 cycles: 180064849 heartbeat IPC: 1.395 cumulative IPC: 1.444 (Simulation time: 00 hr 31 min 16 sec)
[ERROR_CYCLE] Error added at CPU cycle 185936644, interval 4, pending count: 1
[DRAM_CYCLE_ERROR] Cycle-based error applied! address=0xd3c11f880 additional_latency=173500 cycles
Heartbeat CPU 0 instructions: 270000041 cycles: 187237500 heartbeat IPC: 1.394 cumulative IPC: 1.442 (Simulation time: 00 hr 32 min 36 sec)
Heartbeat CPU 0 instructions: 280000041 cycles: 194348737 heartbeat IPC: 1.406 cumulative IPC: 1.441 (Simulation time: 00 hr 33 min 55 sec)
Heartbeat CPU 0 instructions: 290000041 cycles: 201530393 heartbeat IPC: 1.392 cumulative IPC: 1.439 (Simulation time: 00 hr 35 min 15 sec)
Heartbeat CPU 0 instructions: 300000044 cycles: 208638768 heartbeat IPC: 1.407 cumulative IPC: 1.438 (Simulation time: 00 hr 36 min 29 sec)
Heartbeat CPU 0 instructions: 310000045 cycles: 215727076 heartbeat IPC: 1.411 cumulative IPC: 1.437 (Simulation time: 00 hr 37 min 19 sec)
Heartbeat CPU 0 instructions: 320000048 cycles: 222830477 heartbeat IPC: 1.408 cumulative IPC: 1.436 (Simulation time: 00 hr 38 min 26 sec)
Heartbeat CPU 0 instructions: 330000049 cycles: 229934037 heartbeat IPC: 1.408 cumulative IPC: 1.435 (Simulation time: 00 hr 39 min 44 sec)
[ERROR_CYCLE] Error added at CPU cycle 232420805, interval 5, pending count: 1
[DRAM_CYCLE_ERROR] Cycle-based error applied! address=0xbb46a6740 additional_latency=173500 cycles
Heartbeat CPU 0 instructions: 340000051 cycles: 237139354 heartbeat IPC: 1.388 cumulative IPC: 1.434 (Simulation time: 00 hr 41 min 01 sec)
Heartbeat CPU 0 instructions: 350000052 cycles: 244271539 heartbeat IPC: 1.402 cumulative IPC: 1.433 (Simulation time: 00 hr 42 min 18 sec)
Heartbeat CPU 0 instructions: 360000056 cycles: 251385215 heartbeat IPC: 1.406 cumulative IPC: 1.432 (Simulation time: 00 hr 43 min 34 sec)
Heartbeat CPU 0 instructions: 370000056 cycles: 258493367 heartbeat IPC: 1.407 cumulative IPC: 1.431 (Simulation time: 00 hr 44 min 43 sec)
Heartbeat CPU 0 instructions: 380000057 cycles: 265602748 heartbeat IPC: 1.407 cumulative IPC: 1.431 (Simulation time: 00 hr 45 min 52 sec)
Heartbeat CPU 0 instructions: 390000057 cycles: 272807412 heartbeat IPC: 1.388 cumulative IPC: 1.43 (Simulation time: 00 hr 47 min 09 sec)
[ERROR_CYCLE] Error added at CPU cycle 278904966, interval 6, pending count: 1
[DRAM_CYCLE_ERROR] Cycle-based error applied! address=0xdc371a6c0 additional_latency=173500 cycles
Heartbeat CPU 0 instructions: 400000057 cycles: 279895222 heartbeat IPC: 1.411 cumulative IPC: 1.429 (Simulation time: 00 hr 48 min 25 sec)
Heartbeat CPU 0 instructions: 410000058 cycles: 286992298 heartbeat IPC: 1.409 cumulative IPC: 1.429 (Simulation time: 00 hr 49 min 44 sec)
Heartbeat CPU 0 instructions: 420000060 cycles: 294077122 heartbeat IPC: 1.411 cumulative IPC: 1.428 (Simulation time: 00 hr 51 min 02 sec)
Heartbeat CPU 0 instructions: 430000062 cycles: 301357025 heartbeat IPC: 1.374 cumulative IPC: 1.427 (Simulation time: 00 hr 52 min 21 sec)
Heartbeat CPU 0 instructions: 440000063 cycles: 308492526 heartbeat IPC: 1.401 cumulative IPC: 1.426 (Simulation time: 00 hr 53 min 38 sec)
Heartbeat CPU 0 instructions: 450000065 cycles: 315659831 heartbeat IPC: 1.395 cumulative IPC: 1.426 (Simulation time: 00 hr 54 min 56 sec)
Heartbeat CPU 0 instructions: 460000067 cycles: 322770287 heartbeat IPC: 1.406 cumulative IPC: 1.425 (Simulation time: 00 hr 56 min 03 sec)
[ERROR_CYCLE] Error added at CPU cycle 325389128, interval 7, pending count: 1
[DRAM_CYCLE_ERROR] Cycle-based error applied! address=0xad969e880 additional_latency=173500 cycles
Heartbeat CPU 0 instructions: 470000069 cycles: 329845405 heartbeat IPC: 1.413 cumulative IPC: 1.425 (Simulation time: 00 hr 57 min 04 sec)
Heartbeat CPU 0 instructions: 480000069 cycles: 336958971 heartbeat IPC: 1.406 cumulative IPC: 1.425 (Simulation time: 00 hr 57 min 59 sec)
Heartbeat CPU 0 instructions: 490000069 cycles: 344044243 heartbeat IPC: 1.411 cumulative IPC: 1.424 (Simulation time: 00 hr 59 min 10 sec)
Heartbeat CPU 0 instructions: 500000072 cycles: 351232146 heartbeat IPC: 1.391 cumulative IPC: 1.424 (Simulation time: 01 hr 00 min 29 sec)
Heartbeat CPU 0 instructions: 510000074 cycles: 358347978 heartbeat IPC: 1.405 cumulative IPC: 1.423 (Simulation time: 01 hr 01 min 48 sec)
Heartbeat CPU 0 instructions: 520000076 cycles: 365540473 heartbeat IPC: 1.39 cumulative IPC: 1.423 (Simulation time: 01 hr 03 min 07 sec)
[ERROR_CYCLE] Error added at CPU cycle 371873289, interval 8, pending count: 1
[DRAM_CYCLE_ERROR] Cycle-based error applied! address=0x31d0ed3c0 additional_latency=173500 cycles
Heartbeat CPU 0 instructions: 530000076 cycles: 372702626 heartbeat IPC: 1.396 cumulative IPC: 1.422 (Simulation time: 01 hr 04 min 26 sec)
Heartbeat CPU 0 instructions: 540000078 cycles: 379844197 heartbeat IPC: 1.4 cumulative IPC: 1.422 (Simulation time: 01 hr 05 min 45 sec)
Heartbeat CPU 0 instructions: 550000081 cycles: 387009521 heartbeat IPC: 1.396 cumulative IPC: 1.421 (Simulation time: 01 hr 07 min 04 sec)
Heartbeat CPU 0 instructions: 560000083 cycles: 394086523 heartbeat IPC: 1.413 cumulative IPC: 1.421 (Simulation time: 01 hr 08 min 15 sec)
Heartbeat CPU 0 instructions: 570000085 cycles: 401173770 heartbeat IPC: 1.411 cumulative IPC: 1.421 (Simulation time: 01 hr 09 min 14 sec)
Heartbeat CPU 0 instructions: 580000086 cycles: 408284239 heartbeat IPC: 1.406 cumulative IPC: 1.421 (Simulation time: 01 hr 10 min 14 sec)
Heartbeat CPU 0 instructions: 590000089 cycles: 415357546 heartbeat IPC: 1.414 cumulative IPC: 1.42 (Simulation time: 01 hr 11 min 17 sec)
[ERROR_CYCLE] Error added at CPU cycle 418357450, interval 9, pending count: 1
[DRAM_CYCLE_ERROR] Cycle-based error applied! address=0xa4a6d2808 additional_latency=173500 cycles
Heartbeat CPU 0 instructions: 600000093 cycles: 422456092 heartbeat IPC: 1.409 cumulative IPC: 1.42 (Simulation time: 01 hr 12 min 25 sec)
Heartbeat CPU 0 instructions: 610000093 cycles: 429605672 heartbeat IPC: 1.399 cumulative IPC: 1.42 (Simulation time: 01 hr 13 min 44 sec)
Heartbeat CPU 0 instructions: 620000097 cycles: 436813909 heartbeat IPC: 1.387 cumulative IPC: 1.419 (Simulation time: 01 hr 15 min 04 sec)
Heartbeat CPU 0 instructions: 630000101 cycles: 443948593 heartbeat IPC: 1.402 cumulative IPC: 1.419 (Simulation time: 01 hr 16 min 23 sec)
Heartbeat CPU 0 instructions: 640000105 cycles: 451123139 heartbeat IPC: 1.394 cumulative IPC: 1.419 (Simulation time: 01 hr 17 min 32 sec)
Heartbeat CPU 0 instructions: 650000107 cycles: 458227160 heartbeat IPC: 1.408 cumulative IPC: 1.419 (Simulation time: 01 hr 18 min 30 sec)
[ERROR_CYCLE] Error added at CPU cycle 464841611, interval 10, pending count: 1
[DRAM_CYCLE_ERROR] Cycle-based error applied! address=0x1d7bd92c0 additional_latency=173500 cycles
Heartbeat CPU 0 instructions: 660000109 cycles: 465335423 heartbeat IPC: 1.407 cumulative IPC: 1.418 (Simulation time: 01 hr 19 min 28 sec)
Heartbeat CPU 0 instructions: 670000112 cycles: 472448321 heartbeat IPC: 1.406 cumulative IPC: 1.418 (Simulation time: 01 hr 20 min 37 sec)
Heartbeat CPU 0 instructions: 680000114 cycles: 479569104 heartbeat IPC: 1.404 cumulative IPC: 1.418 (Simulation time: 01 hr 21 min 41 sec)
Heartbeat CPU 0 instructions: 690000118 cycles: 486697713 heartbeat IPC: 1.403 cumulative IPC: 1.418 (Simulation time: 01 hr 22 min 33 sec)
Heartbeat CPU 0 instructions: 700000118 cycles: 493866458 heartbeat IPC: 1.395 cumulative IPC: 1.417 (Simulation time: 01 hr 23 min 34 sec)
Heartbeat CPU 0 instructions: 710000118 cycles: 501081527 heartbeat IPC: 1.386 cumulative IPC: 1.417 (Simulation time: 01 hr 24 min 49 sec)
Heartbeat CPU 0 instructions: 720000120 cycles: 508255293 heartbeat IPC: 1.394 cumulative IPC: 1.417 (Simulation time: 01 hr 26 min 00 sec)
[ERROR_CYCLE] Error added at CPU cycle 511325771, interval 11, pending count: 1
[DRAM_CYCLE_ERROR] Cycle-based error applied! address=0x2bebb9fc0 additional_latency=173500 cycles
Heartbeat CPU 0 instructions: 730000121 cycles: 515417314 heartbeat IPC: 1.396 cumulative IPC: 1.416 (Simulation time: 01 hr 26 min 59 sec)
Heartbeat CPU 0 instructions: 740000124 cycles: 522607267 heartbeat IPC: 1.391 cumulative IPC: 1.416 (Simulation time: 01 hr 28 min 10 sec)
Heartbeat CPU 0 instructions: 750000124 cycles: 529753536 heartbeat IPC: 1.399 cumulative IPC: 1.416 (Simulation time: 01 hr 29 min 28 sec)
Heartbeat CPU 0 instructions: 760000127 cycles: 536856223 heartbeat IPC: 1.408 cumulative IPC: 1.416 (Simulation time: 01 hr 30 min 46 sec)
Heartbeat CPU 0 instructions: 770000129 cycles: 544001394 heartbeat IPC: 1.4 cumulative IPC: 1.415 (Simulation time: 01 hr 32 min 01 sec)
Heartbeat CPU 0 instructions: 780000129 cycles: 551128065 heartbeat IPC: 1.403 cumulative IPC: 1.415 (Simulation time: 01 hr 33 min 15 sec)
[ERROR_CYCLE] Error added at CPU cycle 557809932, interval 12, pending count: 1
[DRAM_CYCLE_ERROR] Cycle-based error applied! address=0x1f471ae40 additional_latency=173500 cycles
Heartbeat CPU 0 instructions: 790000131 cycles: 558231016 heartbeat IPC: 1.408 cumulative IPC: 1.415 (Simulation time: 01 hr 34 min 31 sec)
Heartbeat CPU 0 instructions: 800000132 cycles: 565476265 heartbeat IPC: 1.38 cumulative IPC: 1.415 (Simulation time: 01 hr 35 min 48 sec)
Heartbeat CPU 0 instructions: 810000133 cycles: 572608392 heartbeat IPC: 1.402 cumulative IPC: 1.415 (Simulation time: 01 hr 37 min 04 sec)
Heartbeat CPU 0 instructions: 820000133 cycles: 579769696 heartbeat IPC: 1.396 cumulative IPC: 1.414 (Simulation time: 01 hr 38 min 20 sec)
Heartbeat CPU 0 instructions: 830000134 cycles: 586978667 heartbeat IPC: 1.387 cumulative IPC: 1.414 (Simulation time: 01 hr 39 min 37 sec)
Heartbeat CPU 0 instructions: 840000138 cycles: 594109789 heartbeat IPC: 1.402 cumulative IPC: 1.414 (Simulation time: 01 hr 40 min 41 sec)
Heartbeat CPU 0 instructions: 850000139 cycles: 601220462 heartbeat IPC: 1.406 cumulative IPC: 1.414 (Simulation time: 01 hr 41 min 39 sec)
[ERROR_CYCLE] Error added at CPU cycle 604294093, interval 13, pending count: 1
[DRAM_CYCLE_ERROR] Cycle-based error applied! address=0x390a0ac0 additional_latency=173500 cycles
Heartbeat CPU 0 instructions: 860000143 cycles: 608298974 heartbeat IPC: 1.413 cumulative IPC: 1.414 (Simulation time: 01 hr 42 min 35 sec)
Heartbeat CPU 0 instructions: 870000143 cycles: 615416591 heartbeat IPC: 1.405 cumulative IPC: 1.414 (Simulation time: 01 hr 43 min 42 sec)
Heartbeat CPU 0 instructions: 880000145 cycles: 622523185 heartbeat IPC: 1.407 cumulative IPC: 1.414 (Simulation time: 01 hr 45 min 01 sec)
Heartbeat CPU 0 instructions: 890000145 cycles: 629646416 heartbeat IPC: 1.404 cumulative IPC: 1.413 (Simulation time: 01 hr 46 min 20 sec)
Heartbeat CPU 0 instructions: 900000148 cycles: 636888505 heartbeat IPC: 1.381 cumulative IPC: 1.413 (Simulation time: 01 hr 47 min 39 sec)
Heartbeat CPU 0 instructions: 910000148 cycles: 643971967 heartbeat IPC: 1.412 cumulative IPC: 1.413 (Simulation time: 01 hr 48 min 44 sec)
[ERROR_CYCLE] Error added at CPU cycle 650778254, interval 14, pending count: 1
[DRAM_CYCLE_ERROR] Cycle-based error applied! address=0x9b402bfc0 additional_latency=173500 cycles
Heartbeat CPU 0 instructions: 920000149 cycles: 651092530 heartbeat IPC: 1.404 cumulative IPC: 1.413 (Simulation time: 01 hr 49 min 41 sec)
Heartbeat CPU 0 instructions: 930000153 cycles: 658193080 heartbeat IPC: 1.408 cumulative IPC: 1.413 (Simulation time: 01 hr 50 min 54 sec)
Heartbeat CPU 0 instructions: 940000155 cycles: 665331169 heartbeat IPC: 1.401 cumulative IPC: 1.413 (Simulation time: 01 hr 51 min 55 sec)
Heartbeat CPU 0 instructions: 950000158 cycles: 672520705 heartbeat IPC: 1.391 cumulative IPC: 1.413 (Simulation time: 01 hr 53 min 08 sec)
Heartbeat CPU 0 instructions: 960000160 cycles: 679662620 heartbeat IPC: 1.4 cumulative IPC: 1.412 (Simulation time: 01 hr 54 min 27 sec)
Heartbeat CPU 0 instructions: 970000162 cycles: 686771497 heartbeat IPC: 1.407 cumulative IPC: 1.412 (Simulation time: 01 hr 55 min 46 sec)
Heartbeat CPU 0 instructions: 980000166 cycles: 693899699 heartbeat IPC: 1.403 cumulative IPC: 1.412 (Simulation time: 01 hr 57 min 04 sec)
[ERROR_CYCLE] Error added at CPU cycle 697262415, interval 15, pending count: 1
[DRAM_CYCLE_ERROR] Cycle-based error applied! address=0xbb637b900 additional_latency=173500 cycles
Heartbeat CPU 0 instructions: 990000168 cycles: 701140617 heartbeat IPC: 1.381 cumulative IPC: 1.412 (Simulation time: 01 hr 58 min 16 sec)
Heartbeat CPU 0 instructions: 1000000168 cycles: 708295391 heartbeat IPC: 1.398 cumulative IPC: 1.412 (Simulation time: 01 hr 59 min 15 sec)
Heartbeat CPU 0 instructions: 1010000168 cycles: 715432280 heartbeat IPC: 1.401 cumulative IPC: 1.412 (Simulation time: 02 hr 00 min 31 sec)
Heartbeat CPU 0 instructions: 1020000168 cycles: 722627853 heartbeat IPC: 1.39 cumulative IPC: 1.412 (Simulation time: 02 hr 01 min 47 sec)
Heartbeat CPU 0 instructions: 1030000168 cycles: 729835971 heartbeat IPC: 1.387 cumulative IPC: 1.411 (Simulation time: 02 hr 03 min 03 sec)
Heartbeat CPU 0 instructions: 1040000170 cycles: 736939470 heartbeat IPC: 1.408 cumulative IPC: 1.411 (Simulation time: 02 hr 04 min 19 sec)
[ERROR_CYCLE] Error added at CPU cycle 743746576, interval 16, pending count: 1
[DRAM_CYCLE_ERROR] Cycle-based error applied! address=0x251dbe3c0 additional_latency=173500 cycles
Heartbeat CPU 0 instructions: 1050000170 cycles: 744157202 heartbeat IPC: 1.385 cumulative IPC: 1.411 (Simulation time: 02 hr 05 min 35 sec)
Heartbeat CPU 0 instructions: 1060000170 cycles: 751267687 heartbeat IPC: 1.406 cumulative IPC: 1.411 (Simulation time: 02 hr 06 min 46 sec)
Heartbeat CPU 0 instructions: 1070000172 cycles: 758407115 heartbeat IPC: 1.401 cumulative IPC: 1.411 (Simulation time: 02 hr 07 min 38 sec)
Heartbeat CPU 0 instructions: 1080000174 cycles: 765727477 heartbeat IPC: 1.366 cumulative IPC: 1.41 (Simulation time: 02 hr 08 min 40 sec)
Heartbeat CPU 0 instructions: 1090000174 cycles: 772873806 heartbeat IPC: 1.399 cumulative IPC: 1.41 (Simulation time: 02 hr 09 min 52 sec)
Heartbeat CPU 0 instructions: 1100000174 cycles: 780030502 heartbeat IPC: 1.397 cumulative IPC: 1.41 (Simulation time: 02 hr 11 min 11 sec)
Heartbeat CPU 0 instructions: 1110000176 cycles: 787176415 heartbeat IPC: 1.399 cumulative IPC: 1.41 (Simulation time: 02 hr 12 min 28 sec)
[ERROR_CYCLE] Error added at CPU cycle 790230737, interval 17, pending count: 1
[DRAM_CYCLE_ERROR] Cycle-based error applied! address=0xbd7705fc0 additional_latency=173500 cycles
Heartbeat CPU 0 instructions: 1120000177 cycles: 794293434 heartbeat IPC: 1.405 cumulative IPC: 1.41 (Simulation time: 02 hr 13 min 45 sec)
Heartbeat CPU 0 instructions: 1130000178 cycles: 801478576 heartbeat IPC: 1.392 cumulative IPC: 1.41 (Simulation time: 02 hr 14 min 45 sec)
Heartbeat CPU 0 instructions: 1140000179 cycles: 808621718 heartbeat IPC: 1.4 cumulative IPC: 1.41 (Simulation time: 02 hr 15 min 37 sec)
Heartbeat CPU 0 instructions: 1150000179 cycles: 815745154 heartbeat IPC: 1.404 cumulative IPC: 1.41 (Simulation time: 02 hr 16 min 41 sec)
Heartbeat CPU 0 instructions: 1160000181 cycles: 822856963 heartbeat IPC: 1.406 cumulative IPC: 1.41 (Simulation time: 02 hr 17 min 36 sec)
Heartbeat CPU 0 instructions: 1170000184 cycles: 830011865 heartbeat IPC: 1.398 cumulative IPC: 1.41 (Simulation time: 02 hr 18 min 48 sec)
[ERROR_CYCLE] Error added at CPU cycle 836714899, interval 18, pending count: 1
[DRAM_CYCLE_ERROR] Cycle-based error applied! address=0xa20419d00 additional_latency=173500 cycles
Heartbeat CPU 0 instructions: 1180000188 cycles: 837231580 heartbeat IPC: 1.385 cumulative IPC: 1.409 (Simulation time: 02 hr 20 min 07 sec)
Heartbeat CPU 0 instructions: 1190000188 cycles: 844362650 heartbeat IPC: 1.402 cumulative IPC: 1.409 (Simulation time: 02 hr 21 min 03 sec)
Heartbeat CPU 0 instructions: 1200000190 cycles: 851462935 heartbeat IPC: 1.408 cumulative IPC: 1.409 (Simulation time: 02 hr 22 min 07 sec)
Heartbeat CPU 0 instructions: 1210000190 cycles: 858577393 heartbeat IPC: 1.406 cumulative IPC: 1.409 (Simulation time: 02 hr 23 min 26 sec)
Heartbeat CPU 0 instructions: 1220000192 cycles: 865686901 heartbeat IPC: 1.407 cumulative IPC: 1.409 (Simulation time: 02 hr 24 min 34 sec)
Heartbeat CPU 0 instructions: 1230000192 cycles: 872855831 heartbeat IPC: 1.395 cumulative IPC: 1.409 (Simulation time: 02 hr 25 min 52 sec)
Heartbeat CPU 0 instructions: 1240000192 cycles: 879955271 heartbeat IPC: 1.409 cumulative IPC: 1.409 (Simulation time: 02 hr 27 min 11 sec)
[ERROR_CYCLE] Error added at CPU cycle 883199060, interval 19, pending count: 1
[DRAM_CYCLE_ERROR] Cycle-based error applied! address=0x1d2df55c0 additional_latency=173500 cycles
Heartbeat CPU 0 instructions: 1250000192 cycles: 887041277 heartbeat IPC: 1.411 cumulative IPC: 1.409 (Simulation time: 02 hr 28 min 26 sec)
Heartbeat CPU 0 instructions: 1260000194 cycles: 894157898 heartbeat IPC: 1.405 cumulative IPC: 1.409 (Simulation time: 02 hr 29 min 39 sec)
Heartbeat CPU 0 instructions: 1270000195 cycles: 901347520 heartbeat IPC: 1.391 cumulative IPC: 1.409 (Simulation time: 02 hr 30 min 51 sec)
Heartbeat CPU 0 instructions: 1280000195 cycles: 908455656 heartbeat IPC: 1.407 cumulative IPC: 1.409 (Simulation time: 02 hr 32 min 11 sec)
Heartbeat CPU 0 instructions: 1290000197 cycles: 915614886 heartbeat IPC: 1.397 cumulative IPC: 1.409 (Simulation time: 02 hr 33 min 30 sec)
Heartbeat CPU 0 instructions: 1300000200 cycles: 922794671 heartbeat IPC: 1.393 cumulative IPC: 1.409 (Simulation time: 02 hr 34 min 49 sec)
[ERROR_CYCLE] Error added at CPU cycle 929683221, interval 20, pending count: 1
[DRAM_CYCLE_ERROR] Cycle-based error applied! address=0xcc7be4ac0 additional_latency=173500 cycles
Heartbeat CPU 0 instructions: 1310000200 cycles: 929961493 heartbeat IPC: 1.395 cumulative IPC: 1.409 (Simulation time: 02 hr 36 min 07 sec)
Heartbeat CPU 0 instructions: 1320000204 cycles: 937064900 heartbeat IPC: 1.408 cumulative IPC: 1.409 (Simulation time: 02 hr 37 min 25 sec)
Heartbeat CPU 0 instructions: 1330000204 cycles: 944271456 heartbeat IPC: 1.388 cumulative IPC: 1.408 (Simulation time: 02 hr 38 min 33 sec)
Heartbeat CPU 0 instructions: 1340000205 cycles: 951379622 heartbeat IPC: 1.407 cumulative IPC: 1.408 (Simulation time: 02 hr 39 min 48 sec)
Heartbeat CPU 0 instructions: 1350000206 cycles: 958583829 heartbeat IPC: 1.388 cumulative IPC: 1.408 (Simulation time: 02 hr 41 min 08 sec)
Heartbeat CPU 0 instructions: 1360000206 cycles: 965848599 heartbeat IPC: 1.377 cumulative IPC: 1.408 (Simulation time: 02 hr 42 min 26 sec)
Heartbeat CPU 0 instructions: 1370000208 cycles: 972976157 heartbeat IPC: 1.403 cumulative IPC: 1.408 (Simulation time: 02 hr 43 min 45 sec)
[ERROR_CYCLE] Error added at CPU cycle 976167382, interval 21, pending count: 1
[DRAM_CYCLE_ERROR] Cycle-based error applied! address=0x436cd2700 additional_latency=173500 cycles
Heartbeat CPU 0 instructions: 1380000210 cycles: 980121044 heartbeat IPC: 1.4 cumulative IPC: 1.408 (Simulation time: 02 hr 44 min 45 sec)
Heartbeat CPU 0 instructions: 1390000211 cycles: 987225355 heartbeat IPC: 1.408 cumulative IPC: 1.408 (Simulation time: 02 hr 45 min 49 sec)
Heartbeat CPU 0 instructions: 1400000211 cycles: 994379470 heartbeat IPC: 1.398 cumulative IPC: 1.408 (Simulation time: 02 hr 47 min 08 sec)
Heartbeat CPU 0 instructions: 1410000213 cycles: 1001448077 heartbeat IPC: 1.415 cumulative IPC: 1.408 (Simulation time: 02 hr 48 min 25 sec)
Heartbeat CPU 0 instructions: 1420000215 cycles: 1008553542 heartbeat IPC: 1.407 cumulative IPC: 1.408 (Simulation time: 02 hr 49 min 44 sec)
Heartbeat CPU 0 instructions: 1430000218 cycles: 1015715780 heartbeat IPC: 1.396 cumulative IPC: 1.408 (Simulation time: 02 hr 51 min 03 sec)
[ERROR_CYCLE] Error added at CPU cycle 1022651542, interval 22, pending count: 1
[DRAM_CYCLE_ERROR] Cycle-based error applied! address=0xc26dd6c0 additional_latency=173500 cycles
Heartbeat CPU 0 instructions: 1440000219 cycles: 1022816278 heartbeat IPC: 1.408 cumulative IPC: 1.408 (Simulation time: 02 hr 52 min 22 sec)
Heartbeat CPU 0 instructions: 1450000219 cycles: 1029929091 heartbeat IPC: 1.406 cumulative IPC: 1.408 (Simulation time: 02 hr 53 min 41 sec)
Heartbeat CPU 0 instructions: 1460000222 cycles: 1037168438 heartbeat IPC: 1.381 cumulative IPC: 1.408 (Simulation time: 02 hr 55 min 00 sec)
Heartbeat CPU 0 instructions: 1470000224 cycles: 1044290673 heartbeat IPC: 1.404 cumulative IPC: 1.408 (Simulation time: 02 hr 56 min 19 sec)
Heartbeat CPU 0 instructions: 1480000224 cycles: 1051438470 heartbeat IPC: 1.399 cumulative IPC: 1.408 (Simulation time: 02 hr 57 min 38 sec)
Heartbeat CPU 0 instructions: 1490000225 cycles: 1058536651 heartbeat IPC: 1.409 cumulative IPC: 1.408 (Simulation time: 02 hr 58 min 56 sec)
Heartbeat CPU 0 instructions: 1500000225 cycles: 1065651825 heartbeat IPC: 1.405 cumulative IPC: 1.408 (Simulation time: 03 hr 00 min 15 sec)
[ERROR_CYCLE] Error added at CPU cycle 1069135703, interval 23, pending count: 1
[DRAM_CYCLE_ERROR] Cycle-based error applied! address=0x54b3dd5c0 additional_latency=173500 cycles
Heartbeat CPU 0 instructions: 1510000226 cycles: 1072777768 heartbeat IPC: 1.403 cumulative IPC: 1.408 (Simulation time: 03 hr 01 min 34 sec)
Heartbeat CPU 0 instructions: 1520000228 cycles: 1079975878 heartbeat IPC: 1.389 cumulative IPC: 1.407 (Simulation time: 03 hr 02 min 53 sec)
Heartbeat CPU 0 instructions: 1530000228 cycles: 1087071709 heartbeat IPC: 1.409 cumulative IPC: 1.407 (Simulation time: 03 hr 04 min 12 sec)
Heartbeat CPU 0 instructions: 1540000231 cycles: 1094176181 heartbeat IPC: 1.408 cumulative IPC: 1.407 (Simulation time: 03 hr 05 min 31 sec)
Heartbeat CPU 0 instructions: 1550000234 cycles: 1101367522 heartbeat IPC: 1.391 cumulative IPC: 1.407 (Simulation time: 03 hr 06 min 51 sec)
Heartbeat CPU 0 instructions: 1560000237 cycles: 1108452329 heartbeat IPC: 1.411 cumulative IPC: 1.407 (Simulation time: 03 hr 08 min 09 sec)
Heartbeat CPU 0 instructions: 1570000240 cycles: 1115544077 heartbeat IPC: 1.41 cumulative IPC: 1.407 (Simulation time: 03 hr 09 min 20 sec)
[ERROR_CYCLE] Error added at CPU cycle 1115619864, interval 24, pending count: 1
[DRAM_CYCLE_ERROR] Cycle-based error applied! address=0x6ed5d04c0 additional_latency=173500 cycles
Heartbeat CPU 0 instructions: 1580000244 cycles: 1122705332 heartbeat IPC: 1.396 cumulative IPC: 1.407 (Simulation time: 03 hr 10 min 36 sec)
Heartbeat CPU 0 instructions: 1590000248 cycles: 1129874711 heartbeat IPC: 1.395 cumulative IPC: 1.407 (Simulation time: 03 hr 11 min 30 sec)
Heartbeat CPU 0 instructions: 1600000249 cycles: 1136962340 heartbeat IPC: 1.411 cumulative IPC: 1.407 (Simulation time: 03 hr 12 min 34 sec)
Heartbeat CPU 0 instructions: 1610000252 cycles: 1144124637 heartbeat IPC: 1.396 cumulative IPC: 1.407 (Simulation time: 03 hr 13 min 41 sec)
Heartbeat CPU 0 instructions: 1620000256 cycles: 1151226534 heartbeat IPC: 1.408 cumulative IPC: 1.407 (Simulation time: 03 hr 14 min 39 sec)
Heartbeat CPU 0 instructions: 1630000256 cycles: 1158368631 heartbeat IPC: 1.4 cumulative IPC: 1.407 (Simulation time: 03 hr 15 min 39 sec)
[ERROR_CYCLE] Error added at CPU cycle 1162104025, interval 25, pending count: 1
[DRAM_CYCLE_ERROR] Cycle-based error applied! address=0x23461b2c0 additional_latency=173500 cycles
Heartbeat CPU 0 instructions: 1640000256 cycles: 1165615987 heartbeat IPC: 1.38 cumulative IPC: 1.407 (Simulation time: 03 hr 16 min 44 sec)
Heartbeat CPU 0 instructions: 1650000256 cycles: 1172727158 heartbeat IPC: 1.406 cumulative IPC: 1.407 (Simulation time: 03 hr 17 min 34 sec)
Heartbeat CPU 0 instructions: 1660000257 cycles: 1179849052 heartbeat IPC: 1.404 cumulative IPC: 1.407 (Simulation time: 03 hr 18 min 27 sec)
Heartbeat CPU 0 instructions: 1670000259 cycles: 1187005491 heartbeat IPC: 1.397 cumulative IPC: 1.407 (Simulation time: 03 hr 19 min 44 sec)
Heartbeat CPU 0 instructions: 1680000260 cycles: 1194140231 heartbeat IPC: 1.402 cumulative IPC: 1.407 (Simulation time: 03 hr 20 min 46 sec)
Heartbeat CPU 0 instructions: 1690000262 cycles: 1201268055 heartbeat IPC: 1.403 cumulative IPC: 1.407 (Simulation time: 03 hr 22 min 01 sec)
Heartbeat CPU 0 instructions: 1700000265 cycles: 1208414347 heartbeat IPC: 1.399 cumulative IPC: 1.407 (Simulation time: 03 hr 23 min 15 sec)
[ERROR_CYCLE] Error added at CPU cycle 1208588186, interval 26, pending count: 1
[DRAM_CYCLE_ERROR] Cycle-based error applied! address=0xbc3577400 additional_latency=173500 cycles
Heartbeat CPU 0 instructions: 1710000268 cycles: 1215499323 heartbeat IPC: 1.411 cumulative IPC: 1.407 (Simulation time: 03 hr 24 min 27 sec)
Heartbeat CPU 0 instructions: 1720000271 cycles: 1222613187 heartbeat IPC: 1.406 cumulative IPC: 1.407 (Simulation time: 03 hr 25 min 35 sec)
Heartbeat CPU 0 instructions: 1730000273 cycles: 1229748915 heartbeat IPC: 1.401 cumulative IPC: 1.407 (Simulation time: 03 hr 26 min 47 sec)
Heartbeat CPU 0 instructions: 1740000276 cycles: 1236980419 heartbeat IPC: 1.383 cumulative IPC: 1.407 (Simulation time: 03 hr 27 min 56 sec)
Heartbeat CPU 0 instructions: 1750000276 cycles: 1244102576 heartbeat IPC: 1.404 cumulative IPC: 1.407 (Simulation time: 03 hr 28 min 51 sec)
Heartbeat CPU 0 instructions: 1760000278 cycles: 1251217072 heartbeat IPC: 1.406 cumulative IPC: 1.407 (Simulation time: 03 hr 29 min 57 sec)
[ERROR_CYCLE] Error added at CPU cycle 1255072347, interval 27, pending count: 1
[DRAM_CYCLE_ERROR] Cycle-based error applied! address=0xaedff1f80 additional_latency=173500 cycles
Heartbeat CPU 0 instructions: 1770000280 cycles: 1258377246 heartbeat IPC: 1.397 cumulative IPC: 1.407 (Simulation time: 03 hr 31 min 16 sec)
Heartbeat CPU 0 instructions: 1780000281 cycles: 1265495998 heartbeat IPC: 1.405 cumulative IPC: 1.407 (Simulation time: 03 hr 32 min 35 sec)
Heartbeat CPU 0 instructions: 1790000282 cycles: 1272637734 heartbeat IPC: 1.4 cumulative IPC: 1.407 (Simulation time: 03 hr 33 min 54 sec)
Heartbeat CPU 0 instructions: 1800000282 cycles: 1279804196 heartbeat IPC: 1.395 cumulative IPC: 1.406 (Simulation time: 03 hr 35 min 10 sec)
Heartbeat CPU 0 instructions: 1810000282 cycles: 1287019379 heartbeat IPC: 1.386 cumulative IPC: 1.406 (Simulation time: 03 hr 36 min 07 sec)
Heartbeat CPU 0 instructions: 1820000286 cycles: 1294148504 heartbeat IPC: 1.403 cumulative IPC: 1.406 (Simulation time: 03 hr 37 min 12 sec)
Heartbeat CPU 0 instructions: 1830000288 cycles: 1301372700 heartbeat IPC: 1.384 cumulative IPC: 1.406 (Simulation time: 03 hr 38 min 07 sec)
[ERROR_CYCLE] Error added at CPU cycle 1301556508, interval 28, pending count: 1
[DRAM_CYCLE_ERROR] Cycle-based error applied! address=0xbe7560b40 additional_latency=173500 cycles
Heartbeat CPU 0 instructions: 1840000291 cycles: 1308481244 heartbeat IPC: 1.407 cumulative IPC: 1.406 (Simulation time: 03 hr 39 min 17 sec)
Heartbeat CPU 0 instructions: 1850000291 cycles: 1315632151 heartbeat IPC: 1.398 cumulative IPC: 1.406 (Simulation time: 03 hr 40 min 35 sec)
Heartbeat CPU 0 instructions: 1860000293 cycles: 1322797471 heartbeat IPC: 1.396 cumulative IPC: 1.406 (Simulation time: 03 hr 41 min 51 sec)
Heartbeat CPU 0 instructions: 1870000293 cycles: 1329976733 heartbeat IPC: 1.393 cumulative IPC: 1.406 (Simulation time: 03 hr 42 min 59 sec)
Heartbeat CPU 0 instructions: 1880000296 cycles: 1337056983 heartbeat IPC: 1.412 cumulative IPC: 1.406 (Simulation time: 03 hr 44 min 17 sec)
Heartbeat CPU 0 instructions: 1890000296 cycles: 1344164558 heartbeat IPC: 1.407 cumulative IPC: 1.406 (Simulation time: 03 hr 45 min 14 sec)
[ERROR_CYCLE] Error added at CPU cycle 1348040670, interval 29, pending count: 1
[DRAM_CYCLE_ERROR] Cycle-based error applied! address=0xb41befa00 additional_latency=173500 cycles
Heartbeat CPU 0 instructions: 1900000298 cycles: 1351350226 heartbeat IPC: 1.392 cumulative IPC: 1.406 (Simulation time: 03 hr 46 min 13 sec)
Heartbeat CPU 0 instructions: 1910000300 cycles: 1358511256 heartbeat IPC: 1.396 cumulative IPC: 1.406 (Simulation time: 03 hr 47 min 32 sec)
Heartbeat CPU 0 instructions: 1920000300 cycles: 1365723402 heartbeat IPC: 1.387 cumulative IPC: 1.406 (Simulation time: 03 hr 48 min 52 sec)
Heartbeat CPU 0 instructions: 1930000302 cycles: 1372893799 heartbeat IPC: 1.395 cumulative IPC: 1.406 (Simulation time: 03 hr 50 min 11 sec)
Heartbeat CPU 0 instructions: 1940000302 cycles: 1380039128 heartbeat IPC: 1.4 cumulative IPC: 1.406 (Simulation time: 03 hr 51 min 30 sec)
Heartbeat CPU 0 instructions: 1950000303 cycles: 1387170873 heartbeat IPC: 1.402 cumulative IPC: 1.406 (Simulation time: 03 hr 52 min 50 sec)
Heartbeat CPU 0 instructions: 1960000304 cycles: 1394325418 heartbeat IPC: 1.398 cumulative IPC: 1.406 (Simulation time: 03 hr 54 min 09 sec)
[ERROR_CYCLE] Error added at CPU cycle 1394524831, interval 30, pending count: 1
[DRAM_CYCLE_ERROR] Cycle-based error applied! address=0x711643f00 additional_latency=173500 cycles
Heartbeat CPU 0 instructions: 1970000308 cycles: 1401454412 heartbeat IPC: 1.403 cumulative IPC: 1.406 (Simulation time: 03 hr 55 min 29 sec)
Heartbeat CPU 0 instructions: 1980000310 cycles: 1408538254 heartbeat IPC: 1.412 cumulative IPC: 1.406 (Simulation time: 03 hr 56 min 44 sec)
Heartbeat CPU 0 instructions: 1990000310 cycles: 1415666755 heartbeat IPC: 1.403 cumulative IPC: 1.406 (Simulation time: 03 hr 58 min 03 sec)

=== ERROR PAGE STATISTICS ===
Mode: CYCLE
Error Cycle Interval: 46484161 CPU cycles
Total Error Accesses: 30
==============================
Simulation finished CPU 0 instructions: 1999999507 cycles: 1422800092 cumulative IPC: 1.406 (Simulation time: 03 hr 59 min 12 sec)
Simulation complete CPU 0 instructions: 1999999507 cycles: 1422800092 cumulative IPC: 1.406 (Simulation time: 03 hr 59 min 12 sec)

ChampSim completed all CPUs

=== Simulation ===
CPU 0 runs test_traces/607.cactuBSSN_s-2421B.champsimtrace.xz

Region of Interest Statistics

CPU 0 cumulative IPC: 1.406 instructions: 1999999507 cycles: 1422800092
CPU 0 Branch Prediction Accuracy: 98.41% MPKI: 0.0223 Average ROB Occupancy at Mispredict: 325.7
Branch type MPKI
BRANCH_DIRECT_JUMP: 3.4e-05
BRANCH_INDIRECT: 4.45e-05
BRANCH_CONDITIONAL: 0.0122
BRANCH_DIRECT_CALL: 0.000332
BRANCH_INDIRECT_CALL: 1.5e-06
BRANCH_RETURN: 0.009687

cpu0->cpu0_STLB TOTAL        ACCESS:  148902831 HIT:  148662776 MISS:     240055 MSHR_MERGE:          0
cpu0->cpu0_STLB LOAD         ACCESS:  148902831 HIT:  148662776 MISS:     240055 MSHR_MERGE:          0
cpu0->cpu0_STLB RFO          ACCESS:          0 HIT:          0 MISS:          0 MSHR_MERGE:          0
cpu0->cpu0_STLB PREFETCH     ACCESS:          0 HIT:          0 MISS:          0 MSHR_MERGE:          0
cpu0->cpu0_STLB WRITE        ACCESS:          0 HIT:          0 MISS:          0 MSHR_MERGE:          0
cpu0->cpu0_STLB TRANSLATION  ACCESS:          0 HIT:          0 MISS:          0 MSHR_MERGE:          0
cpu0->cpu0_STLB PREFETCH REQUESTED:          0 ISSUED:          0 USEFUL:          0 USELESS:          0
cpu0->cpu0_STLB AVERAGE MISS LATENCY: 362.8 cycles
cpu0->cpu0_L2C TOTAL        ACCESS:  251275585 HIT:  225904578 MISS:   25371007 MSHR_MERGE:          0
cpu0->cpu0_L2C LOAD         ACCESS:  217197644 HIT:  192702607 MISS:   24495037 MSHR_MERGE:          0
cpu0->cpu0_L2C RFO          ACCESS:   16162264 HIT:   15286395 MISS:     875869 MSHR_MERGE:          0
cpu0->cpu0_L2C PREFETCH     ACCESS:          0 HIT:          0 MISS:          0 MSHR_MERGE:          0
cpu0->cpu0_L2C WRITE        ACCESS:   17915677 HIT:   17915576 MISS:        101 MSHR_MERGE:          0
cpu0->cpu0_L2C TRANSLATION  ACCESS:          0 HIT:          0 MISS:          0 MSHR_MERGE:          0
cpu0->cpu0_L2C PREFETCH REQUESTED:          0 ISSUED:          0 USEFUL:          0 USELESS:          0
cpu0->cpu0_L2C AVERAGE MISS LATENCY: 81.94 cycles
cpu0->cpu0_L1I TOTAL        ACCESS:  406629710 HIT:  403982635 MISS:    2647075 MSHR_MERGE:    1296932
cpu0->cpu0_L1I LOAD         ACCESS:  406629710 HIT:  403982635 MISS:    2647075 MSHR_MERGE:    1296932
cpu0->cpu0_L1I RFO          ACCESS:          0 HIT:          0 MISS:          0 MSHR_MERGE:          0
cpu0->cpu0_L1I PREFETCH     ACCESS:          0 HIT:          0 MISS:          0 MSHR_MERGE:          0
cpu0->cpu0_L1I WRITE        ACCESS:          0 HIT:          0 MISS:          0 MSHR_MERGE:          0
cpu0->cpu0_L1I TRANSLATION  ACCESS:          0 HIT:          0 MISS:          0 MSHR_MERGE:          0
cpu0->cpu0_L1I PREFETCH REQUESTED:          0 ISSUED:          0 USEFUL:          0 USELESS:          0
cpu0->cpu0_L1I AVERAGE MISS LATENCY: 7.258 cycles
cpu0->cpu0_L1D TOTAL        ACCESS:  640921192 HIT:  369571536 MISS:  271349656 MSHR_MERGE:   38784180
cpu0->cpu0_L1D LOAD         ACCESS:  414170678 HIT:  160529071 MISS:  253641607 MSHR_MERGE:   37245617
cpu0->cpu0_L1D RFO          ACCESS:          0 HIT:          0 MISS:          0 MSHR_MERGE:          0
cpu0->cpu0_L1D PREFETCH     ACCESS:          0 HIT:          0 MISS:          0 MSHR_MERGE:          0
cpu0->cpu0_L1D WRITE        ACCESS:  226750514 HIT:  209042465 MISS:   17708049 MSHR_MERGE:    1538563
cpu0->cpu0_L1D TRANSLATION  ACCESS:          0 HIT:          0 MISS:          0 MSHR_MERGE:          0
cpu0->cpu0_L1D PREFETCH REQUESTED:          0 ISSUED:          0 USEFUL:          0 USELESS:          0
cpu0->cpu0_L1D AVERAGE MISS LATENCY: 17.71 cycles
cpu0->cpu0_ITLB TOTAL        ACCESS:  334882712 HIT:  334882504 MISS:        208 MSHR_MERGE:        132
cpu0->cpu0_ITLB LOAD         ACCESS:  334882712 HIT:  334882504 MISS:        208 MSHR_MERGE:        132
cpu0->cpu0_ITLB RFO          ACCESS:          0 HIT:          0 MISS:          0 MSHR_MERGE:          0
cpu0->cpu0_ITLB PREFETCH     ACCESS:          0 HIT:          0 MISS:          0 MSHR_MERGE:          0
cpu0->cpu0_ITLB WRITE        ACCESS:          0 HIT:          0 MISS:          0 MSHR_MERGE:          0
cpu0->cpu0_ITLB TRANSLATION  ACCESS:          0 HIT:          0 MISS:          0 MSHR_MERGE:          0
cpu0->cpu0_ITLB PREFETCH REQUESTED:          0 ISSUED:          0 USEFUL:          0 USELESS:          0
cpu0->cpu0_ITLB AVERAGE MISS LATENCY: 602.8 cycles
cpu0->cpu0_DTLB TOTAL        ACCESS:  541459184 HIT:  342432238 MISS:  199026946 MSHR_MERGE:   50124190
cpu0->cpu0_DTLB LOAD         ACCESS:  541459184 HIT:  342432238 MISS:  199026946 MSHR_MERGE:   50124190
cpu0->cpu0_DTLB RFO          ACCESS:          0 HIT:          0 MISS:          0 MSHR_MERGE:          0
cpu0->cpu0_DTLB PREFETCH     ACCESS:          0 HIT:          0 MISS:          0 MSHR_MERGE:          0
cpu0->cpu0_DTLB WRITE        ACCESS:          0 HIT:          0 MISS:          0 MSHR_MERGE:          0
cpu0->cpu0_DTLB TRANSLATION  ACCESS:          0 HIT:          0 MISS:          0 MSHR_MERGE:          0
cpu0->cpu0_DTLB PREFETCH REQUESTED:          0 ISSUED:          0 USEFUL:          0 USELESS:          0
cpu0->cpu0_DTLB AVERAGE MISS LATENCY: 5.714 cycles
cpu0->LLC TOTAL        ACCESS:   27876652 HIT:   12754687 MISS:   15121965 MSHR_MERGE:          0
cpu0->LLC LOAD         ACCESS:   24495014 HIT:    9405084 MISS:   15089930 MSHR_MERGE:          0
cpu0->LLC RFO          ACCESS:     869187 HIT:     838565 MISS:      30622 MSHR_MERGE:          0
cpu0->LLC PREFETCH     ACCESS:          0 HIT:          0 MISS:          0 MSHR_MERGE:          0
cpu0->LLC WRITE        ACCESS:    2512451 HIT:    2511038 MISS:       1413 MSHR_MERGE:          0
cpu0->LLC TRANSLATION  ACCESS:          0 HIT:          0 MISS:          0 MSHR_MERGE:          0
cpu0->LLC PREFETCH REQUESTED:          0 ISSUED:          0 USEFUL:          0 USELESS:          0
cpu0->LLC AVERAGE MISS LATENCY: 111.3 cycles

DRAM Statistics

Channel 0 RQ ROW_BUFFER_HIT:       1013
  ROW_BUFFER_MISS:    7872894
  AVG DBUS CONGESTED CYCLE: 9.342
Channel 0 WQ ROW_BUFFER_HIT:     207687
  ROW_BUFFER_MISS:     737105
  FULL:          0
Channel 0 REFRESHES ISSUED:     118559

Channel 1 RQ ROW_BUFFER_HIT:       1121
  ROW_BUFFER_MISS:    7857460
  AVG DBUS CONGESTED CYCLE: 9.34
Channel 1 WQ ROW_BUFFER_HIT:     207856
  ROW_BUFFER_MISS:     737087
  FULL:          0
Channel 1 REFRESHES ISSUED:     118559
