[VMEM] WARNING: physical memory size is smaller than virtual memory size.

*** ChampSim Multicore Out-of-Order Simulator ***
Warmup Instructions: 0
Simulation Instructions: 9223372036854775807
Number of CPUs: 1
Page size: 4096

Off-chip DRAM Size: 128 GiB Channels: 2 Width: 32-bit Data Rate: 4807 MT/s
[ERROR_PAGE_MANAGER] Error latency: 173500 
[ERROR_PAGE_MANAGER] Random seed: 54321 (fixed for preload reproducibility)
[ERROR_PAGE_MANAGER] Cycle-based error modeling enabled
[ERROR_PAGE_MANAGER] Errors per interval: 1
[ERROR_PAGE_MANAGER] Error cycle interval: 25763047 cycles

=== ERROR PAGE STATISTICS ===
Mode: CYCLE
Error Cycle Interval: 25763047 CPU cycles
Total Error Accesses: 0
==============================
Warmup finished CPU 0 instructions: 0 cycles: 1 cumulative IPC: 0 (Simulation time: 00 hr 00 min 02 sec)
Warmup complete CPU 0 instructions: 0 cycles: 1 cumulative IPC: 0 (Simulation time: 00 hr 00 min 02 sec)
Heartbeat CPU 0 instructions: 10000001 cycles: 16248774 heartbeat IPC: 0.6154 cumulative IPC: 0.6154 (Simulation time: 00 hr 01 min 56 sec)
[ERROR_CYCLE] Error added at CPU cycle 25763048, interval 1, pending count: 1
[DRAM_CYCLE_ERROR] Cycle-based error applied! address=0x1fa384b690 additional_latency=173500 cycles
Heartbeat CPU 0 instructions: 20000004 cycles: 32458274 heartbeat IPC: 0.6169 cumulative IPC: 0.6162 (Simulation time: 00 hr 03 min 56 sec)
Heartbeat CPU 0 instructions: 30000005 cycles: 48664423 heartbeat IPC: 0.617 cumulative IPC: 0.6165 (Simulation time: 00 hr 06 min 22 sec)
[ERROR_CYCLE] Error added at CPU cycle 51526094, interval 2, pending count: 1
[DRAM_CYCLE_ERROR] Cycle-based error applied! address=0x8f53341c0 additional_latency=173500 cycles
Heartbeat CPU 0 instructions: 40000009 cycles: 64874901 heartbeat IPC: 0.6169 cumulative IPC: 0.6166 (Simulation time: 00 hr 08 min 45 sec)
[ERROR_CYCLE] Error added at CPU cycle 77289142, interval 3, pending count: 1
[DRAM_CYCLE_ERROR] Cycle-based error applied! address=0x79f415d40 additional_latency=173500 cycles
Heartbeat CPU 0 instructions: 50000010 cycles: 81073541 heartbeat IPC: 0.6173 cumulative IPC: 0.6167 (Simulation time: 00 hr 10 min 45 sec)
Heartbeat CPU 0 instructions: 60000010 cycles: 97267938 heartbeat IPC: 0.6175 cumulative IPC: 0.6169 (Simulation time: 00 hr 13 min 10 sec)
[ERROR_CYCLE] Error added at CPU cycle 103052188, interval 4, pending count: 1
[DRAM_CYCLE_ERROR] Cycle-based error applied! address=0x1602598800 additional_latency=173500 cycles
Heartbeat CPU 0 instructions: 70000012 cycles: 113460233 heartbeat IPC: 0.6176 cumulative IPC: 0.617 (Simulation time: 00 hr 15 min 38 sec)
[ERROR_CYCLE] Error added at CPU cycle 128815235, interval 5, pending count: 1
[DRAM_CYCLE_ERROR] Cycle-based error applied! address=0x1c2102e780 additional_latency=173500 cycles
Heartbeat CPU 0 instructions: 80000016 cycles: 129627223 heartbeat IPC: 0.6185 cumulative IPC: 0.6172 (Simulation time: 00 hr 17 min 44 sec)
Heartbeat CPU 0 instructions: 90000016 cycles: 145817175 heartbeat IPC: 0.6177 cumulative IPC: 0.6172 (Simulation time: 00 hr 20 min 10 sec)
[ERROR_CYCLE] Error added at CPU cycle 154578283, interval 6, pending count: 1
[DRAM_CYCLE_ERROR] Cycle-based error applied! address=0x1a3019b000 additional_latency=173500 cycles
Heartbeat CPU 0 instructions: 100000018 cycles: 161998002 heartbeat IPC: 0.618 cumulative IPC: 0.6173 (Simulation time: 00 hr 22 min 30 sec)
Heartbeat CPU 0 instructions: 110000021 cycles: 178162372 heartbeat IPC: 0.6186 cumulative IPC: 0.6174 (Simulation time: 00 hr 24 min 57 sec)
[ERROR_CYCLE] Error added at CPU cycle 180341329, interval 7, pending count: 1
[DRAM_CYCLE_ERROR] Cycle-based error applied! address=0x1efdd1f170 additional_latency=173500 cycles
Heartbeat CPU 0 instructions: 120000025 cycles: 194338399 heartbeat IPC: 0.6182 cumulative IPC: 0.6175 (Simulation time: 00 hr 27 min 24 sec)
[ERROR_CYCLE] Error added at CPU cycle 206104376, interval 8, pending count: 1
[DRAM_CYCLE_ERROR] Cycle-based error applied! address=0xf9365d370 additional_latency=173500 cycles
Heartbeat CPU 0 instructions: 130000026 cycles: 210554806 heartbeat IPC: 0.6167 cumulative IPC: 0.6174 (Simulation time: 00 hr 29 min 50 sec)
Heartbeat CPU 0 instructions: 140000029 cycles: 226704279 heartbeat IPC: 0.6192 cumulative IPC: 0.6175 (Simulation time: 00 hr 31 min 50 sec)
[ERROR_CYCLE] Error added at CPU cycle 231867424, interval 9, pending count: 1
[DRAM_CYCLE_ERROR] Cycle-based error applied! address=0x5b1b86800 additional_latency=173500 cycles
Heartbeat CPU 0 instructions: 150000029 cycles: 242876976 heartbeat IPC: 0.6183 cumulative IPC: 0.6176 (Simulation time: 00 hr 33 min 35 sec)
[ERROR_CYCLE] Error added at CPU cycle 257630470, interval 10, pending count: 1
[DRAM_CYCLE_ERROR] Cycle-based error applied! address=0x592d6f7c0 additional_latency=173500 cycles
Heartbeat CPU 0 instructions: 160000031 cycles: 259050907 heartbeat IPC: 0.6183 cumulative IPC: 0.6176 (Simulation time: 00 hr 35 min 29 sec)
Heartbeat CPU 0 instructions: 170000031 cycles: 275192653 heartbeat IPC: 0.6195 cumulative IPC: 0.6177 (Simulation time: 00 hr 37 min 52 sec)
[ERROR_CYCLE] Error added at CPU cycle 283393517, interval 11, pending count: 1
[DRAM_CYCLE_ERROR] Cycle-based error applied! address=0x526a248c0 additional_latency=173500 cycles
Heartbeat CPU 0 instructions: 180000032 cycles: 291363147 heartbeat IPC: 0.6184 cumulative IPC: 0.6178 (Simulation time: 00 hr 40 min 15 sec)
Heartbeat CPU 0 instructions: 190000036 cycles: 307553805 heartbeat IPC: 0.6176 cumulative IPC: 0.6178 (Simulation time: 00 hr 42 min 37 sec)
[ERROR_CYCLE] Error added at CPU cycle 309156565, interval 12, pending count: 1
[DRAM_CYCLE_ERROR] Cycle-based error applied! address=0x36bbe2740 additional_latency=173500 cycles
Heartbeat CPU 0 instructions: 200000036 cycles: 323711641 heartbeat IPC: 0.6189 cumulative IPC: 0.6178 (Simulation time: 00 hr 44 min 58 sec)
[ERROR_CYCLE] Error added at CPU cycle 334919611, interval 13, pending count: 1
[DRAM_CYCLE_ERROR] Cycle-based error applied! address=0xc027cc530 additional_latency=173500 cycles
Heartbeat CPU 0 instructions: 210000036 cycles: 339900705 heartbeat IPC: 0.6177 cumulative IPC: 0.6178 (Simulation time: 00 hr 47 min 20 sec)
Heartbeat CPU 0 instructions: 220000036 cycles: 356084163 heartbeat IPC: 0.6179 cumulative IPC: 0.6178 (Simulation time: 00 hr 49 min 35 sec)
[ERROR_CYCLE] Error added at CPU cycle 360682659, interval 14, pending count: 1
[DRAM_CYCLE_ERROR] Cycle-based error applied! address=0x42a6b22c0 additional_latency=173500 cycles
Heartbeat CPU 0 instructions: 230000038 cycles: 372263220 heartbeat IPC: 0.6181 cumulative IPC: 0.6178 (Simulation time: 00 hr 51 min 38 sec)
[ERROR_CYCLE] Error added at CPU cycle 386445705, interval 15, pending count: 1
[DRAM_CYCLE_ERROR] Cycle-based error applied! address=0x2a8ec8f80 additional_latency=173500 cycles
Heartbeat CPU 0 instructions: 240000039 cycles: 388459250 heartbeat IPC: 0.6174 cumulative IPC: 0.6178 (Simulation time: 00 hr 54 min 04 sec)
Heartbeat CPU 0 instructions: 250000042 cycles: 404647220 heartbeat IPC: 0.6177 cumulative IPC: 0.6178 (Simulation time: 00 hr 55 min 57 sec)
[ERROR_CYCLE] Error added at CPU cycle 412208752, interval 16, pending count: 1
[DRAM_CYCLE_ERROR] Cycle-based error applied! address=0x7b7d8ddc0 additional_latency=173500 cycles
Heartbeat CPU 0 instructions: 260000043 cycles: 420822089 heartbeat IPC: 0.6182 cumulative IPC: 0.6178 (Simulation time: 00 hr 57 min 58 sec)
Heartbeat CPU 0 instructions: 270000045 cycles: 437007543 heartbeat IPC: 0.6178 cumulative IPC: 0.6178 (Simulation time: 00 hr 59 min 42 sec)
[ERROR_CYCLE] Error added at CPU cycle 437971800, interval 17, pending count: 1
[DRAM_CYCLE_ERROR] Cycle-based error applied! address=0x25ddfadc0 additional_latency=173500 cycles
[ERROR_CYCLE] Error added at CPU cycle 463734846, interval 18, pending count: 1
[DRAM_CYCLE_ERROR] Cycle-based error applied! address=0x105a2a0a20 additional_latency=173500 cycles
Heartbeat CPU 0 instructions: 280000049 cycles: 469430481 heartbeat IPC: 0.3084 cumulative IPC: 0.5965 (Simulation time: 01 hr 03 min 36 sec)
[ERROR_CYCLE] Error added at CPU cycle 489497893, interval 19, pending count: 1
[DRAM_CYCLE_ERROR] Cycle-based error applied! address=0x766720198 additional_latency=173500 cycles
Heartbeat CPU 0 instructions: 290000050 cycles: 501751203 heartbeat IPC: 0.3094 cumulative IPC: 0.578 (Simulation time: 01 hr 08 min 43 sec)
[ERROR_CYCLE] Error added at CPU cycle 515260941, interval 20, pending count: 1
[DRAM_CYCLE_ERROR] Cycle-based error applied! address=0x70034a4c0 additional_latency=173500 cycles
Heartbeat CPU 0 instructions: 300000053 cycles: 518590904 heartbeat IPC: 0.5938 cumulative IPC: 0.5785 (Simulation time: 01 hr 10 min 51 sec)
Heartbeat CPU 0 instructions: 310000054 cycles: 534697961 heartbeat IPC: 0.6208 cumulative IPC: 0.5798 (Simulation time: 01 hr 12 min 26 sec)
[ERROR_CYCLE] Error added at CPU cycle 541023987, interval 21, pending count: 1
[DRAM_CYCLE_ERROR] Cycle-based error applied! address=0x11c8185ae0 additional_latency=173500 cycles
Heartbeat CPU 0 instructions: 320000054 cycles: 550827554 heartbeat IPC: 0.62 cumulative IPC: 0.5809 (Simulation time: 01 hr 14 min 30 sec)
Heartbeat CPU 0 instructions: 330000057 cycles: 566042322 heartbeat IPC: 0.6573 cumulative IPC: 0.583 (Simulation time: 01 hr 16 min 37 sec)
[ERROR_CYCLE] Error added at CPU cycle 566787034, interval 22, pending count: 1
[DRAM_CYCLE_ERROR] Cycle-based error applied! address=0x2728f5780 additional_latency=173500 cycles
Heartbeat CPU 0 instructions: 340000061 cycles: 579386404 heartbeat IPC: 0.7494 cumulative IPC: 0.5868 (Simulation time: 01 hr 17 min 58 sec)
[ERROR_CYCLE] Error added at CPU cycle 592550082, interval 23, pending count: 1
[DRAM_CYCLE_ERROR] Cycle-based error applied! address=0x1c9706cdd0 additional_latency=173500 cycles
Heartbeat CPU 0 instructions: 350000062 cycles: 592736974 heartbeat IPC: 0.749 cumulative IPC: 0.5905 (Simulation time: 01 hr 19 min 43 sec)
Heartbeat CPU 0 instructions: 360000066 cycles: 606086501 heartbeat IPC: 0.7491 cumulative IPC: 0.594 (Simulation time: 01 hr 21 min 46 sec)
[ERROR_CYCLE] Error added at CPU cycle 618313128, interval 24, pending count: 1
[DRAM_CYCLE_ERROR] Cycle-based error applied! address=0x51e83c88 additional_latency=173500 cycles
Heartbeat CPU 0 instructions: 370000067 cycles: 619447538 heartbeat IPC: 0.7484 cumulative IPC: 0.5973 (Simulation time: 01 hr 23 min 43 sec)
Heartbeat CPU 0 instructions: 380000068 cycles: 632789716 heartbeat IPC: 0.7495 cumulative IPC: 0.6005 (Simulation time: 01 hr 25 min 05 sec)
[ERROR_CYCLE] Error added at CPU cycle 644076176, interval 25, pending count: 1
[DRAM_CYCLE_ERROR] Cycle-based error applied! address=0x12f4465768 additional_latency=173500 cycles
Heartbeat CPU 0 instructions: 390000069 cycles: 646131089 heartbeat IPC: 0.7495 cumulative IPC: 0.6036 (Simulation time: 01 hr 26 min 43 sec)
Heartbeat CPU 0 instructions: 400000073 cycles: 659462216 heartbeat IPC: 0.7501 cumulative IPC: 0.6066 (Simulation time: 01 hr 28 min 06 sec)
[ERROR_CYCLE] Error added at CPU cycle 669839223, interval 26, pending count: 1
[DRAM_CYCLE_ERROR] Cycle-based error applied! address=0x78949d590 additional_latency=173500 cycles
Heartbeat CPU 0 instructions: 410000073 cycles: 672807602 heartbeat IPC: 0.7493 cumulative IPC: 0.6094 (Simulation time: 01 hr 29 min 26 sec)
Heartbeat CPU 0 instructions: 420000075 cycles: 686128248 heartbeat IPC: 0.7507 cumulative IPC: 0.6121 (Simulation time: 01 hr 31 min 08 sec)
[ERROR_CYCLE] Error added at CPU cycle 695602269, interval 27, pending count: 1
[DRAM_CYCLE_ERROR] Cycle-based error applied! address=0xae3ff8758 additional_latency=173500 cycles
Heartbeat CPU 0 instructions: 430000077 cycles: 699451951 heartbeat IPC: 0.7505 cumulative IPC: 0.6148 (Simulation time: 01 hr 33 min 09 sec)
Heartbeat CPU 0 instructions: 440000077 cycles: 712769410 heartbeat IPC: 0.7509 cumulative IPC: 0.6173 (Simulation time: 01 hr 35 min 14 sec)
[ERROR_CYCLE] Error added at CPU cycle 721365317, interval 28, pending count: 1
[DRAM_CYCLE_ERROR] Cycle-based error applied! address=0x6689b0d60 additional_latency=173500 cycles
Heartbeat CPU 0 instructions: 450000081 cycles: 726079801 heartbeat IPC: 0.7513 cumulative IPC: 0.6198 (Simulation time: 01 hr 37 min 16 sec)
Heartbeat CPU 0 instructions: 460000082 cycles: 739421927 heartbeat IPC: 0.7495 cumulative IPC: 0.6221 (Simulation time: 01 hr 39 min 15 sec)
[ERROR_CYCLE] Error added at CPU cycle 747128363, interval 29, pending count: 1
[DRAM_CYCLE_ERROR] Cycle-based error applied! address=0xa1f210580 additional_latency=173500 cycles
Heartbeat CPU 0 instructions: 470000084 cycles: 752733741 heartbeat IPC: 0.7512 cumulative IPC: 0.6244 (Simulation time: 01 hr 40 min 59 sec)
Heartbeat CPU 0 instructions: 480000084 cycles: 766055219 heartbeat IPC: 0.7507 cumulative IPC: 0.6266 (Simulation time: 01 hr 42 min 53 sec)
[ERROR_CYCLE] Error added at CPU cycle 772891410, interval 30, pending count: 1
[DRAM_CYCLE_ERROR] Cycle-based error applied! address=0x6b66708c0 additional_latency=173500 cycles
Heartbeat CPU 0 instructions: 490000084 cycles: 779392792 heartbeat IPC: 0.7498 cumulative IPC: 0.6287 (Simulation time: 01 hr 44 min 55 sec)
Heartbeat CPU 0 instructions: 500000084 cycles: 792715639 heartbeat IPC: 0.7506 cumulative IPC: 0.6307 (Simulation time: 01 hr 46 min 55 sec)
[ERROR_CYCLE] Error added at CPU cycle 798654458, interval 31, pending count: 1
[DRAM_CYCLE_ERROR] Cycle-based error applied! address=0x15c5c68c80 additional_latency=173500 cycles
Heartbeat CPU 0 instructions: 510000084 cycles: 806034303 heartbeat IPC: 0.7508 cumulative IPC: 0.6327 (Simulation time: 01 hr 48 min 55 sec)
Heartbeat CPU 0 instructions: 520000088 cycles: 819354997 heartbeat IPC: 0.7507 cumulative IPC: 0.6346 (Simulation time: 01 hr 50 min 56 sec)
[ERROR_CYCLE] Error added at CPU cycle 824417504, interval 32, pending count: 1
[DRAM_CYCLE_ERROR] Cycle-based error applied! address=0x1765bfc4b8 additional_latency=173500 cycles
Heartbeat CPU 0 instructions: 530000092 cycles: 832690145 heartbeat IPC: 0.7499 cumulative IPC: 0.6365 (Simulation time: 01 hr 52 min 57 sec)
Heartbeat CPU 0 instructions: 540000093 cycles: 846000434 heartbeat IPC: 0.7513 cumulative IPC: 0.6383 (Simulation time: 01 hr 54 min 38 sec)
[ERROR_CYCLE] Error added at CPU cycle 850180551, interval 33, pending count: 1
[DRAM_CYCLE_ERROR] Cycle-based error applied! address=0x146c89b4c0 additional_latency=173500 cycles
Heartbeat CPU 0 instructions: 550000095 cycles: 859325526 heartbeat IPC: 0.7505 cumulative IPC: 0.64 (Simulation time: 01 hr 55 min 55 sec)
Heartbeat CPU 0 instructions: 560000096 cycles: 872650890 heartbeat IPC: 0.7504 cumulative IPC: 0.6417 (Simulation time: 01 hr 57 min 13 sec)
[ERROR_CYCLE] Error added at CPU cycle 875943599, interval 34, pending count: 1
[DRAM_CYCLE_ERROR] Cycle-based error applied! address=0x99382d870 additional_latency=173500 cycles
Heartbeat CPU 0 instructions: 570000100 cycles: 885976279 heartbeat IPC: 0.7504 cumulative IPC: 0.6434 (Simulation time: 01 hr 58 min 30 sec)
Heartbeat CPU 0 instructions: 580000101 cycles: 899303401 heartbeat IPC: 0.7503 cumulative IPC: 0.6449 (Simulation time: 01 hr 59 min 51 sec)
[ERROR_CYCLE] Error added at CPU cycle 901706645, interval 35, pending count: 1
[DRAM_CYCLE_ERROR] Cycle-based error applied! address=0x1e1b5c3700 additional_latency=173500 cycles
Heartbeat CPU 0 instructions: 590000104 cycles: 912631660 heartbeat IPC: 0.7503 cumulative IPC: 0.6465 (Simulation time: 02 hr 01 min 12 sec)
Heartbeat CPU 0 instructions: 600000105 cycles: 925971324 heartbeat IPC: 0.7496 cumulative IPC: 0.648 (Simulation time: 02 hr 02 min 34 sec)
[ERROR_CYCLE] Error added at CPU cycle 927469692, interval 36, pending count: 1
[DRAM_CYCLE_ERROR] Cycle-based error applied! address=0xc18809300 additional_latency=173500 cycles
Heartbeat CPU 0 instructions: 610000105 cycles: 938872106 heartbeat IPC: 0.7751 cumulative IPC: 0.6497 (Simulation time: 02 hr 03 min 51 sec)
Heartbeat CPU 0 instructions: 620000105 cycles: 950730844 heartbeat IPC: 0.8433 cumulative IPC: 0.6521 (Simulation time: 02 hr 05 min 04 sec)
[ERROR_CYCLE] Error added at CPU cycle 953232740, interval 37, pending count: 1
[DRAM_CYCLE_ERROR] Cycle-based error applied! address=0x1960ff9280 additional_latency=173500 cycles
Heartbeat CPU 0 instructions: 630000106 cycles: 962606475 heartbeat IPC: 0.8421 cumulative IPC: 0.6545 (Simulation time: 02 hr 06 min 26 sec)
Heartbeat CPU 0 instructions: 640000110 cycles: 974463700 heartbeat IPC: 0.8434 cumulative IPC: 0.6568 (Simulation time: 02 hr 07 min 38 sec)
[ERROR_CYCLE] Error added at CPU cycle 978995786, interval 38, pending count: 1
[DRAM_CYCLE_ERROR] Cycle-based error applied! address=0xe5f5417c0 additional_latency=173500 cycles
Heartbeat CPU 0 instructions: 650000111 cycles: 986362254 heartbeat IPC: 0.8404 cumulative IPC: 0.659 (Simulation time: 02 hr 08 min 52 sec)
Heartbeat CPU 0 instructions: 660000112 cycles: 998227091 heartbeat IPC: 0.8428 cumulative IPC: 0.6612 (Simulation time: 02 hr 10 min 42 sec)
[ERROR_CYCLE] Error added at CPU cycle 1004758834, interval 39, pending count: 1
[DRAM_CYCLE_ERROR] Cycle-based error applied! address=0x137d26f380 additional_latency=173500 cycles
Heartbeat CPU 0 instructions: 670000112 cycles: 1010105423 heartbeat IPC: 0.8419 cumulative IPC: 0.6633 (Simulation time: 02 hr 12 min 21 sec)
Heartbeat CPU 0 instructions: 680000115 cycles: 1022138384 heartbeat IPC: 0.8311 cumulative IPC: 0.6653 (Simulation time: 02 hr 13 min 40 sec)
[ERROR_CYCLE] Error added at CPU cycle 1030521880, interval 40, pending count: 1
[DRAM_CYCLE_ERROR] Cycle-based error applied! address=0x6e24cff00 additional_latency=173500 cycles
Heartbeat CPU 0 instructions: 690000119 cycles: 1034408636 heartbeat IPC: 0.815 cumulative IPC: 0.667 (Simulation time: 02 hr 15 min 02 sec)
Heartbeat CPU 0 instructions: 700000119 cycles: 1045973215 heartbeat IPC: 0.8647 cumulative IPC: 0.6692 (Simulation time: 02 hr 16 min 13 sec)
[ERROR_CYCLE] Error added at CPU cycle 1056284927, interval 41, pending count: 1
[DRAM_CYCLE_ERROR] Cycle-based error applied! address=0x1874b69c00 additional_latency=173500 cycles
Heartbeat CPU 0 instructions: 710000119 cycles: 1057538851 heartbeat IPC: 0.8646 cumulative IPC: 0.6714 (Simulation time: 02 hr 17 min 24 sec)
Heartbeat CPU 0 instructions: 720000121 cycles: 1069081706 heartbeat IPC: 0.8663 cumulative IPC: 0.6735 (Simulation time: 02 hr 18 min 34 sec)
Heartbeat CPU 0 instructions: 730000121 cycles: 1080656794 heartbeat IPC: 0.8639 cumulative IPC: 0.6755 (Simulation time: 02 hr 19 min 47 sec)
[ERROR_CYCLE] Error added at CPU cycle 1082047975, interval 42, pending count: 1
[DRAM_CYCLE_ERROR] Cycle-based error applied! address=0x6358c66c0 additional_latency=173500 cycles
Heartbeat CPU 0 instructions: 740000123 cycles: 1092187038 heartbeat IPC: 0.8673 cumulative IPC: 0.6775 (Simulation time: 02 hr 20 min 59 sec)
Heartbeat CPU 0 instructions: 750000123 cycles: 1103752635 heartbeat IPC: 0.8646 cumulative IPC: 0.6795 (Simulation time: 02 hr 22 min 09 sec)
[ERROR_CYCLE] Error added at CPU cycle 1107811021, interval 43, pending count: 1
[DRAM_CYCLE_ERROR] Cycle-based error applied! address=0x1231660100 additional_latency=173500 cycles
Heartbeat CPU 0 instructions: 760000125 cycles: 1115319365 heartbeat IPC: 0.8645 cumulative IPC: 0.6814 (Simulation time: 02 hr 23 min 19 sec)
Heartbeat CPU 0 instructions: 770000129 cycles: 1127023491 heartbeat IPC: 0.8544 cumulative IPC: 0.6832 (Simulation time: 02 hr 24 min 30 sec)
[ERROR_CYCLE] Error added at CPU cycle 1133574068, interval 44, pending count: 1
[DRAM_CYCLE_ERROR] Cycle-based error applied! address=0x1bfb1dd240 additional_latency=173500 cycles
Heartbeat CPU 0 instructions: 780000129 cycles: 1139980312 heartbeat IPC: 0.7718 cumulative IPC: 0.6842 (Simulation time: 02 hr 25 min 47 sec)
Heartbeat CPU 0 instructions: 790000133 cycles: 1152967845 heartbeat IPC: 0.77 cumulative IPC: 0.6852 (Simulation time: 02 hr 27 min 04 sec)
[ERROR_CYCLE] Error added at CPU cycle 1159337116, interval 45, pending count: 1
[DRAM_CYCLE_ERROR] Cycle-based error applied! address=0x14e94b6380 additional_latency=173500 cycles
Heartbeat CPU 0 instructions: 800000134 cycles: 1165873372 heartbeat IPC: 0.7749 cumulative IPC: 0.6862 (Simulation time: 02 hr 28 min 21 sec)
Heartbeat CPU 0 instructions: 810000136 cycles: 1178756363 heartbeat IPC: 0.7762 cumulative IPC: 0.6872 (Simulation time: 02 hr 29 min 38 sec)
[ERROR_CYCLE] Error added at CPU cycle 1185100162, interval 46, pending count: 1
[DRAM_CYCLE_ERROR] Cycle-based error applied! address=0x15db864c80 additional_latency=173500 cycles
Heartbeat CPU 0 instructions: 820000136 cycles: 1191245372 heartbeat IPC: 0.8007 cumulative IPC: 0.6884 (Simulation time: 02 hr 30 min 52 sec)
Heartbeat CPU 0 instructions: 830000137 cycles: 1203643349 heartbeat IPC: 0.8066 cumulative IPC: 0.6896 (Simulation time: 02 hr 32 min 06 sec)
[ERROR_CYCLE] Error added at CPU cycle 1210863209, interval 47, pending count: 1
[DRAM_CYCLE_ERROR] Cycle-based error applied! address=0xe25457840 additional_latency=173500 cycles
Heartbeat CPU 0 instructions: 840000137 cycles: 1216043106 heartbeat IPC: 0.8065 cumulative IPC: 0.6908 (Simulation time: 02 hr 33 min 20 sec)
Heartbeat CPU 0 instructions: 850000140 cycles: 1228463192 heartbeat IPC: 0.8051 cumulative IPC: 0.6919 (Simulation time: 02 hr 34 min 33 sec)
[ERROR_CYCLE] Error added at CPU cycle 1236626257, interval 48, pending count: 1
[DRAM_CYCLE_ERROR] Cycle-based error applied! address=0x180825b300 additional_latency=173500 cycles
Heartbeat CPU 0 instructions: 860000144 cycles: 1241140327 heartbeat IPC: 0.7888 cumulative IPC: 0.6929 (Simulation time: 02 hr 35 min 48 sec)
Heartbeat CPU 0 instructions: 870000145 cycles: 1254007792 heartbeat IPC: 0.7772 cumulative IPC: 0.6938 (Simulation time: 02 hr 37 min 04 sec)
[ERROR_CYCLE] Error added at CPU cycle 1262389303, interval 49, pending count: 1
[DRAM_CYCLE_ERROR] Cycle-based error applied! address=0x1e16e8e880 additional_latency=173500 cycles
Heartbeat CPU 0 instructions: 880000147 cycles: 1266889715 heartbeat IPC: 0.7763 cumulative IPC: 0.6946 (Simulation time: 02 hr 38 min 20 sec)
Heartbeat CPU 0 instructions: 890000147 cycles: 1279759791 heartbeat IPC: 0.777 cumulative IPC: 0.6954 (Simulation time: 02 hr 39 min 35 sec)
[ERROR_CYCLE] Error added at CPU cycle 1288152351, interval 50, pending count: 1
[DRAM_CYCLE_ERROR] Cycle-based error applied! address=0x1599bbdc80 additional_latency=173500 cycles
Heartbeat CPU 0 instructions: 900000150 cycles: 1292502317 heartbeat IPC: 0.7848 cumulative IPC: 0.6963 (Simulation time: 02 hr 40 min 48 sec)
Heartbeat CPU 0 instructions: 910000151 cycles: 1305009596 heartbeat IPC: 0.7995 cumulative IPC: 0.6973 (Simulation time: 02 hr 42 min 01 sec)
[ERROR_CYCLE] Error added at CPU cycle 1313915398, interval 51, pending count: 1
[DRAM_CYCLE_ERROR] Cycle-based error applied! address=0x28280ee00 additional_latency=173500 cycles
Heartbeat CPU 0 instructions: 920000151 cycles: 1317486276 heartbeat IPC: 0.8015 cumulative IPC: 0.6983 (Simulation time: 02 hr 43 min 13 sec)
Heartbeat CPU 0 instructions: 930000151 cycles: 1329873767 heartbeat IPC: 0.8073 cumulative IPC: 0.6993 (Simulation time: 02 hr 44 min 25 sec)
[ERROR_CYCLE] Error added at CPU cycle 1339678444, interval 52, pending count: 1
[DRAM_CYCLE_ERROR] Cycle-based error applied! address=0xb17e53ac0 additional_latency=173500 cycles
Heartbeat CPU 0 instructions: 940000153 cycles: 1342285700 heartbeat IPC: 0.8057 cumulative IPC: 0.7003 (Simulation time: 02 hr 45 min 39 sec)
Heartbeat CPU 0 instructions: 950000156 cycles: 1355255452 heartbeat IPC: 0.771 cumulative IPC: 0.701 (Simulation time: 02 hr 46 min 53 sec)
[ERROR_CYCLE] Error added at CPU cycle 1365441492, interval 53, pending count: 1
[DRAM_CYCLE_ERROR] Cycle-based error applied! address=0x66ea7ae00 additional_latency=173500 cycles
Heartbeat CPU 0 instructions: 960000160 cycles: 1368222500 heartbeat IPC: 0.7712 cumulative IPC: 0.7016 (Simulation time: 02 hr 48 min 07 sec)
Heartbeat CPU 0 instructions: 970000161 cycles: 1381126357 heartbeat IPC: 0.775 cumulative IPC: 0.7023 (Simulation time: 02 hr 49 min 20 sec)
[ERROR_CYCLE] Error added at CPU cycle 1391204538, interval 54, pending count: 1
[DRAM_CYCLE_ERROR] Cycle-based error applied! address=0xc50c41500 additional_latency=173500 cycles
Heartbeat CPU 0 instructions: 980000165 cycles: 1394020140 heartbeat IPC: 0.7756 cumulative IPC: 0.703 (Simulation time: 02 hr 50 min 34 sec)
Heartbeat CPU 0 instructions: 990000165 cycles: 1406525087 heartbeat IPC: 0.7997 cumulative IPC: 0.7039 (Simulation time: 02 hr 51 min 46 sec)
[ERROR_CYCLE] Error added at CPU cycle 1416967585, interval 55, pending count: 1
[DRAM_CYCLE_ERROR] Cycle-based error applied! address=0x13a400a340 additional_latency=173500 cycles
Heartbeat CPU 0 instructions: 1000000165 cycles: 1418973538 heartbeat IPC: 0.8033 cumulative IPC: 0.7047 (Simulation time: 02 hr 52 min 59 sec)
Heartbeat CPU 0 instructions: 1010000168 cycles: 1431423661 heartbeat IPC: 0.8032 cumulative IPC: 0.7056 (Simulation time: 02 hr 54 min 12 sec)
[ERROR_CYCLE] Error added at CPU cycle 1442730633, interval 56, pending count: 1
[DRAM_CYCLE_ERROR] Cycle-based error applied! address=0x1233b0f240 additional_latency=173500 cycles
Heartbeat CPU 0 instructions: 1020000168 cycles: 1443847270 heartbeat IPC: 0.8049 cumulative IPC: 0.7064 (Simulation time: 02 hr 55 min 26 sec)
Heartbeat CPU 0 instructions: 1030000170 cycles: 1458233762 heartbeat IPC: 0.6951 cumulative IPC: 0.7063 (Simulation time: 02 hr 56 min 46 sec)
[ERROR_CYCLE] Error added at CPU cycle 1468493679, interval 57, pending count: 1
[DRAM_CYCLE_ERROR] Cycle-based error applied! address=0xdd3881200 additional_latency=173500 cycles
Heartbeat CPU 0 instructions: 1040000173 cycles: 1471153986 heartbeat IPC: 0.774 cumulative IPC: 0.7069 (Simulation time: 02 hr 58 min 00 sec)
Heartbeat CPU 0 instructions: 1050000175 cycles: 1483685045 heartbeat IPC: 0.798 cumulative IPC: 0.7077 (Simulation time: 02 hr 59 min 13 sec)
[ERROR_CYCLE] Error added at CPU cycle 1494256726, interval 58, pending count: 1
[DRAM_CYCLE_ERROR] Cycle-based error applied! address=0xaaec70140 additional_latency=173500 cycles
Heartbeat CPU 0 instructions: 1060000178 cycles: 1496230372 heartbeat IPC: 0.7971 cumulative IPC: 0.7084 (Simulation time: 03 hr 00 min 26 sec)
Heartbeat CPU 0 instructions: 1070000182 cycles: 1508801102 heartbeat IPC: 0.7955 cumulative IPC: 0.7092 (Simulation time: 03 hr 01 min 40 sec)
[ERROR_CYCLE] Error added at CPU cycle 1520019774, interval 59, pending count: 1
[DRAM_CYCLE_ERROR] Cycle-based error applied! address=0x1cacc41940 additional_latency=173500 cycles
Heartbeat CPU 0 instructions: 1080000183 cycles: 1521210368 heartbeat IPC: 0.8058 cumulative IPC: 0.71 (Simulation time: 03 hr 02 min 52 sec)
Heartbeat CPU 0 instructions: 1090000184 cycles: 1533443005 heartbeat IPC: 0.8175 cumulative IPC: 0.7108 (Simulation time: 03 hr 04 min 04 sec)
Heartbeat CPU 0 instructions: 1100000186 cycles: 1545645713 heartbeat IPC: 0.8195 cumulative IPC: 0.7117 (Simulation time: 03 hr 05 min 16 sec)
[ERROR_CYCLE] Error added at CPU cycle 1545782820, interval 60, pending count: 1
[DRAM_CYCLE_ERROR] Cycle-based error applied! address=0x1a6941fd00 additional_latency=173500 cycles
Heartbeat CPU 0 instructions: 1110000187 cycles: 1557730394 heartbeat IPC: 0.8275 cumulative IPC: 0.7126 (Simulation time: 03 hr 06 min 28 sec)
Heartbeat CPU 0 instructions: 1120000190 cycles: 1569893709 heartbeat IPC: 0.8221 cumulative IPC: 0.7134 (Simulation time: 03 hr 07 min 41 sec)
[ERROR_CYCLE] Error added at CPU cycle 1571545867, interval 61, pending count: 1
[DRAM_CYCLE_ERROR] Cycle-based error applied! address=0x1bd4d34180 additional_latency=173500 cycles
Heartbeat CPU 0 instructions: 1130000191 cycles: 1582535096 heartbeat IPC: 0.7911 cumulative IPC: 0.714 (Simulation time: 03 hr 08 min 56 sec)
Heartbeat CPU 0 instructions: 1140000193 cycles: 1595152004 heartbeat IPC: 0.7926 cumulative IPC: 0.7147 (Simulation time: 03 hr 10 min 09 sec)
[ERROR_CYCLE] Error added at CPU cycle 1597308915, interval 62, pending count: 1
[DRAM_CYCLE_ERROR] Cycle-based error applied! address=0xd418da00 additional_latency=173500 cycles
Heartbeat CPU 0 instructions: 1150000196 cycles: 1607758226 heartbeat IPC: 0.7933 cumulative IPC: 0.7153 (Simulation time: 03 hr 11 min 22 sec)
Heartbeat CPU 0 instructions: 1160000196 cycles: 1620305643 heartbeat IPC: 0.797 cumulative IPC: 0.7159 (Simulation time: 03 hr 12 min 35 sec)
[ERROR_CYCLE] Error added at CPU cycle 1623071961, interval 63, pending count: 1
[DRAM_CYCLE_ERROR] Cycle-based error applied! address=0xddabbc00 additional_latency=173500 cycles
Heartbeat CPU 0 instructions: 1170000199 cycles: 1632551889 heartbeat IPC: 0.8166 cumulative IPC: 0.7167 (Simulation time: 03 hr 13 min 47 sec)
Heartbeat CPU 0 instructions: 1180000199 cycles: 1644664301 heartbeat IPC: 0.8256 cumulative IPC: 0.7175 (Simulation time: 03 hr 14 min 58 sec)
[ERROR_CYCLE] Error added at CPU cycle 1648835009, interval 64, pending count: 1
[DRAM_CYCLE_ERROR] Cycle-based error applied! address=0x1d66d9ec0 additional_latency=173500 cycles
Heartbeat CPU 0 instructions: 1190000203 cycles: 1656797115 heartbeat IPC: 0.8242 cumulative IPC: 0.7183 (Simulation time: 03 hr 16 min 07 sec)
Heartbeat CPU 0 instructions: 1200000206 cycles: 1668941043 heartbeat IPC: 0.8235 cumulative IPC: 0.719 (Simulation time: 03 hr 17 min 18 sec)
[ERROR_CYCLE] Error added at CPU cycle 1674598055, interval 65, pending count: 1
[DRAM_CYCLE_ERROR] Cycle-based error applied! address=0x1d705fc300 additional_latency=173500 cycles
Heartbeat CPU 0 instructions: 1210000210 cycles: 1681201908 heartbeat IPC: 0.8156 cumulative IPC: 0.7197 (Simulation time: 03 hr 18 min 29 sec)
Heartbeat CPU 0 instructions: 1220000210 cycles: 1693743108 heartbeat IPC: 0.7974 cumulative IPC: 0.7203 (Simulation time: 03 hr 19 min 41 sec)
[ERROR_CYCLE] Error added at CPU cycle 1700361102, interval 66, pending count: 1
[DRAM_CYCLE_ERROR] Cycle-based error applied! address=0xdb2c8afc0 additional_latency=173500 cycles
Heartbeat CPU 0 instructions: 1230000212 cycles: 1706288854 heartbeat IPC: 0.7971 cumulative IPC: 0.7209 (Simulation time: 03 hr 20 min 54 sec)
Heartbeat CPU 0 instructions: 1240000213 cycles: 1718851551 heartbeat IPC: 0.796 cumulative IPC: 0.7214 (Simulation time: 03 hr 22 min 07 sec)
[ERROR_CYCLE] Error added at CPU cycle 1726124150, interval 67, pending count: 1
[DRAM_CYCLE_ERROR] Cycle-based error applied! address=0x121eaa6ac0 additional_latency=173500 cycles
Heartbeat CPU 0 instructions: 1250000215 cycles: 1731407510 heartbeat IPC: 0.7964 cumulative IPC: 0.722 (Simulation time: 03 hr 23 min 20 sec)
Heartbeat CPU 0 instructions: 1260000215 cycles: 1743680100 heartbeat IPC: 0.8148 cumulative IPC: 0.7226 (Simulation time: 03 hr 24 min 30 sec)
[ERROR_CYCLE] Error added at CPU cycle 1751887196, interval 68, pending count: 1
[DRAM_CYCLE_ERROR] Cycle-based error applied! address=0x1566ceab00 additional_latency=173500 cycles
Heartbeat CPU 0 instructions: 1270000215 cycles: 1755922853 heartbeat IPC: 0.8168 cumulative IPC: 0.7233 (Simulation time: 03 hr 25 min 40 sec)
Heartbeat CPU 0 instructions: 1280000219 cycles: 1768045856 heartbeat IPC: 0.8249 cumulative IPC: 0.724 (Simulation time: 03 hr 26 min 50 sec)
[ERROR_CYCLE] Error added at CPU cycle 1777650243, interval 69, pending count: 1
[DRAM_CYCLE_ERROR] Cycle-based error applied! address=0xcf319e280 additional_latency=173500 cycles
Heartbeat CPU 0 instructions: 1290000222 cycles: 1780144641 heartbeat IPC: 0.8265 cumulative IPC: 0.7247 (Simulation time: 03 hr 28 min 00 sec)
[ERROR_CYCLE] Error added at CPU cycle 1803413291, interval 70, pending count: 1
[DRAM_CYCLE_ERROR] Cycle-based error applied! address=0x15ae103790 additional_latency=173500 cycles
[ERROR_CYCLE] Error added at CPU cycle 1829176337, interval 71, pending count: 1
[DRAM_CYCLE_ERROR] Cycle-based error applied! address=0x1621542070 additional_latency=173500 cycles
Heartbeat CPU 0 instructions: 1300000224 cycles: 1841804297 heartbeat IPC: 0.1622 cumulative IPC: 0.7058 (Simulation time: 03 hr 34 min 50 sec)
[ERROR_CYCLE] Error added at CPU cycle 1854939384, interval 72, pending count: 1
[DRAM_CYCLE_ERROR] Cycle-based error applied! address=0x48da89cc0 additional_latency=173500 cycles
Heartbeat CPU 0 instructions: 1310000228 cycles: 1855097798 heartbeat IPC: 0.7522 cumulative IPC: 0.7062 (Simulation time: 03 hr 37 min 00 sec)
Heartbeat CPU 0 instructions: 1320000229 cycles: 1867630176 heartbeat IPC: 0.7979 cumulative IPC: 0.7068 (Simulation time: 03 hr 39 min 02 sec)
Heartbeat CPU 0 instructions: 1330000229 cycles: 1880145776 heartbeat IPC: 0.799 cumulative IPC: 0.7074 (Simulation time: 03 hr 41 min 06 sec)
[ERROR_CYCLE] Error added at CPU cycle 1880702432, interval 73, pending count: 1
[DRAM_CYCLE_ERROR] Cycle-based error applied! address=0x1cc394800 additional_latency=173500 cycles
Heartbeat CPU 0 instructions: 1340000231 cycles: 1892678914 heartbeat IPC: 0.7979 cumulative IPC: 0.708 (Simulation time: 03 hr 43 min 06 sec)
Heartbeat CPU 0 instructions: 1350000232 cycles: 1905224464 heartbeat IPC: 0.7971 cumulative IPC: 0.7086 (Simulation time: 03 hr 45 min 11 sec)
[ERROR_CYCLE] Error added at CPU cycle 1906465478, interval 74, pending count: 1
[DRAM_CYCLE_ERROR] Cycle-based error applied! address=0x1ff17e6240 additional_latency=173500 cycles
Heartbeat CPU 0 instructions: 1360000232 cycles: 1917537825 heartbeat IPC: 0.8121 cumulative IPC: 0.7092 (Simulation time: 03 hr 47 min 14 sec)
Heartbeat CPU 0 instructions: 1370000232 cycles: 1929665088 heartbeat IPC: 0.8246 cumulative IPC: 0.71 (Simulation time: 03 hr 49 min 14 sec)
[ERROR_CYCLE] Error added at CPU cycle 1932228526, interval 75, pending count: 1
[DRAM_CYCLE_ERROR] Cycle-based error applied! address=0x10cd1808c0 additional_latency=173500 cycles
Heartbeat CPU 0 instructions: 1380000236 cycles: 1942134004 heartbeat IPC: 0.802 cumulative IPC: 0.7106 (Simulation time: 03 hr 51 min 19 sec)
Heartbeat CPU 0 instructions: 1390000240 cycles: 1954604466 heartbeat IPC: 0.8019 cumulative IPC: 0.7111 (Simulation time: 03 hr 53 min 24 sec)
[ERROR_CYCLE] Error added at CPU cycle 1957991572, interval 76, pending count: 1
[DRAM_CYCLE_ERROR] Cycle-based error applied! address=0x131b8e0240 additional_latency=173500 cycles
Heartbeat CPU 0 instructions: 1400000244 cycles: 1967002472 heartbeat IPC: 0.8066 cumulative IPC: 0.7117 (Simulation time: 03 hr 55 min 30 sec)
Heartbeat CPU 0 instructions: 1410000244 cycles: 1979730204 heartbeat IPC: 0.7857 cumulative IPC: 0.7122 (Simulation time: 03 hr 57 min 35 sec)
[ERROR_CYCLE] Error added at CPU cycle 1983754619, interval 77, pending count: 1
[DRAM_CYCLE_ERROR] Cycle-based error applied! address=0x5ee99f600 additional_latency=173500 cycles
Heartbeat CPU 0 instructions: 1420000247 cycles: 1992756514 heartbeat IPC: 0.7677 cumulative IPC: 0.7126 (Simulation time: 03 hr 59 min 39 sec)
Heartbeat CPU 0 instructions: 1430000249 cycles: 2005637630 heartbeat IPC: 0.7763 cumulative IPC: 0.713 (Simulation time: 04 hr 01 min 41 sec)
[ERROR_CYCLE] Error added at CPU cycle 2009517667, interval 78, pending count: 1
[DRAM_CYCLE_ERROR] Cycle-based error applied! address=0x1f300f6d48 additional_latency=173500 cycles
Heartbeat CPU 0 instructions: 1440000249 cycles: 2018437405 heartbeat IPC: 0.7813 cumulative IPC: 0.7134 (Simulation time: 04 hr 03 min 42 sec)
Heartbeat CPU 0 instructions: 1450000253 cycles: 2030972130 heartbeat IPC: 0.7978 cumulative IPC: 0.7139 (Simulation time: 04 hr 05 min 42 sec)
[ERROR_CYCLE] Error added at CPU cycle 2035280713, interval 79, pending count: 1
[DRAM_CYCLE_ERROR] Cycle-based error applied! address=0x1a4fae9bc0 additional_latency=173500 cycles
Heartbeat CPU 0 instructions: 1460000257 cycles: 2043495957 heartbeat IPC: 0.7985 cumulative IPC: 0.7145 (Simulation time: 04 hr 07 min 42 sec)
Heartbeat CPU 0 instructions: 1470000261 cycles: 2056021084 heartbeat IPC: 0.7984 cumulative IPC: 0.715 (Simulation time: 04 hr 09 min 43 sec)
[ERROR_CYCLE] Error added at CPU cycle 2061043760, interval 80, pending count: 1
[DRAM_CYCLE_ERROR] Cycle-based error applied! address=0x46cda5940 additional_latency=173500 cycles
Heartbeat CPU 0 instructions: 1480000263 cycles: 2068583005 heartbeat IPC: 0.7961 cumulative IPC: 0.7155 (Simulation time: 04 hr 11 min 40 sec)
Heartbeat CPU 0 instructions: 1490000265 cycles: 2081066758 heartbeat IPC: 0.801 cumulative IPC: 0.716 (Simulation time: 04 hr 13 min 39 sec)
[ERROR_CYCLE] Error added at CPU cycle 2086806808, interval 81, pending count: 1
[DRAM_CYCLE_ERROR] Cycle-based error applied! address=0x1c92a1e040 additional_latency=173500 cycles
Heartbeat CPU 0 instructions: 1500000266 cycles: 2093196729 heartbeat IPC: 0.8244 cumulative IPC: 0.7166 (Simulation time: 04 hr 15 min 37 sec)
Heartbeat CPU 0 instructions: 1510000266 cycles: 2105520011 heartbeat IPC: 0.8115 cumulative IPC: 0.7172 (Simulation time: 04 hr 17 min 34 sec)
[ERROR_CYCLE] Error added at CPU cycle 2112569854, interval 82, pending count: 1
[DRAM_CYCLE_ERROR] Cycle-based error applied! address=0x4cb1b0180 additional_latency=173500 cycles
Heartbeat CPU 0 instructions: 1520000269 cycles: 2118023027 heartbeat IPC: 0.7998 cumulative IPC: 0.7177 (Simulation time: 04 hr 19 min 32 sec)
Heartbeat CPU 0 instructions: 1530000272 cycles: 2130443763 heartbeat IPC: 0.8051 cumulative IPC: 0.7182 (Simulation time: 04 hr 21 min 28 sec)
[ERROR_CYCLE] Error added at CPU cycle 2138332901, interval 83, pending count: 1
[DRAM_CYCLE_ERROR] Cycle-based error applied! address=0x1403716048 additional_latency=173500 cycles
Heartbeat CPU 0 instructions: 1540000276 cycles: 2142941863 heartbeat IPC: 0.8001 cumulative IPC: 0.7186 (Simulation time: 04 hr 23 min 23 sec)
Heartbeat CPU 0 instructions: 1550000277 cycles: 2155976779 heartbeat IPC: 0.7672 cumulative IPC: 0.7189 (Simulation time: 04 hr 25 min 23 sec)
[ERROR_CYCLE] Error added at CPU cycle 2164095949, interval 84, pending count: 1
[DRAM_CYCLE_ERROR] Cycle-based error applied! address=0x9acd48488 additional_latency=173500 cycles
Heartbeat CPU 0 instructions: 1560000278 cycles: 2168935520 heartbeat IPC: 0.7717 cumulative IPC: 0.7192 (Simulation time: 04 hr 27 min 22 sec)
Heartbeat CPU 0 instructions: 1570000281 cycles: 2181794351 heartbeat IPC: 0.7777 cumulative IPC: 0.7196 (Simulation time: 04 hr 29 min 18 sec)
[ERROR_CYCLE] Error added at CPU cycle 2189858995, interval 85, pending count: 1
[DRAM_CYCLE_ERROR] Cycle-based error applied! address=0x1bb2072000 additional_latency=173500 cycles
Heartbeat CPU 0 instructions: 1580000281 cycles: 2194389566 heartbeat IPC: 0.794 cumulative IPC: 0.72 (Simulation time: 04 hr 31 min 15 sec)
Heartbeat CPU 0 instructions: 1590000285 cycles: 2206923252 heartbeat IPC: 0.7979 cumulative IPC: 0.7205 (Simulation time: 04 hr 33 min 11 sec)
[ERROR_CYCLE] Error added at CPU cycle 2215622043, interval 86, pending count: 1
[DRAM_CYCLE_ERROR] Cycle-based error applied! address=0x46f72fa40 additional_latency=173500 cycles
Heartbeat CPU 0 instructions: 1600000289 cycles: 2219451938 heartbeat IPC: 0.7982 cumulative IPC: 0.7209 (Simulation time: 04 hr 35 min 07 sec)
Heartbeat CPU 0 instructions: 1610000292 cycles: 2231982079 heartbeat IPC: 0.7981 cumulative IPC: 0.7213 (Simulation time: 04 hr 37 min 02 sec)
[ERROR_CYCLE] Error added at CPU cycle 2241385090, interval 87, pending count: 1
[DRAM_CYCLE_ERROR] Cycle-based error applied! address=0x108aec6088 additional_latency=173500 cycles
Heartbeat CPU 0 instructions: 1620000294 cycles: 2244543459 heartbeat IPC: 0.7961 cumulative IPC: 0.7218 (Simulation time: 04 hr 38 min 58 sec)
Heartbeat CPU 0 instructions: 1630000294 cycles: 2256768102 heartbeat IPC: 0.818 cumulative IPC: 0.7223 (Simulation time: 04 hr 40 min 51 sec)
[ERROR_CYCLE] Error added at CPU cycle 2267148136, interval 88, pending count: 1
[DRAM_CYCLE_ERROR] Cycle-based error applied! address=0x1e94eeae00 additional_latency=173500 cycles
Heartbeat CPU 0 instructions: 1640000294 cycles: 2268941377 heartbeat IPC: 0.8215 cumulative IPC: 0.7228 (Simulation time: 04 hr 42 min 44 sec)
Heartbeat CPU 0 instructions: 1650000298 cycles: 2281440481 heartbeat IPC: 0.8001 cumulative IPC: 0.7232 (Simulation time: 04 hr 44 min 39 sec)
[ERROR_CYCLE] Error added at CPU cycle 2292911184, interval 89, pending count: 1
[DRAM_CYCLE_ERROR] Cycle-based error applied! address=0x9f42abbc8 additional_latency=173500 cycles
Heartbeat CPU 0 instructions: 1660000300 cycles: 2293903342 heartbeat IPC: 0.8024 cumulative IPC: 0.7237 (Simulation time: 04 hr 46 min 35 sec)
Heartbeat CPU 0 instructions: 1670000303 cycles: 2306309888 heartbeat IPC: 0.806 cumulative IPC: 0.7241 (Simulation time: 04 hr 48 min 31 sec)
[ERROR_CYCLE] Error added at CPU cycle 2318674230, interval 90, pending count: 1
[DRAM_CYCLE_ERROR] Cycle-based error applied! address=0x1b37bcb00 additional_latency=173500 cycles
Heartbeat CPU 0 instructions: 1680000304 cycles: 2319202676 heartbeat IPC: 0.7756 cumulative IPC: 0.7244 (Simulation time: 04 hr 50 min 31 sec)
Heartbeat CPU 0 instructions: 1690000304 cycles: 2332224703 heartbeat IPC: 0.7679 cumulative IPC: 0.7246 (Simulation time: 04 hr 52 min 30 sec)
[ERROR_CYCLE] Error added at CPU cycle 2344437277, interval 91, pending count: 1
[DRAM_CYCLE_ERROR] Cycle-based error applied! address=0x188619c3c0 additional_latency=173500 cycles
Heartbeat CPU 0 instructions: 1700000307 cycles: 2345087827 heartbeat IPC: 0.7774 cumulative IPC: 0.7249 (Simulation time: 04 hr 54 min 29 sec)
Heartbeat CPU 0 instructions: 1710000307 cycles: 2357807490 heartbeat IPC: 0.7862 cumulative IPC: 0.7253 (Simulation time: 04 hr 56 min 26 sec)
[ERROR_CYCLE] Error added at CPU cycle 2370200325, interval 92, pending count: 1
[DRAM_CYCLE_ERROR] Cycle-based error applied! address=0x1e8ababdc0 additional_latency=173500 cycles
Heartbeat CPU 0 instructions: 1720000309 cycles: 2370345287 heartbeat IPC: 0.7976 cumulative IPC: 0.7256 (Simulation time: 04 hr 58 min 21 sec)
Heartbeat CPU 0 instructions: 1730000312 cycles: 2382858705 heartbeat IPC: 0.7991 cumulative IPC: 0.726 (Simulation time: 05 hr 00 min 17 sec)
Heartbeat CPU 0 instructions: 1740000315 cycles: 2395383212 heartbeat IPC: 0.7984 cumulative IPC: 0.7264 (Simulation time: 05 hr 02 min 14 sec)
[ERROR_CYCLE] Error added at CPU cycle 2395963371, interval 93, pending count: 1
[DRAM_CYCLE_ERROR] Cycle-based error applied! address=0xbf29cf1c8 additional_latency=173500 cycles
Heartbeat CPU 0 instructions: 1750000317 cycles: 2407943969 heartbeat IPC: 0.7961 cumulative IPC: 0.7268 (Simulation time: 05 hr 04 min 11 sec)
Heartbeat CPU 0 instructions: 1760000320 cycles: 2420337340 heartbeat IPC: 0.8069 cumulative IPC: 0.7272 (Simulation time: 05 hr 06 min 05 sec)
[ERROR_CYCLE] Error added at CPU cycle 2421726418, interval 94, pending count: 1
[DRAM_CYCLE_ERROR] Cycle-based error applied! address=0x14b94df00 additional_latency=173500 cycles
Heartbeat CPU 0 instructions: 1770000320 cycles: 2432461309 heartbeat IPC: 0.8248 cumulative IPC: 0.7277 (Simulation time: 05 hr 07 min 58 sec)
Heartbeat CPU 0 instructions: 1780000323 cycles: 2444859129 heartbeat IPC: 0.8066 cumulative IPC: 0.7281 (Simulation time: 05 hr 09 min 53 sec)
[ERROR_CYCLE] Error added at CPU cycle 2447489466, interval 95, pending count: 1
[DRAM_CYCLE_ERROR] Cycle-based error applied! address=0x18165299f8 additional_latency=173500 cycles
Heartbeat CPU 0 instructions: 1790000323 cycles: 2457351351 heartbeat IPC: 0.8005 cumulative IPC: 0.7284 (Simulation time: 05 hr 11 min 47 sec)
Heartbeat CPU 0 instructions: 1800000323 cycles: 2469751786 heartbeat IPC: 0.8064 cumulative IPC: 0.7288 (Simulation time: 05 hr 13 min 42 sec)
[ERROR_CYCLE] Error added at CPU cycle 2473252512, interval 96, pending count: 1
[DRAM_CYCLE_ERROR] Cycle-based error applied! address=0xed013dd48 additional_latency=173500 cycles
Heartbeat CPU 0 instructions: 1810000327 cycles: 2482394359 heartbeat IPC: 0.791 cumulative IPC: 0.7291 (Simulation time: 05 hr 15 min 39 sec)
Heartbeat CPU 0 instructions: 1820000330 cycles: 2495432350 heartbeat IPC: 0.767 cumulative IPC: 0.7293 (Simulation time: 05 hr 17 min 38 sec)
[ERROR_CYCLE] Error added at CPU cycle 2499015559, interval 97, pending count: 1
[DRAM_CYCLE_ERROR] Cycle-based error applied! address=0x13c6c3be88 additional_latency=173500 cycles
Heartbeat CPU 0 instructions: 1830000330 cycles: 2508348539 heartbeat IPC: 0.7742 cumulative IPC: 0.7296 (Simulation time: 05 hr 19 min 37 sec)
Heartbeat CPU 0 instructions: 1840000334 cycles: 2521199150 heartbeat IPC: 0.7782 cumulative IPC: 0.7298 (Simulation time: 05 hr 21 min 36 sec)
[ERROR_CYCLE] Error added at CPU cycle 2524778607, interval 98, pending count: 1
[DRAM_CYCLE_ERROR] Cycle-based error applied! address=0x1a46257cc0 additional_latency=173500 cycles
Heartbeat CPU 0 instructions: 1850000337 cycles: 2533726410 heartbeat IPC: 0.7983 cumulative IPC: 0.7301 (Simulation time: 05 hr 23 min 33 sec)
Heartbeat CPU 0 instructions: 1860000340 cycles: 2546251972 heartbeat IPC: 0.7984 cumulative IPC: 0.7305 (Simulation time: 05 hr 25 min 29 sec)
[ERROR_CYCLE] Error added at CPU cycle 2550541653, interval 99, pending count: 1
[DRAM_CYCLE_ERROR] Cycle-based error applied! address=0x1938e7180 additional_latency=173500 cycles
Heartbeat CPU 0 instructions: 1870000344 cycles: 2558760166 heartbeat IPC: 0.7995 cumulative IPC: 0.7308 (Simulation time: 05 hr 27 min 25 sec)
Heartbeat CPU 0 instructions: 1880000345 cycles: 2571285466 heartbeat IPC: 0.7984 cumulative IPC: 0.7312 (Simulation time: 05 hr 29 min 21 sec)
[ERROR_CYCLE] Error added at CPU cycle 2576304701, interval 100, pending count: 1
[DRAM_CYCLE_ERROR] Cycle-based error applied! address=0x194feec808 additional_latency=173500 cycles
Heartbeat CPU 0 instructions: 1890000348 cycles: 2583832151 heartbeat IPC: 0.797 cumulative IPC: 0.7315 (Simulation time: 05 hr 31 min 17 sec)
Heartbeat CPU 0 instructions: 1900000352 cycles: 2595962523 heartbeat IPC: 0.8244 cumulative IPC: 0.7319 (Simulation time: 05 hr 33 min 10 sec)
[ERROR_CYCLE] Error added at CPU cycle 2602067747, interval 101, pending count: 1
[DRAM_CYCLE_ERROR] Cycle-based error applied! address=0xa44adfc00 additional_latency=173500 cycles
Heartbeat CPU 0 instructions: 1910000353 cycles: 2608211874 heartbeat IPC: 0.8164 cumulative IPC: 0.7323 (Simulation time: 05 hr 35 min 05 sec)
Heartbeat CPU 0 instructions: 1920000357 cycles: 2620713341 heartbeat IPC: 0.7999 cumulative IPC: 0.7326 (Simulation time: 05 hr 37 min 01 sec)
[ERROR_CYCLE] Error added at CPU cycle 2627830794, interval 102, pending count: 1
[DRAM_CYCLE_ERROR] Cycle-based error applied! address=0x1eb93aee48 additional_latency=173500 cycles
Heartbeat CPU 0 instructions: 1930000361 cycles: 2633172504 heartbeat IPC: 0.8026 cumulative IPC: 0.733 (Simulation time: 05 hr 38 min 58 sec)
Heartbeat CPU 0 instructions: 1940000361 cycles: 2645568375 heartbeat IPC: 0.8067 cumulative IPC: 0.7333 (Simulation time: 05 hr 40 min 52 sec)
[ERROR_CYCLE] Error added at CPU cycle 2653593842, interval 103, pending count: 1
[DRAM_CYCLE_ERROR] Cycle-based error applied! address=0x680e58a08 additional_latency=173500 cycles
Heartbeat CPU 0 instructions: 1950000365 cycles: 2658606901 heartbeat IPC: 0.767 cumulative IPC: 0.7335 (Simulation time: 05 hr 42 min 53 sec)
Heartbeat CPU 0 instructions: 1960000369 cycles: 2671580947 heartbeat IPC: 0.7708 cumulative IPC: 0.7336 (Simulation time: 05 hr 44 min 52 sec)
[ERROR_CYCLE] Error added at CPU cycle 2679356888, interval 104, pending count: 1
[DRAM_CYCLE_ERROR] Cycle-based error applied! address=0x180a8272c8 additional_latency=173500 cycles
Heartbeat CPU 0 instructions: 1970000369 cycles: 2684438997 heartbeat IPC: 0.7777 cumulative IPC: 0.7339 (Simulation time: 05 hr 46 min 50 sec)
Heartbeat CPU 0 instructions: 1980000373 cycles: 2697083271 heartbeat IPC: 0.7909 cumulative IPC: 0.7341 (Simulation time: 05 hr 48 min 46 sec)
[ERROR_CYCLE] Error added at CPU cycle 2705119935, interval 105, pending count: 1
[DRAM_CYCLE_ERROR] Cycle-based error applied! address=0x1b54ea78c8 additional_latency=173500 cycles
Heartbeat CPU 0 instructions: 1990000374 cycles: 2709610726 heartbeat IPC: 0.7982 cumulative IPC: 0.7344 (Simulation time: 05 hr 50 min 38 sec)

=== ERROR PAGE STATISTICS ===
Mode: CYCLE
Error Cycle Interval: 25763047 CPU cycles
Total Error Accesses: 105
==============================
Simulation finished CPU 0 instructions: 1999999509 cycles: 2722135229 cumulative IPC: 0.7347 (Simulation time: 05 hr 52 min 31 sec)
Simulation complete CPU 0 instructions: 1999999509 cycles: 2722135229 cumulative IPC: 0.7347 (Simulation time: 05 hr 52 min 31 sec)

ChampSim completed all CPUs

=== Simulation ===
CPU 0 runs test_traces/649.fotonik3d_s-10881B.champsimtrace.xz

Region of Interest Statistics

CPU 0 cumulative IPC: 0.7347 instructions: 1999999509 cycles: 2722135229
CPU 0 Branch Prediction Accuracy: 97.24% MPKI: 0.2738 Average ROB Occupancy at Mispredict: 264.7
Branch type MPKI
BRANCH_DIRECT_JUMP: 5.5e-06
BRANCH_INDIRECT: 0
BRANCH_CONDITIONAL: 0.2738
BRANCH_DIRECT_CALL: 5e-07
BRANCH_INDIRECT_CALL: 0
BRANCH_RETURN: 5e-07

cpu0->cpu0_STLB TOTAL        ACCESS:    6979657 HIT:    3617874 MISS:    3361783 MSHR_MERGE:          0
cpu0->cpu0_STLB LOAD         ACCESS:    6979657 HIT:    3617874 MISS:    3361783 MSHR_MERGE:          0
cpu0->cpu0_STLB RFO          ACCESS:          0 HIT:          0 MISS:          0 MSHR_MERGE:          0
cpu0->cpu0_STLB PREFETCH     ACCESS:          0 HIT:          0 MISS:          0 MSHR_MERGE:          0
cpu0->cpu0_STLB WRITE        ACCESS:          0 HIT:          0 MISS:          0 MSHR_MERGE:          0
cpu0->cpu0_STLB TRANSLATION  ACCESS:          0 HIT:          0 MISS:          0 MSHR_MERGE:          0
cpu0->cpu0_STLB PREFETCH REQUESTED:          0 ISSUED:          0 USEFUL:          0 USELESS:          0
cpu0->cpu0_STLB AVERAGE MISS LATENCY: 344.5 cycles
cpu0->cpu0_L2C TOTAL        ACCESS:   51671918 HIT:   16866538 MISS:   34805380 MSHR_MERGE:          0
cpu0->cpu0_L2C LOAD         ACCESS:   36315916 HIT:    1511088 MISS:   34804828 MSHR_MERGE:          0
cpu0->cpu0_L2C RFO          ACCESS:       2047 HIT:       2005 MISS:         42 MSHR_MERGE:          0
cpu0->cpu0_L2C PREFETCH     ACCESS:          0 HIT:          0 MISS:          0 MSHR_MERGE:          0
cpu0->cpu0_L2C WRITE        ACCESS:   15353955 HIT:   15353445 MISS:        510 MSHR_MERGE:          0
cpu0->cpu0_L2C TRANSLATION  ACCESS:          0 HIT:          0 MISS:          0 MSHR_MERGE:          0
cpu0->cpu0_L2C PREFETCH REQUESTED:          0 ISSUED:          0 USEFUL:          0 USELESS:          0
cpu0->cpu0_L2C AVERAGE MISS LATENCY: 117 cycles
cpu0->cpu0_L1I TOTAL        ACCESS:  500909532 HIT:  500908595 MISS:        937 MSHR_MERGE:        398
cpu0->cpu0_L1I LOAD         ACCESS:  500909532 HIT:  500908595 MISS:        937 MSHR_MERGE:        398
cpu0->cpu0_L1I RFO          ACCESS:          0 HIT:          0 MISS:          0 MSHR_MERGE:          0
cpu0->cpu0_L1I PREFETCH     ACCESS:          0 HIT:          0 MISS:          0 MSHR_MERGE:          0
cpu0->cpu0_L1I WRITE        ACCESS:          0 HIT:          0 MISS:          0 MSHR_MERGE:          0
cpu0->cpu0_L1I TRANSLATION  ACCESS:          0 HIT:          0 MISS:          0 MSHR_MERGE:          0
cpu0->cpu0_L1I PREFETCH REQUESTED:          0 ISSUED:          0 USEFUL:          0 USELESS:          0
cpu0->cpu0_L1I AVERAGE MISS LATENCY: 136.8 cycles
cpu0->cpu0_L1D TOTAL        ACCESS:  960405357 HIT:  915413592 MISS:   44991765 MSHR_MERGE:    8674330
cpu0->cpu0_L1D LOAD         ACCESS:  842767915 HIT:  797779739 MISS:   44988176 MSHR_MERGE:    8672798
cpu0->cpu0_L1D RFO          ACCESS:          0 HIT:          0 MISS:          0 MSHR_MERGE:          0
cpu0->cpu0_L1D PREFETCH     ACCESS:          0 HIT:          0 MISS:          0 MSHR_MERGE:          0
cpu0->cpu0_L1D WRITE        ACCESS:  117637442 HIT:  117633853 MISS:       3589 MSHR_MERGE:       1532
cpu0->cpu0_L1D TRANSLATION  ACCESS:          0 HIT:          0 MISS:          0 MSHR_MERGE:          0
cpu0->cpu0_L1D PREFETCH REQUESTED:          0 ISSUED:          0 USEFUL:          0 USELESS:          0
cpu0->cpu0_L1D AVERAGE MISS LATENCY: 121.1 cycles
cpu0->cpu0_ITLB TOTAL        ACCESS:  433911732 HIT:  433911672 MISS:         60 MSHR_MERGE:         48
cpu0->cpu0_ITLB LOAD         ACCESS:  433911732 HIT:  433911672 MISS:         60 MSHR_MERGE:         48
cpu0->cpu0_ITLB RFO          ACCESS:          0 HIT:          0 MISS:          0 MSHR_MERGE:          0
cpu0->cpu0_ITLB PREFETCH     ACCESS:          0 HIT:          0 MISS:          0 MSHR_MERGE:          0
cpu0->cpu0_ITLB WRITE        ACCESS:          0 HIT:          0 MISS:          0 MSHR_MERGE:          0
cpu0->cpu0_ITLB TRANSLATION  ACCESS:          0 HIT:          0 MISS:          0 MSHR_MERGE:          0
cpu0->cpu0_ITLB PREFETCH REQUESTED:          0 ISSUED:          0 USEFUL:          0 USELESS:          0
cpu0->cpu0_ITLB AVERAGE MISS LATENCY: 735.4 cycles
cpu0->cpu0_DTLB TOTAL        ACCESS:  901398718 HIT:  892475678 MISS:    8923040 MSHR_MERGE:    1943395
cpu0->cpu0_DTLB LOAD         ACCESS:  901398718 HIT:  892475678 MISS:    8923040 MSHR_MERGE:    1943395
cpu0->cpu0_DTLB RFO          ACCESS:          0 HIT:          0 MISS:          0 MSHR_MERGE:          0
cpu0->cpu0_DTLB PREFETCH     ACCESS:          0 HIT:          0 MISS:          0 MSHR_MERGE:          0
cpu0->cpu0_DTLB WRITE        ACCESS:          0 HIT:          0 MISS:          0 MSHR_MERGE:          0
cpu0->cpu0_DTLB TRANSLATION  ACCESS:          0 HIT:          0 MISS:          0 MSHR_MERGE:          0
cpu0->cpu0_DTLB PREFETCH REQUESTED:          0 ISSUED:          0 USEFUL:          0 USELESS:          0
cpu0->cpu0_DTLB AVERAGE MISS LATENCY: 171.4 cycles
cpu0->LLC TOTAL        ACCESS:   50152812 HIT:   17653242 MISS:   32499570 MSHR_MERGE:          0
cpu0->LLC LOAD         ACCESS:   34804828 HIT:    2305638 MISS:   32499190 MSHR_MERGE:          0
cpu0->LLC RFO          ACCESS:         42 HIT:         18 MISS:         24 MSHR_MERGE:          0
cpu0->LLC PREFETCH     ACCESS:          0 HIT:          0 MISS:          0 MSHR_MERGE:          0
cpu0->LLC WRITE        ACCESS:   15347942 HIT:   15347586 MISS:        356 MSHR_MERGE:          0
cpu0->LLC TRANSLATION  ACCESS:          0 HIT:          0 MISS:          0 MSHR_MERGE:          0
cpu0->LLC PREFETCH REQUESTED:          0 ISSUED:          0 USEFUL:          0 USELESS:          0
cpu0->LLC AVERAGE MISS LATENCY: 108.2 cycles

DRAM Statistics

Channel 0 RQ ROW_BUFFER_HIT:     405164
  ROW_BUFFER_MISS:   19131465
  AVG DBUS CONGESTED CYCLE: 10.97
Channel 0 WQ ROW_BUFFER_HIT:    1361575
  ROW_BUFFER_MISS:    6308984
  FULL:          0
Channel 0 REFRESHES ISSUED:     226830

Channel 1 RQ ROW_BUFFER_HIT:     405008
  ROW_BUFFER_MISS:   19125052
  AVG DBUS CONGESTED CYCLE: 10.97
Channel 1 WQ ROW_BUFFER_HIT:    1359987
  ROW_BUFFER_MISS:    6309246
  FULL:          0
Channel 1 REFRESHES ISSUED:     226830
