[VMEM] WARNING: physical memory size is smaller than virtual memory size.

*** ChampSim Multicore Out-of-Order Simulator ***
Warmup Instructions: 0
Simulation Instructions: 9223372036854775807
Number of CPUs: 1
Page size: 4096

Off-chip DRAM Size: 32 GiB Channels: 2 Width: 32-bit Data Rate: 4807 MT/s
[ERROR_PAGE_MANAGER] Error latency: 0 
[ERROR_PAGE_MANAGER] Random seed: 54321 (fixed for preload reproducibility)
[ERROR_PAGE_MANAGER] Error pages off

=== ERROR PAGE STATISTICS ===
Mode: OFF
Total Error Accesses: 0
==============================
Warmup finished CPU 0 instructions: 0 cycles: 1 cumulative IPC: 0 (Simulation time: 00 hr 00 min 00 sec)
Warmup complete CPU 0 instructions: 0 cycles: 1 cumulative IPC: 0 (Simulation time: 00 hr 00 min 00 sec)
Heartbeat CPU 0 instructions: 10000002 cycles: 5270502 heartbeat IPC: 1.897 cumulative IPC: 1.897 (Simulation time: 00 hr 00 min 59 sec)
Heartbeat CPU 0 instructions: 20000002 cycles: 10639301 heartbeat IPC: 1.863 cumulative IPC: 1.88 (Simulation time: 00 hr 01 min 59 sec)
Heartbeat CPU 0 instructions: 30000006 cycles: 16027964 heartbeat IPC: 1.856 cumulative IPC: 1.872 (Simulation time: 00 hr 03 min 00 sec)
Heartbeat CPU 0 instructions: 40000007 cycles: 21378982 heartbeat IPC: 1.869 cumulative IPC: 1.871 (Simulation time: 00 hr 03 min 57 sec)
Heartbeat CPU 0 instructions: 50000007 cycles: 26752529 heartbeat IPC: 1.861 cumulative IPC: 1.869 (Simulation time: 00 hr 04 min 40 sec)
Heartbeat CPU 0 instructions: 60000007 cycles: 34011381 heartbeat IPC: 1.378 cumulative IPC: 1.764 (Simulation time: 00 hr 05 min 36 sec)
Heartbeat CPU 0 instructions: 70000007 cycles: 41468211 heartbeat IPC: 1.341 cumulative IPC: 1.688 (Simulation time: 00 hr 06 min 35 sec)
Heartbeat CPU 0 instructions: 80000009 cycles: 48963465 heartbeat IPC: 1.334 cumulative IPC: 1.634 (Simulation time: 00 hr 07 min 26 sec)
Heartbeat CPU 0 instructions: 90000011 cycles: 56501949 heartbeat IPC: 1.327 cumulative IPC: 1.593 (Simulation time: 00 hr 08 min 21 sec)
Heartbeat CPU 0 instructions: 100000015 cycles: 63942704 heartbeat IPC: 1.344 cumulative IPC: 1.564 (Simulation time: 00 hr 09 min 29 sec)
Heartbeat CPU 0 instructions: 110000016 cycles: 71381636 heartbeat IPC: 1.344 cumulative IPC: 1.541 (Simulation time: 00 hr 10 min 46 sec)
Heartbeat CPU 0 instructions: 120000019 cycles: 78826363 heartbeat IPC: 1.343 cumulative IPC: 1.522 (Simulation time: 00 hr 12 min 04 sec)
Heartbeat CPU 0 instructions: 130000020 cycles: 86246118 heartbeat IPC: 1.348 cumulative IPC: 1.507 (Simulation time: 00 hr 13 min 21 sec)
Heartbeat CPU 0 instructions: 140000022 cycles: 93673436 heartbeat IPC: 1.346 cumulative IPC: 1.495 (Simulation time: 00 hr 14 min 39 sec)
Heartbeat CPU 0 instructions: 150000024 cycles: 101009952 heartbeat IPC: 1.363 cumulative IPC: 1.485 (Simulation time: 00 hr 15 min 55 sec)
Heartbeat CPU 0 instructions: 160000025 cycles: 108077365 heartbeat IPC: 1.415 cumulative IPC: 1.48 (Simulation time: 00 hr 17 min 10 sec)
Heartbeat CPU 0 instructions: 170000025 cycles: 115154768 heartbeat IPC: 1.413 cumulative IPC: 1.476 (Simulation time: 00 hr 18 min 01 sec)
Heartbeat CPU 0 instructions: 180000026 cycles: 122218398 heartbeat IPC: 1.416 cumulative IPC: 1.473 (Simulation time: 00 hr 19 min 05 sec)
Heartbeat CPU 0 instructions: 190000027 cycles: 129333495 heartbeat IPC: 1.405 cumulative IPC: 1.469 (Simulation time: 00 hr 19 min 58 sec)
Heartbeat CPU 0 instructions: 200000030 cycles: 136402354 heartbeat IPC: 1.415 cumulative IPC: 1.466 (Simulation time: 00 hr 21 min 11 sec)
Heartbeat CPU 0 instructions: 210000030 cycles: 143476690 heartbeat IPC: 1.414 cumulative IPC: 1.464 (Simulation time: 00 hr 22 min 23 sec)
Heartbeat CPU 0 instructions: 220000032 cycles: 150521306 heartbeat IPC: 1.42 cumulative IPC: 1.462 (Simulation time: 00 hr 23 min 36 sec)
Heartbeat CPU 0 instructions: 230000032 cycles: 157601815 heartbeat IPC: 1.412 cumulative IPC: 1.459 (Simulation time: 00 hr 24 min 39 sec)
Heartbeat CPU 0 instructions: 240000034 cycles: 164764450 heartbeat IPC: 1.396 cumulative IPC: 1.457 (Simulation time: 00 hr 25 min 33 sec)
Heartbeat CPU 0 instructions: 250000034 cycles: 171780696 heartbeat IPC: 1.425 cumulative IPC: 1.455 (Simulation time: 00 hr 26 min 50 sec)
Heartbeat CPU 0 instructions: 260000036 cycles: 178890256 heartbeat IPC: 1.407 cumulative IPC: 1.453 (Simulation time: 00 hr 28 min 07 sec)
Heartbeat CPU 0 instructions: 270000036 cycles: 185981236 heartbeat IPC: 1.41 cumulative IPC: 1.452 (Simulation time: 00 hr 29 min 24 sec)
Heartbeat CPU 0 instructions: 280000036 cycles: 193072051 heartbeat IPC: 1.41 cumulative IPC: 1.45 (Simulation time: 00 hr 30 min 38 sec)
Heartbeat CPU 0 instructions: 290000036 cycles: 200149345 heartbeat IPC: 1.413 cumulative IPC: 1.449 (Simulation time: 00 hr 31 min 55 sec)
Heartbeat CPU 0 instructions: 300000036 cycles: 207204539 heartbeat IPC: 1.417 cumulative IPC: 1.448 (Simulation time: 00 hr 33 min 13 sec)
Heartbeat CPU 0 instructions: 310000036 cycles: 214291775 heartbeat IPC: 1.411 cumulative IPC: 1.447 (Simulation time: 00 hr 34 min 29 sec)
Heartbeat CPU 0 instructions: 320000039 cycles: 221344235 heartbeat IPC: 1.418 cumulative IPC: 1.446 (Simulation time: 00 hr 35 min 27 sec)
Heartbeat CPU 0 instructions: 330000039 cycles: 228408884 heartbeat IPC: 1.415 cumulative IPC: 1.445 (Simulation time: 00 hr 36 min 26 sec)
Heartbeat CPU 0 instructions: 340000040 cycles: 235590318 heartbeat IPC: 1.392 cumulative IPC: 1.443 (Simulation time: 00 hr 37 min 25 sec)
Heartbeat CPU 0 instructions: 350000040 cycles: 242718593 heartbeat IPC: 1.403 cumulative IPC: 1.442 (Simulation time: 00 hr 38 min 24 sec)
Heartbeat CPU 0 instructions: 360000041 cycles: 249793421 heartbeat IPC: 1.413 cumulative IPC: 1.441 (Simulation time: 00 hr 39 min 20 sec)
Heartbeat CPU 0 instructions: 370000041 cycles: 256871546 heartbeat IPC: 1.413 cumulative IPC: 1.44 (Simulation time: 00 hr 40 min 23 sec)
Heartbeat CPU 0 instructions: 380000044 cycles: 264003034 heartbeat IPC: 1.402 cumulative IPC: 1.439 (Simulation time: 00 hr 41 min 38 sec)
Heartbeat CPU 0 instructions: 390000044 cycles: 271109915 heartbeat IPC: 1.407 cumulative IPC: 1.439 (Simulation time: 00 hr 42 min 53 sec)
Heartbeat CPU 0 instructions: 400000044 cycles: 278201048 heartbeat IPC: 1.41 cumulative IPC: 1.438 (Simulation time: 00 hr 44 min 08 sec)
Heartbeat CPU 0 instructions: 410000044 cycles: 285288086 heartbeat IPC: 1.411 cumulative IPC: 1.437 (Simulation time: 00 hr 45 min 22 sec)
Heartbeat CPU 0 instructions: 420000046 cycles: 292326260 heartbeat IPC: 1.421 cumulative IPC: 1.437 (Simulation time: 00 hr 46 min 37 sec)
Heartbeat CPU 0 instructions: 430000048 cycles: 299520986 heartbeat IPC: 1.39 cumulative IPC: 1.436 (Simulation time: 00 hr 47 min 53 sec)
Heartbeat CPU 0 instructions: 440000052 cycles: 306558248 heartbeat IPC: 1.421 cumulative IPC: 1.435 (Simulation time: 00 hr 49 min 08 sec)
Heartbeat CPU 0 instructions: 450000052 cycles: 313646723 heartbeat IPC: 1.411 cumulative IPC: 1.435 (Simulation time: 00 hr 50 min 23 sec)
Heartbeat CPU 0 instructions: 460000052 cycles: 320768865 heartbeat IPC: 1.404 cumulative IPC: 1.434 (Simulation time: 00 hr 51 min 35 sec)
Heartbeat CPU 0 instructions: 470000055 cycles: 327856062 heartbeat IPC: 1.411 cumulative IPC: 1.434 (Simulation time: 00 hr 52 min 26 sec)
Heartbeat CPU 0 instructions: 480000055 cycles: 334928898 heartbeat IPC: 1.414 cumulative IPC: 1.433 (Simulation time: 00 hr 53 min 42 sec)
Heartbeat CPU 0 instructions: 490000056 cycles: 342047084 heartbeat IPC: 1.405 cumulative IPC: 1.433 (Simulation time: 00 hr 54 min 58 sec)
Heartbeat CPU 0 instructions: 500000057 cycles: 349098148 heartbeat IPC: 1.418 cumulative IPC: 1.432 (Simulation time: 00 hr 56 min 14 sec)
Heartbeat CPU 0 instructions: 510000061 cycles: 356179990 heartbeat IPC: 1.412 cumulative IPC: 1.432 (Simulation time: 00 hr 57 min 28 sec)
Heartbeat CPU 0 instructions: 520000061 cycles: 363294957 heartbeat IPC: 1.405 cumulative IPC: 1.431 (Simulation time: 00 hr 58 min 40 sec)
Heartbeat CPU 0 instructions: 530000065 cycles: 370393993 heartbeat IPC: 1.409 cumulative IPC: 1.431 (Simulation time: 00 hr 59 min 44 sec)
Heartbeat CPU 0 instructions: 540000068 cycles: 377413203 heartbeat IPC: 1.425 cumulative IPC: 1.431 (Simulation time: 01 hr 00 min 59 sec)
Heartbeat CPU 0 instructions: 550000071 cycles: 384511023 heartbeat IPC: 1.409 cumulative IPC: 1.43 (Simulation time: 01 hr 02 min 11 sec)
Heartbeat CPU 0 instructions: 560000073 cycles: 391646480 heartbeat IPC: 1.401 cumulative IPC: 1.43 (Simulation time: 01 hr 03 min 04 sec)
Heartbeat CPU 0 instructions: 570000073 cycles: 398751519 heartbeat IPC: 1.407 cumulative IPC: 1.429 (Simulation time: 01 hr 04 min 09 sec)
Heartbeat CPU 0 instructions: 580000077 cycles: 405832174 heartbeat IPC: 1.412 cumulative IPC: 1.429 (Simulation time: 01 hr 05 min 07 sec)
Heartbeat CPU 0 instructions: 590000078 cycles: 412907477 heartbeat IPC: 1.413 cumulative IPC: 1.429 (Simulation time: 01 hr 05 min 59 sec)
Heartbeat CPU 0 instructions: 600000078 cycles: 420039244 heartbeat IPC: 1.402 cumulative IPC: 1.428 (Simulation time: 01 hr 07 min 01 sec)
Heartbeat CPU 0 instructions: 610000081 cycles: 427121273 heartbeat IPC: 1.412 cumulative IPC: 1.428 (Simulation time: 01 hr 08 min 06 sec)
Heartbeat CPU 0 instructions: 620000083 cycles: 434295852 heartbeat IPC: 1.394 cumulative IPC: 1.428 (Simulation time: 01 hr 09 min 23 sec)
Heartbeat CPU 0 instructions: 630000086 cycles: 441378765 heartbeat IPC: 1.412 cumulative IPC: 1.427 (Simulation time: 01 hr 10 min 38 sec)
Heartbeat CPU 0 instructions: 640000088 cycles: 448466724 heartbeat IPC: 1.411 cumulative IPC: 1.427 (Simulation time: 01 hr 11 min 53 sec)
Heartbeat CPU 0 instructions: 650000092 cycles: 455613435 heartbeat IPC: 1.399 cumulative IPC: 1.427 (Simulation time: 01 hr 13 min 09 sec)
Heartbeat CPU 0 instructions: 660000096 cycles: 462718630 heartbeat IPC: 1.407 cumulative IPC: 1.426 (Simulation time: 01 hr 14 min 25 sec)
Heartbeat CPU 0 instructions: 670000100 cycles: 469789982 heartbeat IPC: 1.414 cumulative IPC: 1.426 (Simulation time: 01 hr 15 min 40 sec)
Heartbeat CPU 0 instructions: 680000100 cycles: 476847547 heartbeat IPC: 1.417 cumulative IPC: 1.426 (Simulation time: 01 hr 16 min 55 sec)
Heartbeat CPU 0 instructions: 690000102 cycles: 483978848 heartbeat IPC: 1.402 cumulative IPC: 1.426 (Simulation time: 01 hr 18 min 11 sec)
Heartbeat CPU 0 instructions: 700000105 cycles: 491071026 heartbeat IPC: 1.41 cumulative IPC: 1.425 (Simulation time: 01 hr 19 min 26 sec)
Heartbeat CPU 0 instructions: 710000108 cycles: 498223927 heartbeat IPC: 1.398 cumulative IPC: 1.425 (Simulation time: 01 hr 20 min 42 sec)
Heartbeat CPU 0 instructions: 720000109 cycles: 505325261 heartbeat IPC: 1.408 cumulative IPC: 1.425 (Simulation time: 01 hr 21 min 58 sec)
Heartbeat CPU 0 instructions: 730000111 cycles: 512348422 heartbeat IPC: 1.424 cumulative IPC: 1.425 (Simulation time: 01 hr 23 min 14 sec)
Heartbeat CPU 0 instructions: 740000111 cycles: 519406832 heartbeat IPC: 1.417 cumulative IPC: 1.425 (Simulation time: 01 hr 24 min 19 sec)
Heartbeat CPU 0 instructions: 750000114 cycles: 526497760 heartbeat IPC: 1.41 cumulative IPC: 1.425 (Simulation time: 01 hr 25 min 35 sec)
Heartbeat CPU 0 instructions: 760000117 cycles: 533550475 heartbeat IPC: 1.418 cumulative IPC: 1.424 (Simulation time: 01 hr 26 min 52 sec)
Heartbeat CPU 0 instructions: 770000118 cycles: 540693973 heartbeat IPC: 1.4 cumulative IPC: 1.424 (Simulation time: 01 hr 28 min 10 sec)
Heartbeat CPU 0 instructions: 780000119 cycles: 547822902 heartbeat IPC: 1.403 cumulative IPC: 1.424 (Simulation time: 01 hr 29 min 27 sec)
Heartbeat CPU 0 instructions: 790000121 cycles: 554924508 heartbeat IPC: 1.408 cumulative IPC: 1.424 (Simulation time: 01 hr 30 min 38 sec)
Heartbeat CPU 0 instructions: 800000122 cycles: 562055481 heartbeat IPC: 1.402 cumulative IPC: 1.423 (Simulation time: 01 hr 31 min 30 sec)
Heartbeat CPU 0 instructions: 810000122 cycles: 569133778 heartbeat IPC: 1.413 cumulative IPC: 1.423 (Simulation time: 01 hr 32 min 44 sec)
Heartbeat CPU 0 instructions: 820000123 cycles: 576250235 heartbeat IPC: 1.405 cumulative IPC: 1.423 (Simulation time: 01 hr 34 min 01 sec)
Heartbeat CPU 0 instructions: 830000124 cycles: 583330043 heartbeat IPC: 1.412 cumulative IPC: 1.423 (Simulation time: 01 hr 35 min 17 sec)
Heartbeat CPU 0 instructions: 840000125 cycles: 590372924 heartbeat IPC: 1.42 cumulative IPC: 1.423 (Simulation time: 01 hr 36 min 33 sec)
Heartbeat CPU 0 instructions: 850000129 cycles: 597477582 heartbeat IPC: 1.408 cumulative IPC: 1.423 (Simulation time: 01 hr 37 min 50 sec)
Heartbeat CPU 0 instructions: 860000133 cycles: 604573237 heartbeat IPC: 1.409 cumulative IPC: 1.422 (Simulation time: 01 hr 39 min 07 sec)
Heartbeat CPU 0 instructions: 870000133 cycles: 611653818 heartbeat IPC: 1.412 cumulative IPC: 1.422 (Simulation time: 01 hr 40 min 23 sec)
Heartbeat CPU 0 instructions: 880000136 cycles: 618826156 heartbeat IPC: 1.394 cumulative IPC: 1.422 (Simulation time: 01 hr 41 min 41 sec)
Heartbeat CPU 0 instructions: 890000138 cycles: 625947893 heartbeat IPC: 1.404 cumulative IPC: 1.422 (Simulation time: 01 hr 42 min 59 sec)
Heartbeat CPU 0 instructions: 900000138 cycles: 633142502 heartbeat IPC: 1.39 cumulative IPC: 1.421 (Simulation time: 01 hr 44 min 17 sec)
Heartbeat CPU 0 instructions: 910000138 cycles: 640295137 heartbeat IPC: 1.398 cumulative IPC: 1.421 (Simulation time: 01 hr 45 min 34 sec)
Heartbeat CPU 0 instructions: 920000142 cycles: 647355870 heartbeat IPC: 1.416 cumulative IPC: 1.421 (Simulation time: 01 hr 46 min 51 sec)
Heartbeat CPU 0 instructions: 930000144 cycles: 654472874 heartbeat IPC: 1.405 cumulative IPC: 1.421 (Simulation time: 01 hr 48 min 09 sec)
Heartbeat CPU 0 instructions: 940000148 cycles: 661520111 heartbeat IPC: 1.419 cumulative IPC: 1.421 (Simulation time: 01 hr 49 min 23 sec)
Heartbeat CPU 0 instructions: 950000149 cycles: 668619369 heartbeat IPC: 1.409 cumulative IPC: 1.421 (Simulation time: 01 hr 50 min 37 sec)
Heartbeat CPU 0 instructions: 960000152 cycles: 675699353 heartbeat IPC: 1.412 cumulative IPC: 1.421 (Simulation time: 01 hr 51 min 51 sec)
Heartbeat CPU 0 instructions: 970000152 cycles: 682770332 heartbeat IPC: 1.414 cumulative IPC: 1.421 (Simulation time: 01 hr 53 min 05 sec)
Heartbeat CPU 0 instructions: 980000156 cycles: 689871305 heartbeat IPC: 1.408 cumulative IPC: 1.421 (Simulation time: 01 hr 54 min 19 sec)
Heartbeat CPU 0 instructions: 990000158 cycles: 697044241 heartbeat IPC: 1.394 cumulative IPC: 1.42 (Simulation time: 01 hr 55 min 37 sec)
Heartbeat CPU 0 instructions: 1000000159 cycles: 704158832 heartbeat IPC: 1.406 cumulative IPC: 1.42 (Simulation time: 01 hr 56 min 48 sec)
Heartbeat CPU 0 instructions: 1010000159 cycles: 711255957 heartbeat IPC: 1.409 cumulative IPC: 1.42 (Simulation time: 01 hr 57 min 45 sec)
Heartbeat CPU 0 instructions: 1020000159 cycles: 718330666 heartbeat IPC: 1.413 cumulative IPC: 1.42 (Simulation time: 01 hr 58 min 40 sec)
Heartbeat CPU 0 instructions: 1030000161 cycles: 725412093 heartbeat IPC: 1.412 cumulative IPC: 1.42 (Simulation time: 01 hr 59 min 48 sec)
Heartbeat CPU 0 instructions: 1040000161 cycles: 732534430 heartbeat IPC: 1.404 cumulative IPC: 1.42 (Simulation time: 02 hr 00 min 54 sec)
Heartbeat CPU 0 instructions: 1050000161 cycles: 739589619 heartbeat IPC: 1.417 cumulative IPC: 1.42 (Simulation time: 02 hr 01 min 45 sec)
Heartbeat CPU 0 instructions: 1060000165 cycles: 746676900 heartbeat IPC: 1.411 cumulative IPC: 1.42 (Simulation time: 02 hr 02 min 35 sec)
Heartbeat CPU 0 instructions: 1070000167 cycles: 753732224 heartbeat IPC: 1.417 cumulative IPC: 1.42 (Simulation time: 02 hr 03 min 37 sec)
Heartbeat CPU 0 instructions: 1080000169 cycles: 760904904 heartbeat IPC: 1.394 cumulative IPC: 1.419 (Simulation time: 02 hr 04 min 55 sec)
Heartbeat CPU 0 instructions: 1090000170 cycles: 767947025 heartbeat IPC: 1.42 cumulative IPC: 1.419 (Simulation time: 02 hr 06 min 11 sec)
Heartbeat CPU 0 instructions: 1100000174 cycles: 775046685 heartbeat IPC: 1.409 cumulative IPC: 1.419 (Simulation time: 02 hr 07 min 27 sec)
Heartbeat CPU 0 instructions: 1110000176 cycles: 782114778 heartbeat IPC: 1.415 cumulative IPC: 1.419 (Simulation time: 02 hr 08 min 28 sec)
Heartbeat CPU 0 instructions: 1120000177 cycles: 789214494 heartbeat IPC: 1.409 cumulative IPC: 1.419 (Simulation time: 02 hr 09 min 20 sec)
Heartbeat CPU 0 instructions: 1130000181 cycles: 796268866 heartbeat IPC: 1.418 cumulative IPC: 1.419 (Simulation time: 02 hr 10 min 14 sec)
Heartbeat CPU 0 instructions: 1140000185 cycles: 803362895 heartbeat IPC: 1.41 cumulative IPC: 1.419 (Simulation time: 02 hr 11 min 04 sec)
Heartbeat CPU 0 instructions: 1150000187 cycles: 810500667 heartbeat IPC: 1.401 cumulative IPC: 1.419 (Simulation time: 02 hr 11 min 55 sec)
Heartbeat CPU 0 instructions: 1160000191 cycles: 817571940 heartbeat IPC: 1.414 cumulative IPC: 1.419 (Simulation time: 02 hr 13 min 09 sec)
Heartbeat CPU 0 instructions: 1170000194 cycles: 824675503 heartbeat IPC: 1.408 cumulative IPC: 1.419 (Simulation time: 02 hr 14 min 25 sec)
Heartbeat CPU 0 instructions: 1180000194 cycles: 831929054 heartbeat IPC: 1.379 cumulative IPC: 1.418 (Simulation time: 02 hr 15 min 43 sec)
Heartbeat CPU 0 instructions: 1190000194 cycles: 838973869 heartbeat IPC: 1.419 cumulative IPC: 1.418 (Simulation time: 02 hr 17 min 00 sec)
Heartbeat CPU 0 instructions: 1200000195 cycles: 846090329 heartbeat IPC: 1.405 cumulative IPC: 1.418 (Simulation time: 02 hr 18 min 17 sec)
Heartbeat CPU 0 instructions: 1210000196 cycles: 853119112 heartbeat IPC: 1.423 cumulative IPC: 1.418 (Simulation time: 02 hr 19 min 33 sec)
Heartbeat CPU 0 instructions: 1220000198 cycles: 860172412 heartbeat IPC: 1.418 cumulative IPC: 1.418 (Simulation time: 02 hr 20 min 49 sec)
Heartbeat CPU 0 instructions: 1230000198 cycles: 867300072 heartbeat IPC: 1.403 cumulative IPC: 1.418 (Simulation time: 02 hr 22 min 06 sec)
Heartbeat CPU 0 instructions: 1240000199 cycles: 874393824 heartbeat IPC: 1.41 cumulative IPC: 1.418 (Simulation time: 02 hr 23 min 23 sec)
Heartbeat CPU 0 instructions: 1250000202 cycles: 881479743 heartbeat IPC: 1.411 cumulative IPC: 1.418 (Simulation time: 02 hr 24 min 39 sec)
Heartbeat CPU 0 instructions: 1260000204 cycles: 888638084 heartbeat IPC: 1.397 cumulative IPC: 1.418 (Simulation time: 02 hr 25 min 57 sec)
Heartbeat CPU 0 instructions: 1270000205 cycles: 895785118 heartbeat IPC: 1.399 cumulative IPC: 1.418 (Simulation time: 02 hr 27 min 14 sec)
Heartbeat CPU 0 instructions: 1280000205 cycles: 902889923 heartbeat IPC: 1.407 cumulative IPC: 1.418 (Simulation time: 02 hr 28 min 31 sec)
Heartbeat CPU 0 instructions: 1290000207 cycles: 910003195 heartbeat IPC: 1.406 cumulative IPC: 1.418 (Simulation time: 02 hr 29 min 48 sec)
Heartbeat CPU 0 instructions: 1300000210 cycles: 917087424 heartbeat IPC: 1.412 cumulative IPC: 1.418 (Simulation time: 02 hr 30 min 57 sec)
Heartbeat CPU 0 instructions: 1310000212 cycles: 924219629 heartbeat IPC: 1.402 cumulative IPC: 1.417 (Simulation time: 02 hr 31 min 58 sec)
Heartbeat CPU 0 instructions: 1320000214 cycles: 931342198 heartbeat IPC: 1.404 cumulative IPC: 1.417 (Simulation time: 02 hr 33 min 16 sec)
Heartbeat CPU 0 instructions: 1330000214 cycles: 938458836 heartbeat IPC: 1.405 cumulative IPC: 1.417 (Simulation time: 02 hr 34 min 25 sec)
Heartbeat CPU 0 instructions: 1340000215 cycles: 945579591 heartbeat IPC: 1.404 cumulative IPC: 1.417 (Simulation time: 02 hr 35 min 15 sec)
Heartbeat CPU 0 instructions: 1350000219 cycles: 952712381 heartbeat IPC: 1.402 cumulative IPC: 1.417 (Simulation time: 02 hr 36 min 15 sec)
Heartbeat CPU 0 instructions: 1360000221 cycles: 959847635 heartbeat IPC: 1.401 cumulative IPC: 1.417 (Simulation time: 02 hr 37 min 22 sec)
Heartbeat CPU 0 instructions: 1370000222 cycles: 966927846 heartbeat IPC: 1.412 cumulative IPC: 1.417 (Simulation time: 02 hr 38 min 30 sec)
Heartbeat CPU 0 instructions: 1380000225 cycles: 974011825 heartbeat IPC: 1.412 cumulative IPC: 1.417 (Simulation time: 02 hr 39 min 47 sec)
Heartbeat CPU 0 instructions: 1390000229 cycles: 981074489 heartbeat IPC: 1.416 cumulative IPC: 1.417 (Simulation time: 02 hr 40 min 47 sec)
Heartbeat CPU 0 instructions: 1400000231 cycles: 988160261 heartbeat IPC: 1.411 cumulative IPC: 1.417 (Simulation time: 02 hr 42 min 02 sec)
Heartbeat CPU 0 instructions: 1410000231 cycles: 995240859 heartbeat IPC: 1.412 cumulative IPC: 1.417 (Simulation time: 02 hr 43 min 18 sec)
Heartbeat CPU 0 instructions: 1420000235 cycles: 1002380967 heartbeat IPC: 1.401 cumulative IPC: 1.417 (Simulation time: 02 hr 44 min 35 sec)
Heartbeat CPU 0 instructions: 1430000238 cycles: 1009463984 heartbeat IPC: 1.412 cumulative IPC: 1.417 (Simulation time: 02 hr 45 min 51 sec)
Heartbeat CPU 0 instructions: 1440000242 cycles: 1016512735 heartbeat IPC: 1.419 cumulative IPC: 1.417 (Simulation time: 02 hr 46 min 43 sec)
Heartbeat CPU 0 instructions: 1450000243 cycles: 1023607616 heartbeat IPC: 1.409 cumulative IPC: 1.417 (Simulation time: 02 hr 47 min 42 sec)
Heartbeat CPU 0 instructions: 1460000246 cycles: 1030760498 heartbeat IPC: 1.398 cumulative IPC: 1.416 (Simulation time: 02 hr 49 min 00 sec)
Heartbeat CPU 0 instructions: 1470000248 cycles: 1037881128 heartbeat IPC: 1.404 cumulative IPC: 1.416 (Simulation time: 02 hr 50 min 18 sec)
Heartbeat CPU 0 instructions: 1480000249 cycles: 1044947651 heartbeat IPC: 1.415 cumulative IPC: 1.416 (Simulation time: 02 hr 51 min 35 sec)
Heartbeat CPU 0 instructions: 1490000251 cycles: 1052006684 heartbeat IPC: 1.417 cumulative IPC: 1.416 (Simulation time: 02 hr 52 min 51 sec)
Heartbeat CPU 0 instructions: 1500000253 cycles: 1059109245 heartbeat IPC: 1.408 cumulative IPC: 1.416 (Simulation time: 02 hr 53 min 53 sec)
Heartbeat CPU 0 instructions: 1510000255 cycles: 1066153130 heartbeat IPC: 1.42 cumulative IPC: 1.416 (Simulation time: 02 hr 54 min 45 sec)
Heartbeat CPU 0 instructions: 1520000258 cycles: 1073248613 heartbeat IPC: 1.409 cumulative IPC: 1.416 (Simulation time: 02 hr 55 min 36 sec)
Heartbeat CPU 0 instructions: 1530000258 cycles: 1080344728 heartbeat IPC: 1.409 cumulative IPC: 1.416 (Simulation time: 02 hr 56 min 40 sec)
Heartbeat CPU 0 instructions: 1540000258 cycles: 1087439702 heartbeat IPC: 1.409 cumulative IPC: 1.416 (Simulation time: 02 hr 57 min 59 sec)
Heartbeat CPU 0 instructions: 1550000259 cycles: 1094622182 heartbeat IPC: 1.392 cumulative IPC: 1.416 (Simulation time: 02 hr 59 min 19 sec)
Heartbeat CPU 0 instructions: 1560000261 cycles: 1101726438 heartbeat IPC: 1.408 cumulative IPC: 1.416 (Simulation time: 03 hr 00 min 38 sec)
Heartbeat CPU 0 instructions: 1570000265 cycles: 1108831911 heartbeat IPC: 1.407 cumulative IPC: 1.416 (Simulation time: 03 hr 01 min 36 sec)
Heartbeat CPU 0 instructions: 1580000268 cycles: 1115891172 heartbeat IPC: 1.417 cumulative IPC: 1.416 (Simulation time: 03 hr 02 min 30 sec)
Heartbeat CPU 0 instructions: 1590000268 cycles: 1122920597 heartbeat IPC: 1.423 cumulative IPC: 1.416 (Simulation time: 03 hr 03 min 23 sec)
Heartbeat CPU 0 instructions: 1600000269 cycles: 1129981456 heartbeat IPC: 1.416 cumulative IPC: 1.416 (Simulation time: 03 hr 04 min 28 sec)
Heartbeat CPU 0 instructions: 1610000272 cycles: 1137074876 heartbeat IPC: 1.41 cumulative IPC: 1.416 (Simulation time: 03 hr 05 min 32 sec)
Heartbeat CPU 0 instructions: 1620000272 cycles: 1144160306 heartbeat IPC: 1.411 cumulative IPC: 1.416 (Simulation time: 03 hr 06 min 29 sec)
Heartbeat CPU 0 instructions: 1630000274 cycles: 1151298566 heartbeat IPC: 1.401 cumulative IPC: 1.416 (Simulation time: 03 hr 07 min 41 sec)
Heartbeat CPU 0 instructions: 1640000274 cycles: 1158496933 heartbeat IPC: 1.389 cumulative IPC: 1.416 (Simulation time: 03 hr 08 min 40 sec)
Heartbeat CPU 0 instructions: 1650000277 cycles: 1165631442 heartbeat IPC: 1.402 cumulative IPC: 1.416 (Simulation time: 03 hr 09 min 51 sec)
Heartbeat CPU 0 instructions: 1660000277 cycles: 1172673528 heartbeat IPC: 1.42 cumulative IPC: 1.416 (Simulation time: 03 hr 10 min 54 sec)
Heartbeat CPU 0 instructions: 1670000281 cycles: 1179702825 heartbeat IPC: 1.423 cumulative IPC: 1.416 (Simulation time: 03 hr 12 min 11 sec)
Heartbeat CPU 0 instructions: 1680000285 cycles: 1186869835 heartbeat IPC: 1.395 cumulative IPC: 1.415 (Simulation time: 03 hr 13 min 21 sec)
Heartbeat CPU 0 instructions: 1690000287 cycles: 1193978428 heartbeat IPC: 1.407 cumulative IPC: 1.415 (Simulation time: 03 hr 14 min 17 sec)
Heartbeat CPU 0 instructions: 1700000290 cycles: 1201067730 heartbeat IPC: 1.411 cumulative IPC: 1.415 (Simulation time: 03 hr 15 min 19 sec)
Heartbeat CPU 0 instructions: 1710000290 cycles: 1208142980 heartbeat IPC: 1.413 cumulative IPC: 1.415 (Simulation time: 03 hr 16 min 33 sec)
Heartbeat CPU 0 instructions: 1720000290 cycles: 1215250236 heartbeat IPC: 1.407 cumulative IPC: 1.415 (Simulation time: 03 hr 17 min 37 sec)
Heartbeat CPU 0 instructions: 1730000292 cycles: 1222341288 heartbeat IPC: 1.41 cumulative IPC: 1.415 (Simulation time: 03 hr 18 min 41 sec)
Heartbeat CPU 0 instructions: 1740000296 cycles: 1229548327 heartbeat IPC: 1.388 cumulative IPC: 1.415 (Simulation time: 03 hr 19 min 55 sec)
Heartbeat CPU 0 instructions: 1750000296 cycles: 1236611449 heartbeat IPC: 1.416 cumulative IPC: 1.415 (Simulation time: 03 hr 21 min 08 sec)
Heartbeat CPU 0 instructions: 1760000296 cycles: 1243680966 heartbeat IPC: 1.415 cumulative IPC: 1.415 (Simulation time: 03 hr 22 min 20 sec)
Heartbeat CPU 0 instructions: 1770000297 cycles: 1250760603 heartbeat IPC: 1.413 cumulative IPC: 1.415 (Simulation time: 03 hr 23 min 20 sec)
Heartbeat CPU 0 instructions: 1780000297 cycles: 1257825296 heartbeat IPC: 1.415 cumulative IPC: 1.415 (Simulation time: 03 hr 24 min 16 sec)
Heartbeat CPU 0 instructions: 1790000301 cycles: 1264933458 heartbeat IPC: 1.407 cumulative IPC: 1.415 (Simulation time: 03 hr 25 min 17 sec)
Heartbeat CPU 0 instructions: 1800000304 cycles: 1272025241 heartbeat IPC: 1.41 cumulative IPC: 1.415 (Simulation time: 03 hr 26 min 27 sec)
Heartbeat CPU 0 instructions: 1810000304 cycles: 1279109543 heartbeat IPC: 1.412 cumulative IPC: 1.415 (Simulation time: 03 hr 27 min 40 sec)
Heartbeat CPU 0 instructions: 1820000306 cycles: 1286197354 heartbeat IPC: 1.411 cumulative IPC: 1.415 (Simulation time: 03 hr 28 min 37 sec)
Heartbeat CPU 0 instructions: 1830000306 cycles: 1293314552 heartbeat IPC: 1.405 cumulative IPC: 1.415 (Simulation time: 03 hr 29 min 32 sec)
Heartbeat CPU 0 instructions: 1840000308 cycles: 1300359080 heartbeat IPC: 1.42 cumulative IPC: 1.415 (Simulation time: 03 hr 30 min 42 sec)
Heartbeat CPU 0 instructions: 1850000311 cycles: 1307405044 heartbeat IPC: 1.419 cumulative IPC: 1.415 (Simulation time: 03 hr 31 min 55 sec)
Heartbeat CPU 0 instructions: 1860000312 cycles: 1314465623 heartbeat IPC: 1.416 cumulative IPC: 1.415 (Simulation time: 03 hr 33 min 14 sec)
Heartbeat CPU 0 instructions: 1870000312 cycles: 1321510117 heartbeat IPC: 1.42 cumulative IPC: 1.415 (Simulation time: 03 hr 34 min 32 sec)
Heartbeat CPU 0 instructions: 1880000314 cycles: 1328636907 heartbeat IPC: 1.403 cumulative IPC: 1.415 (Simulation time: 03 hr 35 min 52 sec)
Heartbeat CPU 0 instructions: 1890000314 cycles: 1335821956 heartbeat IPC: 1.392 cumulative IPC: 1.415 (Simulation time: 03 hr 37 min 09 sec)
Heartbeat CPU 0 instructions: 1900000316 cycles: 1342896303 heartbeat IPC: 1.414 cumulative IPC: 1.415 (Simulation time: 03 hr 38 min 05 sec)
Heartbeat CPU 0 instructions: 1910000320 cycles: 1349988988 heartbeat IPC: 1.41 cumulative IPC: 1.415 (Simulation time: 03 hr 39 min 08 sec)
Heartbeat CPU 0 instructions: 1920000320 cycles: 1357180102 heartbeat IPC: 1.391 cumulative IPC: 1.415 (Simulation time: 03 hr 40 min 24 sec)
Heartbeat CPU 0 instructions: 1930000321 cycles: 1364254585 heartbeat IPC: 1.414 cumulative IPC: 1.415 (Simulation time: 03 hr 41 min 43 sec)
Heartbeat CPU 0 instructions: 1940000322 cycles: 1371322679 heartbeat IPC: 1.415 cumulative IPC: 1.415 (Simulation time: 03 hr 43 min 02 sec)
Heartbeat CPU 0 instructions: 1950000323 cycles: 1378392249 heartbeat IPC: 1.415 cumulative IPC: 1.415 (Simulation time: 03 hr 44 min 22 sec)
Heartbeat CPU 0 instructions: 1960000324 cycles: 1385493790 heartbeat IPC: 1.408 cumulative IPC: 1.415 (Simulation time: 03 hr 45 min 40 sec)
Heartbeat CPU 0 instructions: 1970000326 cycles: 1392560622 heartbeat IPC: 1.415 cumulative IPC: 1.415 (Simulation time: 03 hr 47 min 00 sec)
Heartbeat CPU 0 instructions: 1980000330 cycles: 1399614560 heartbeat IPC: 1.418 cumulative IPC: 1.415 (Simulation time: 03 hr 48 min 19 sec)
Heartbeat CPU 0 instructions: 1990000333 cycles: 1406668270 heartbeat IPC: 1.418 cumulative IPC: 1.415 (Simulation time: 03 hr 49 min 38 sec)

=== ERROR PAGE STATISTICS ===
Mode: OFF
Total Error Accesses: 0
==============================
Simulation finished CPU 0 instructions: 1999999507 cycles: 1413775529 cumulative IPC: 1.415 (Simulation time: 03 hr 50 min 58 sec)
Simulation complete CPU 0 instructions: 1999999507 cycles: 1413775529 cumulative IPC: 1.415 (Simulation time: 03 hr 50 min 58 sec)

ChampSim completed all CPUs

=== Simulation ===
CPU 0 runs test_traces/607.cactuBSSN_s-2421B.champsimtrace.xz

Region of Interest Statistics

CPU 0 cumulative IPC: 1.415 instructions: 1999999507 cycles: 1413775529
CPU 0 Branch Prediction Accuracy: 98.41% MPKI: 0.0223 Average ROB Occupancy at Mispredict: 325.4
Branch type MPKI
BRANCH_DIRECT_JUMP: 3.4e-05
BRANCH_INDIRECT: 4.45e-05
BRANCH_CONDITIONAL: 0.0122
BRANCH_DIRECT_CALL: 0.000332
BRANCH_INDIRECT_CALL: 1.5e-06
BRANCH_RETURN: 0.009687

cpu0->cpu0_STLB TOTAL        ACCESS:  148903624 HIT:  148663576 MISS:     240048 MSHR_MERGE:          0
cpu0->cpu0_STLB LOAD         ACCESS:  148903624 HIT:  148663576 MISS:     240048 MSHR_MERGE:          0
cpu0->cpu0_STLB RFO          ACCESS:          0 HIT:          0 MISS:          0 MSHR_MERGE:          0
cpu0->cpu0_STLB PREFETCH     ACCESS:          0 HIT:          0 MISS:          0 MSHR_MERGE:          0
cpu0->cpu0_STLB WRITE        ACCESS:          0 HIT:          0 MISS:          0 MSHR_MERGE:          0
cpu0->cpu0_STLB TRANSLATION  ACCESS:          0 HIT:          0 MISS:          0 MSHR_MERGE:          0
cpu0->cpu0_STLB PREFETCH REQUESTED:          0 ISSUED:          0 USEFUL:          0 USELESS:          0
cpu0->cpu0_STLB AVERAGE MISS LATENCY: 359.8 cycles
cpu0->cpu0_L2C TOTAL        ACCESS:  251265804 HIT:  226220412 MISS:   25045392 MSHR_MERGE:          0
cpu0->cpu0_L2C LOAD         ACCESS:  217190966 HIT:  193052714 MISS:   24138252 MSHR_MERGE:          0
cpu0->cpu0_L2C RFO          ACCESS:   16161927 HIT:   15255208 MISS:     906719 MSHR_MERGE:          0
cpu0->cpu0_L2C PREFETCH     ACCESS:          0 HIT:          0 MISS:          0 MSHR_MERGE:          0
cpu0->cpu0_L2C WRITE        ACCESS:   17912911 HIT:   17912490 MISS:        421 MSHR_MERGE:          0
cpu0->cpu0_L2C TRANSLATION  ACCESS:          0 HIT:          0 MISS:          0 MSHR_MERGE:          0
cpu0->cpu0_L2C PREFETCH REQUESTED:          0 ISSUED:          0 USEFUL:          0 USELESS:          0
cpu0->cpu0_L2C AVERAGE MISS LATENCY: 81.62 cycles
cpu0->cpu0_L1I TOTAL        ACCESS:  406867009 HIT:  404220623 MISS:    2646386 MSHR_MERGE:    1296243
cpu0->cpu0_L1I LOAD         ACCESS:  406867009 HIT:  404220623 MISS:    2646386 MSHR_MERGE:    1296243
cpu0->cpu0_L1I RFO          ACCESS:          0 HIT:          0 MISS:          0 MSHR_MERGE:          0
cpu0->cpu0_L1I PREFETCH     ACCESS:          0 HIT:          0 MISS:          0 MSHR_MERGE:          0
cpu0->cpu0_L1I WRITE        ACCESS:          0 HIT:          0 MISS:          0 MSHR_MERGE:          0
cpu0->cpu0_L1I TRANSLATION  ACCESS:          0 HIT:          0 MISS:          0 MSHR_MERGE:          0
cpu0->cpu0_L1I PREFETCH REQUESTED:          0 ISSUED:          0 USEFUL:          0 USELESS:          0
cpu0->cpu0_L1I AVERAGE MISS LATENCY: 7.252 cycles
cpu0->cpu0_L1D TOTAL        ACCESS:  640916497 HIT:  369585954 MISS:  271330543 MSHR_MERGE:   38773742
cpu0->cpu0_L1D LOAD         ACCESS:  414165945 HIT:  160543803 MISS:  253622142 MSHR_MERGE:   37234516
cpu0->cpu0_L1D RFO          ACCESS:          0 HIT:          0 MISS:          0 MSHR_MERGE:          0
cpu0->cpu0_L1D PREFETCH     ACCESS:          0 HIT:          0 MISS:          0 MSHR_MERGE:          0
cpu0->cpu0_L1D WRITE        ACCESS:  226750552 HIT:  209042151 MISS:   17708401 MSHR_MERGE:    1539226
cpu0->cpu0_L1D TRANSLATION  ACCESS:          0 HIT:          0 MISS:          0 MSHR_MERGE:          0
cpu0->cpu0_L1D PREFETCH REQUESTED:          0 ISSUED:          0 USEFUL:          0 USELESS:          0
cpu0->cpu0_L1D AVERAGE MISS LATENCY: 17.56 cycles
cpu0->cpu0_ITLB TOTAL        ACCESS:  335130838 HIT:  335130627 MISS:        211 MSHR_MERGE:        135
cpu0->cpu0_ITLB LOAD         ACCESS:  335130838 HIT:  335130627 MISS:        211 MSHR_MERGE:        135
cpu0->cpu0_ITLB RFO          ACCESS:          0 HIT:          0 MISS:          0 MSHR_MERGE:          0
cpu0->cpu0_ITLB PREFETCH     ACCESS:          0 HIT:          0 MISS:          0 MSHR_MERGE:          0
cpu0->cpu0_ITLB WRITE        ACCESS:          0 HIT:          0 MISS:          0 MSHR_MERGE:          0
cpu0->cpu0_ITLB TRANSLATION  ACCESS:          0 HIT:          0 MISS:          0 MSHR_MERGE:          0
cpu0->cpu0_ITLB PREFETCH REQUESTED:          0 ISSUED:          0 USEFUL:          0 USELESS:          0
cpu0->cpu0_ITLB AVERAGE MISS LATENCY: 596.3 cycles
cpu0->cpu0_DTLB TOTAL        ACCESS:  541447116 HIT:  342345595 MISS:  199101521 MSHR_MERGE:   50197972
cpu0->cpu0_DTLB LOAD         ACCESS:  541447116 HIT:  342345595 MISS:  199101521 MSHR_MERGE:   50197972
cpu0->cpu0_DTLB RFO          ACCESS:          0 HIT:          0 MISS:          0 MSHR_MERGE:          0
cpu0->cpu0_DTLB PREFETCH     ACCESS:          0 HIT:          0 MISS:          0 MSHR_MERGE:          0
cpu0->cpu0_DTLB WRITE        ACCESS:          0 HIT:          0 MISS:          0 MSHR_MERGE:          0
cpu0->cpu0_DTLB TRANSLATION  ACCESS:          0 HIT:          0 MISS:          0 MSHR_MERGE:          0
cpu0->cpu0_DTLB PREFETCH REQUESTED:          0 ISSUED:          0 USEFUL:          0 USELESS:          0
cpu0->cpu0_DTLB AVERAGE MISS LATENCY: 5.709 cycles
cpu0->LLC TOTAL        ACCESS:   27573816 HIT:   12453259 MISS:   15120557 MSHR_MERGE:          0
cpu0->LLC LOAD         ACCESS:   24138235 HIT:    9049888 MISS:   15088347 MSHR_MERGE:          0
cpu0->LLC RFO          ACCESS:     899542 HIT:     868917 MISS:      30625 MSHR_MERGE:          0
cpu0->LLC PREFETCH     ACCESS:          0 HIT:          0 MISS:          0 MSHR_MERGE:          0
cpu0->LLC WRITE        ACCESS:    2536039 HIT:    2534454 MISS:       1585 MSHR_MERGE:          0
cpu0->LLC TRANSLATION  ACCESS:          0 HIT:          0 MISS:          0 MSHR_MERGE:          0
cpu0->LLC PREFETCH REQUESTED:          0 ISSUED:          0 USEFUL:          0 USELESS:          0
cpu0->LLC AVERAGE MISS LATENCY: 109.3 cycles

DRAM Statistics

Channel 0 RQ ROW_BUFFER_HIT:       1832
  ROW_BUFFER_MISS:    7858710
  AVG DBUS CONGESTED CYCLE: 9.34
Channel 0 WQ ROW_BUFFER_HIT:     208191
  ROW_BUFFER_MISS:     736591
  FULL:          0
Channel 0 REFRESHES ISSUED:     117807

Channel 1 RQ ROW_BUFFER_HIT:       1826
  ROW_BUFFER_MISS:    7868515
  AVG DBUS CONGESTED CYCLE: 9.344
Channel 1 WQ ROW_BUFFER_HIT:     208640
  ROW_BUFFER_MISS:     736186
  FULL:          0
Channel 1 REFRESHES ISSUED:     117807
