
*** ChampSim Multicore Out-of-Order Simulator ***
Warmup Instructions: 0
Simulation Instructions: 9223372036854775807
Number of CPUs: 1
Page size: 2097152

Off-chip DRAM Size: 64 GiB Channels: 2 Width: 32-bit Data Rate: 4807 MT/s
[ERROR_PAGE_MANAGER] Error latency: 1990500 
[ERROR_PAGE_MANAGER] Random seed: 54321 (fixed for preload reproducibility)
[ERROR_PAGE_MANAGER] Cycle-based error modeling enabled
[ERROR_PAGE_MANAGER] Errors per interval: 1
[ERROR_PAGE_MANAGER] Error cycle interval: 464841614 cycles

=== ERROR PAGE STATISTICS ===
Mode: CYCLE
Error Cycle Interval: 464841614 CPU cycles
Total Error Accesses: 0
==============================
Warmup finished CPU 0 instructions: 0 cycles: 1 cumulative IPC: 0 (Simulation time: 00 hr 00 min 00 sec)
Warmup complete CPU 0 instructions: 0 cycles: 1 cumulative IPC: 0 (Simulation time: 00 hr 00 min 00 sec)
Heartbeat CPU 0 instructions: 10000000 cycles: 9116716 heartbeat IPC: 1.097 cumulative IPC: 1.097 (Simulation time: 00 hr 01 min 09 sec)
Heartbeat CPU 0 instructions: 20000000 cycles: 18146650 heartbeat IPC: 1.107 cumulative IPC: 1.102 (Simulation time: 00 hr 02 min 18 sec)
Heartbeat CPU 0 instructions: 30000000 cycles: 27184607 heartbeat IPC: 1.106 cumulative IPC: 1.104 (Simulation time: 00 hr 03 min 27 sec)
Heartbeat CPU 0 instructions: 40000001 cycles: 36219317 heartbeat IPC: 1.107 cumulative IPC: 1.104 (Simulation time: 00 hr 04 min 36 sec)
Heartbeat CPU 0 instructions: 50000005 cycles: 51015039 heartbeat IPC: 0.6759 cumulative IPC: 0.9801 (Simulation time: 00 hr 06 min 05 sec)
Heartbeat CPU 0 instructions: 60000005 cycles: 69168009 heartbeat IPC: 0.5509 cumulative IPC: 0.8675 (Simulation time: 00 hr 07 min 38 sec)
Heartbeat CPU 0 instructions: 70000008 cycles: 78181320 heartbeat IPC: 1.109 cumulative IPC: 0.8954 (Simulation time: 00 hr 08 min 21 sec)
Heartbeat CPU 0 instructions: 80000011 cycles: 87198300 heartbeat IPC: 1.109 cumulative IPC: 0.9174 (Simulation time: 00 hr 09 min 05 sec)
Heartbeat CPU 0 instructions: 90000011 cycles: 96210048 heartbeat IPC: 1.11 cumulative IPC: 0.9355 (Simulation time: 00 hr 09 min 49 sec)
Heartbeat CPU 0 instructions: 100000014 cycles: 105214837 heartbeat IPC: 1.111 cumulative IPC: 0.9504 (Simulation time: 00 hr 10 min 45 sec)
Heartbeat CPU 0 instructions: 110000014 cycles: 114225525 heartbeat IPC: 1.11 cumulative IPC: 0.963 (Simulation time: 00 hr 11 min 53 sec)
Heartbeat CPU 0 instructions: 120000018 cycles: 125564556 heartbeat IPC: 0.8819 cumulative IPC: 0.9557 (Simulation time: 00 hr 13 min 23 sec)
Heartbeat CPU 0 instructions: 130000019 cycles: 143365195 heartbeat IPC: 0.5618 cumulative IPC: 0.9068 (Simulation time: 00 hr 15 min 32 sec)
Heartbeat CPU 0 instructions: 140000019 cycles: 152382695 heartbeat IPC: 1.109 cumulative IPC: 0.9187 (Simulation time: 00 hr 16 min 20 sec)
Heartbeat CPU 0 instructions: 150000019 cycles: 161392091 heartbeat IPC: 1.11 cumulative IPC: 0.9294 (Simulation time: 00 hr 17 min 04 sec)
Heartbeat CPU 0 instructions: 160000020 cycles: 170401180 heartbeat IPC: 1.11 cumulative IPC: 0.939 (Simulation time: 00 hr 17 min 56 sec)
Heartbeat CPU 0 instructions: 170000020 cycles: 179407587 heartbeat IPC: 1.11 cumulative IPC: 0.9476 (Simulation time: 00 hr 19 min 04 sec)
Heartbeat CPU 0 instructions: 180000023 cycles: 188415704 heartbeat IPC: 1.11 cumulative IPC: 0.9553 (Simulation time: 00 hr 20 min 13 sec)
Heartbeat CPU 0 instructions: 190000026 cycles: 197428615 heartbeat IPC: 1.11 cumulative IPC: 0.9624 (Simulation time: 00 hr 21 min 09 sec)
Heartbeat CPU 0 instructions: 200000027 cycles: 214398216 heartbeat IPC: 0.5893 cumulative IPC: 0.9328 (Simulation time: 00 hr 22 min 53 sec)
Heartbeat CPU 0 instructions: 210000029 cycles: 226393528 heartbeat IPC: 0.8337 cumulative IPC: 0.9276 (Simulation time: 00 hr 24 min 27 sec)
Heartbeat CPU 0 instructions: 220000033 cycles: 235404455 heartbeat IPC: 1.11 cumulative IPC: 0.9346 (Simulation time: 00 hr 25 min 16 sec)
Heartbeat CPU 0 instructions: 230000036 cycles: 244419487 heartbeat IPC: 1.109 cumulative IPC: 0.941 (Simulation time: 00 hr 26 min 09 sec)
Heartbeat CPU 0 instructions: 240000039 cycles: 253430761 heartbeat IPC: 1.11 cumulative IPC: 0.947 (Simulation time: 00 hr 27 min 17 sec)
Heartbeat CPU 0 instructions: 250000039 cycles: 262432827 heartbeat IPC: 1.111 cumulative IPC: 0.9526 (Simulation time: 00 hr 28 min 26 sec)
Heartbeat CPU 0 instructions: 260000039 cycles: 271445657 heartbeat IPC: 1.11 cumulative IPC: 0.9578 (Simulation time: 00 hr 29 min 33 sec)
Heartbeat CPU 0 instructions: 270000040 cycles: 285068153 heartbeat IPC: 0.7341 cumulative IPC: 0.9471 (Simulation time: 00 hr 31 min 16 sec)
Heartbeat CPU 0 instructions: 280000044 cycles: 300404859 heartbeat IPC: 0.652 cumulative IPC: 0.9321 (Simulation time: 00 hr 33 min 25 sec)
Heartbeat CPU 0 instructions: 290000047 cycles: 309418745 heartbeat IPC: 1.109 cumulative IPC: 0.9372 (Simulation time: 00 hr 34 min 35 sec)
Heartbeat CPU 0 instructions: 300000048 cycles: 318431272 heartbeat IPC: 1.11 cumulative IPC: 0.9421 (Simulation time: 00 hr 35 min 39 sec)
Heartbeat CPU 0 instructions: 310000050 cycles: 327441305 heartbeat IPC: 1.11 cumulative IPC: 0.9467 (Simulation time: 00 hr 36 min 31 sec)
Heartbeat CPU 0 instructions: 320000054 cycles: 336448261 heartbeat IPC: 1.11 cumulative IPC: 0.9511 (Simulation time: 00 hr 37 min 24 sec)
Heartbeat CPU 0 instructions: 330000056 cycles: 345461765 heartbeat IPC: 1.109 cumulative IPC: 0.9552 (Simulation time: 00 hr 38 min 23 sec)
Heartbeat CPU 0 instructions: 340000056 cycles: 355751578 heartbeat IPC: 0.9718 cumulative IPC: 0.9557 (Simulation time: 00 hr 39 min 45 sec)
Heartbeat CPU 0 instructions: 350000056 cycles: 373989781 heartbeat IPC: 0.5483 cumulative IPC: 0.9359 (Simulation time: 00 hr 42 min 22 sec)
Heartbeat CPU 0 instructions: 360000056 cycles: 384277575 heartbeat IPC: 0.972 cumulative IPC: 0.9368 (Simulation time: 00 hr 43 min 29 sec)
Heartbeat CPU 0 instructions: 370000058 cycles: 394566261 heartbeat IPC: 0.9719 cumulative IPC: 0.9377 (Simulation time: 00 hr 44 min 42 sec)
Heartbeat CPU 0 instructions: 380000062 cycles: 404831608 heartbeat IPC: 0.9742 cumulative IPC: 0.9387 (Simulation time: 00 hr 45 min 56 sec)
Heartbeat CPU 0 instructions: 390000062 cycles: 417273686 heartbeat IPC: 0.8037 cumulative IPC: 0.9346 (Simulation time: 00 hr 47 min 34 sec)
Heartbeat CPU 0 instructions: 400000062 cycles: 431511898 heartbeat IPC: 0.7023 cumulative IPC: 0.927 (Simulation time: 00 hr 49 min 42 sec)
Heartbeat CPU 0 instructions: 410000062 cycles: 438294176 heartbeat IPC: 1.474 cumulative IPC: 0.9354 (Simulation time: 00 hr 50 min 53 sec)
Heartbeat CPU 0 instructions: 420000064 cycles: 445408783 heartbeat IPC: 1.406 cumulative IPC: 0.943 (Simulation time: 00 hr 52 min 07 sec)
Heartbeat CPU 0 instructions: 430000067 cycles: 453942287 heartbeat IPC: 1.172 cumulative IPC: 0.9473 (Simulation time: 00 hr 53 min 31 sec)
Heartbeat CPU 0 instructions: 440000067 cycles: 462832480 heartbeat IPC: 1.125 cumulative IPC: 0.9507 (Simulation time: 00 hr 55 min 01 sec)
[ERROR_CYCLE] Error added at CPU cycle 464841614, interval 1, pending count: 1
[DRAM_CYCLE_ERROR] Cycle-based error applied! address=0xad7beb200 additional_latency=1990500 cycles
Heartbeat CPU 0 instructions: 450000067 cycles: 471354173 heartbeat IPC: 1.173 cumulative IPC: 0.9547 (Simulation time: 00 hr 56 min 09 sec)
Heartbeat CPU 0 instructions: 460000069 cycles: 479916255 heartbeat IPC: 1.168 cumulative IPC: 0.9585 (Simulation time: 00 hr 57 min 17 sec)
Heartbeat CPU 0 instructions: 470000073 cycles: 488487627 heartbeat IPC: 1.167 cumulative IPC: 0.9622 (Simulation time: 00 hr 58 min 21 sec)
Heartbeat CPU 0 instructions: 480000074 cycles: 497145925 heartbeat IPC: 1.155 cumulative IPC: 0.9655 (Simulation time: 00 hr 59 min 26 sec)
Heartbeat CPU 0 instructions: 490000074 cycles: 505919639 heartbeat IPC: 1.14 cumulative IPC: 0.9685 (Simulation time: 01 hr 00 min 53 sec)
Heartbeat CPU 0 instructions: 500000076 cycles: 514423766 heartbeat IPC: 1.176 cumulative IPC: 0.972 (Simulation time: 01 hr 02 min 20 sec)
Heartbeat CPU 0 instructions: 510000079 cycles: 522980910 heartbeat IPC: 1.169 cumulative IPC: 0.9752 (Simulation time: 01 hr 03 min 48 sec)
Heartbeat CPU 0 instructions: 520000083 cycles: 531600784 heartbeat IPC: 1.16 cumulative IPC: 0.9782 (Simulation time: 01 hr 05 min 13 sec)
Heartbeat CPU 0 instructions: 530000087 cycles: 540399439 heartbeat IPC: 1.137 cumulative IPC: 0.9808 (Simulation time: 01 hr 06 min 13 sec)
Heartbeat CPU 0 instructions: 540000087 cycles: 548983523 heartbeat IPC: 1.165 cumulative IPC: 0.9836 (Simulation time: 01 hr 07 min 27 sec)
Heartbeat CPU 0 instructions: 550000089 cycles: 557545008 heartbeat IPC: 1.168 cumulative IPC: 0.9865 (Simulation time: 01 hr 08 min 42 sec)
Heartbeat CPU 0 instructions: 560000093 cycles: 566159217 heartbeat IPC: 1.161 cumulative IPC: 0.9891 (Simulation time: 01 hr 10 min 08 sec)
Heartbeat CPU 0 instructions: 570000097 cycles: 574766560 heartbeat IPC: 1.162 cumulative IPC: 0.9917 (Simulation time: 01 hr 11 min 27 sec)
Heartbeat CPU 0 instructions: 580000100 cycles: 583627517 heartbeat IPC: 1.129 cumulative IPC: 0.9938 (Simulation time: 01 hr 12 min 46 sec)
Heartbeat CPU 0 instructions: 590000101 cycles: 592060910 heartbeat IPC: 1.186 cumulative IPC: 0.9965 (Simulation time: 01 hr 14 min 09 sec)
Heartbeat CPU 0 instructions: 600000105 cycles: 600643131 heartbeat IPC: 1.165 cumulative IPC: 0.9989 (Simulation time: 01 hr 15 min 34 sec)
Heartbeat CPU 0 instructions: 610000107 cycles: 607576225 heartbeat IPC: 1.442 cumulative IPC: 1.004 (Simulation time: 01 hr 16 min 49 sec)
Heartbeat CPU 0 instructions: 620000108 cycles: 614317641 heartbeat IPC: 1.483 cumulative IPC: 1.009 (Simulation time: 01 hr 18 min 03 sec)
Heartbeat CPU 0 instructions: 630000109 cycles: 621045172 heartbeat IPC: 1.486 cumulative IPC: 1.014 (Simulation time: 01 hr 19 min 16 sec)
Heartbeat CPU 0 instructions: 640000109 cycles: 627792416 heartbeat IPC: 1.482 cumulative IPC: 1.019 (Simulation time: 01 hr 20 min 30 sec)
Heartbeat CPU 0 instructions: 650000113 cycles: 634350843 heartbeat IPC: 1.525 cumulative IPC: 1.025 (Simulation time: 01 hr 21 min 42 sec)
Heartbeat CPU 0 instructions: 660000113 cycles: 640853712 heartbeat IPC: 1.538 cumulative IPC: 1.03 (Simulation time: 01 hr 22 min 54 sec)
Heartbeat CPU 0 instructions: 670000114 cycles: 647354239 heartbeat IPC: 1.538 cumulative IPC: 1.035 (Simulation time: 01 hr 24 min 05 sec)
Heartbeat CPU 0 instructions: 680000114 cycles: 654700441 heartbeat IPC: 1.361 cumulative IPC: 1.039 (Simulation time: 01 hr 25 min 23 sec)
Heartbeat CPU 0 instructions: 690000115 cycles: 662174537 heartbeat IPC: 1.338 cumulative IPC: 1.042 (Simulation time: 01 hr 26 min 25 sec)
Heartbeat CPU 0 instructions: 700000115 cycles: 668658834 heartbeat IPC: 1.542 cumulative IPC: 1.047 (Simulation time: 01 hr 27 min 15 sec)
Heartbeat CPU 0 instructions: 710000117 cycles: 675766296 heartbeat IPC: 1.407 cumulative IPC: 1.051 (Simulation time: 01 hr 28 min 08 sec)
Heartbeat CPU 0 instructions: 720000119 cycles: 684618297 heartbeat IPC: 1.13 cumulative IPC: 1.052 (Simulation time: 01 hr 29 min 13 sec)
Heartbeat CPU 0 instructions: 730000120 cycles: 693153646 heartbeat IPC: 1.172 cumulative IPC: 1.053 (Simulation time: 01 hr 30 min 17 sec)
Heartbeat CPU 0 instructions: 740000123 cycles: 701710766 heartbeat IPC: 1.169 cumulative IPC: 1.055 (Simulation time: 01 hr 31 min 36 sec)
Heartbeat CPU 0 instructions: 750000124 cycles: 710289224 heartbeat IPC: 1.166 cumulative IPC: 1.056 (Simulation time: 01 hr 32 min 52 sec)
Heartbeat CPU 0 instructions: 760000124 cycles: 718916429 heartbeat IPC: 1.159 cumulative IPC: 1.057 (Simulation time: 01 hr 34 min 07 sec)
Heartbeat CPU 0 instructions: 770000125 cycles: 727765993 heartbeat IPC: 1.13 cumulative IPC: 1.058 (Simulation time: 01 hr 35 min 36 sec)
Heartbeat CPU 0 instructions: 780000128 cycles: 736177796 heartbeat IPC: 1.189 cumulative IPC: 1.06 (Simulation time: 01 hr 37 min 02 sec)
Heartbeat CPU 0 instructions: 790000129 cycles: 744741771 heartbeat IPC: 1.168 cumulative IPC: 1.061 (Simulation time: 01 hr 38 min 30 sec)
Heartbeat CPU 0 instructions: 800000129 cycles: 753350112 heartbeat IPC: 1.162 cumulative IPC: 1.062 (Simulation time: 01 hr 39 min 57 sec)
Heartbeat CPU 0 instructions: 810000131 cycles: 762080990 heartbeat IPC: 1.145 cumulative IPC: 1.063 (Simulation time: 01 hr 41 min 25 sec)
Heartbeat CPU 0 instructions: 820000134 cycles: 770634524 heartbeat IPC: 1.169 cumulative IPC: 1.064 (Simulation time: 01 hr 42 min 51 sec)
Heartbeat CPU 0 instructions: 830000138 cycles: 779189078 heartbeat IPC: 1.169 cumulative IPC: 1.065 (Simulation time: 01 hr 44 min 17 sec)
Heartbeat CPU 0 instructions: 840000141 cycles: 787750221 heartbeat IPC: 1.168 cumulative IPC: 1.066 (Simulation time: 01 hr 45 min 43 sec)
Heartbeat CPU 0 instructions: 850000141 cycles: 796306186 heartbeat IPC: 1.169 cumulative IPC: 1.067 (Simulation time: 01 hr 47 min 08 sec)
Heartbeat CPU 0 instructions: 860000145 cycles: 805200129 heartbeat IPC: 1.124 cumulative IPC: 1.068 (Simulation time: 01 hr 48 min 36 sec)
Heartbeat CPU 0 instructions: 870000148 cycles: 813597361 heartbeat IPC: 1.191 cumulative IPC: 1.069 (Simulation time: 01 hr 50 min 00 sec)
Heartbeat CPU 0 instructions: 880000152 cycles: 822173291 heartbeat IPC: 1.166 cumulative IPC: 1.07 (Simulation time: 01 hr 51 min 23 sec)
Heartbeat CPU 0 instructions: 890000155 cycles: 830718597 heartbeat IPC: 1.17 cumulative IPC: 1.071 (Simulation time: 01 hr 52 min 25 sec)
Heartbeat CPU 0 instructions: 900000156 cycles: 839413706 heartbeat IPC: 1.15 cumulative IPC: 1.072 (Simulation time: 01 hr 53 min 30 sec)
Heartbeat CPU 0 instructions: 910000156 cycles: 848009154 heartbeat IPC: 1.163 cumulative IPC: 1.073 (Simulation time: 01 hr 54 min 45 sec)
Heartbeat CPU 0 instructions: 920000159 cycles: 856551169 heartbeat IPC: 1.171 cumulative IPC: 1.074 (Simulation time: 01 hr 55 min 57 sec)
Heartbeat CPU 0 instructions: 930000159 cycles: 865085171 heartbeat IPC: 1.172 cumulative IPC: 1.075 (Simulation time: 01 hr 57 min 07 sec)
Heartbeat CPU 0 instructions: 940000161 cycles: 873618737 heartbeat IPC: 1.172 cumulative IPC: 1.076 (Simulation time: 01 hr 58 min 23 sec)
Heartbeat CPU 0 instructions: 950000161 cycles: 882496198 heartbeat IPC: 1.126 cumulative IPC: 1.076 (Simulation time: 01 hr 59 min 50 sec)
Heartbeat CPU 0 instructions: 960000163 cycles: 890938258 heartbeat IPC: 1.185 cumulative IPC: 1.078 (Simulation time: 02 hr 00 min 55 sec)
Heartbeat CPU 0 instructions: 970000164 cycles: 899509923 heartbeat IPC: 1.167 cumulative IPC: 1.078 (Simulation time: 02 hr 02 min 14 sec)
Heartbeat CPU 0 instructions: 980000165 cycles: 908087908 heartbeat IPC: 1.166 cumulative IPC: 1.079 (Simulation time: 02 hr 03 min 43 sec)
Heartbeat CPU 0 instructions: 990000166 cycles: 916741788 heartbeat IPC: 1.156 cumulative IPC: 1.08 (Simulation time: 02 hr 05 min 11 sec)
Heartbeat CPU 0 instructions: 1000000170 cycles: 925435125 heartbeat IPC: 1.15 cumulative IPC: 1.081 (Simulation time: 02 hr 06 min 40 sec)
[ERROR_CYCLE] Error added at CPU cycle 929683228, interval 2, pending count: 1
[DRAM_CYCLE_ERROR] Cycle-based error applied! address=0x1b2da4ec0 additional_latency=1990500 cycles
Heartbeat CPU 0 instructions: 1010000170 cycles: 933956391 heartbeat IPC: 1.174 cumulative IPC: 1.081 (Simulation time: 02 hr 08 min 05 sec)
Heartbeat CPU 0 instructions: 1020000172 cycles: 942517252 heartbeat IPC: 1.168 cumulative IPC: 1.082 (Simulation time: 02 hr 09 min 25 sec)
Heartbeat CPU 0 instructions: 1030000174 cycles: 951054108 heartbeat IPC: 1.171 cumulative IPC: 1.083 (Simulation time: 02 hr 10 min 36 sec)
Heartbeat CPU 0 instructions: 1040000175 cycles: 959872037 heartbeat IPC: 1.134 cumulative IPC: 1.083 (Simulation time: 02 hr 11 min 46 sec)
Heartbeat CPU 0 instructions: 1050000178 cycles: 968400255 heartbeat IPC: 1.173 cumulative IPC: 1.084 (Simulation time: 02 hr 12 min 58 sec)
Heartbeat CPU 0 instructions: 1060000182 cycles: 976986759 heartbeat IPC: 1.165 cumulative IPC: 1.085 (Simulation time: 02 hr 13 min 58 sec)
Heartbeat CPU 0 instructions: 1070000184 cycles: 985550578 heartbeat IPC: 1.168 cumulative IPC: 1.086 (Simulation time: 02 hr 15 min 17 sec)
Heartbeat CPU 0 instructions: 1080000186 cycles: 994175330 heartbeat IPC: 1.159 cumulative IPC: 1.086 (Simulation time: 02 hr 16 min 31 sec)
Heartbeat CPU 0 instructions: 1090000188 cycles: 1003039630 heartbeat IPC: 1.128 cumulative IPC: 1.087 (Simulation time: 02 hr 17 min 47 sec)
Heartbeat CPU 0 instructions: 1100000192 cycles: 1011515005 heartbeat IPC: 1.18 cumulative IPC: 1.087 (Simulation time: 02 hr 19 min 07 sec)
Heartbeat CPU 0 instructions: 1110000194 cycles: 1020110632 heartbeat IPC: 1.163 cumulative IPC: 1.088 (Simulation time: 02 hr 20 min 19 sec)
Heartbeat CPU 0 instructions: 1120000198 cycles: 1028718376 heartbeat IPC: 1.162 cumulative IPC: 1.089 (Simulation time: 02 hr 21 min 49 sec)
Heartbeat CPU 0 instructions: 1130000200 cycles: 1037525145 heartbeat IPC: 1.135 cumulative IPC: 1.089 (Simulation time: 02 hr 23 min 07 sec)
Heartbeat CPU 0 instructions: 1140000200 cycles: 1046130361 heartbeat IPC: 1.162 cumulative IPC: 1.09 (Simulation time: 02 hr 24 min 17 sec)
Heartbeat CPU 0 instructions: 1150000201 cycles: 1054730384 heartbeat IPC: 1.163 cumulative IPC: 1.09 (Simulation time: 02 hr 25 min 45 sec)
Heartbeat CPU 0 instructions: 1160000202 cycles: 1063305886 heartbeat IPC: 1.166 cumulative IPC: 1.091 (Simulation time: 02 hr 27 min 03 sec)
Heartbeat CPU 0 instructions: 1170000204 cycles: 1071946375 heartbeat IPC: 1.157 cumulative IPC: 1.091 (Simulation time: 02 hr 28 min 08 sec)
Heartbeat CPU 0 instructions: 1180000204 cycles: 1080827920 heartbeat IPC: 1.126 cumulative IPC: 1.092 (Simulation time: 02 hr 29 min 21 sec)
Heartbeat CPU 0 instructions: 1190000204 cycles: 1089300681 heartbeat IPC: 1.18 cumulative IPC: 1.092 (Simulation time: 02 hr 30 min 25 sec)
Heartbeat CPU 0 instructions: 1200000206 cycles: 1097877367 heartbeat IPC: 1.166 cumulative IPC: 1.093 (Simulation time: 02 hr 31 min 38 sec)
Heartbeat CPU 0 instructions: 1210000208 cycles: 1106488228 heartbeat IPC: 1.161 cumulative IPC: 1.094 (Simulation time: 02 hr 32 min 58 sec)
Heartbeat CPU 0 instructions: 1220000211 cycles: 1115199445 heartbeat IPC: 1.148 cumulative IPC: 1.094 (Simulation time: 02 hr 34 min 03 sec)
Heartbeat CPU 0 instructions: 1230000213 cycles: 1123857709 heartbeat IPC: 1.155 cumulative IPC: 1.094 (Simulation time: 02 hr 35 min 11 sec)
Heartbeat CPU 0 instructions: 1240000214 cycles: 1132441221 heartbeat IPC: 1.165 cumulative IPC: 1.095 (Simulation time: 02 hr 36 min 09 sec)
Heartbeat CPU 0 instructions: 1250000215 cycles: 1141040599 heartbeat IPC: 1.163 cumulative IPC: 1.095 (Simulation time: 02 hr 37 min 21 sec)
Heartbeat CPU 0 instructions: 1260000219 cycles: 1149630472 heartbeat IPC: 1.164 cumulative IPC: 1.096 (Simulation time: 02 hr 38 min 28 sec)
Heartbeat CPU 0 instructions: 1270000221 cycles: 1158543275 heartbeat IPC: 1.122 cumulative IPC: 1.096 (Simulation time: 02 hr 39 min 33 sec)
Heartbeat CPU 0 instructions: 1280000223 cycles: 1167028589 heartbeat IPC: 1.179 cumulative IPC: 1.097 (Simulation time: 02 hr 40 min 35 sec)
Heartbeat CPU 0 instructions: 1290000223 cycles: 1175602053 heartbeat IPC: 1.166 cumulative IPC: 1.097 (Simulation time: 02 hr 42 min 02 sec)
Heartbeat CPU 0 instructions: 1300000223 cycles: 1184189917 heartbeat IPC: 1.164 cumulative IPC: 1.098 (Simulation time: 02 hr 43 min 18 sec)
Heartbeat CPU 0 instructions: 1310000227 cycles: 1192838769 heartbeat IPC: 1.156 cumulative IPC: 1.098 (Simulation time: 02 hr 44 min 21 sec)
Heartbeat CPU 0 instructions: 1320000227 cycles: 1201557343 heartbeat IPC: 1.147 cumulative IPC: 1.099 (Simulation time: 02 hr 45 min 42 sec)
Heartbeat CPU 0 instructions: 1330000227 cycles: 1210072376 heartbeat IPC: 1.174 cumulative IPC: 1.099 (Simulation time: 02 hr 47 min 07 sec)
Heartbeat CPU 0 instructions: 1340000230 cycles: 1218667495 heartbeat IPC: 1.163 cumulative IPC: 1.1 (Simulation time: 02 hr 48 min 31 sec)
Heartbeat CPU 0 instructions: 1350000233 cycles: 1227207261 heartbeat IPC: 1.171 cumulative IPC: 1.1 (Simulation time: 02 hr 49 min 45 sec)
Heartbeat CPU 0 instructions: 1360000236 cycles: 1236065642 heartbeat IPC: 1.129 cumulative IPC: 1.1 (Simulation time: 02 hr 50 min 55 sec)
Heartbeat CPU 0 instructions: 1370000237 cycles: 1244597345 heartbeat IPC: 1.172 cumulative IPC: 1.101 (Simulation time: 02 hr 51 min 58 sec)
Heartbeat CPU 0 instructions: 1380000237 cycles: 1253197874 heartbeat IPC: 1.163 cumulative IPC: 1.101 (Simulation time: 02 hr 53 min 01 sec)
Heartbeat CPU 0 instructions: 1390000238 cycles: 1261766899 heartbeat IPC: 1.167 cumulative IPC: 1.102 (Simulation time: 02 hr 54 min 10 sec)
Heartbeat CPU 0 instructions: 1400000238 cycles: 1270420429 heartbeat IPC: 1.156 cumulative IPC: 1.102 (Simulation time: 02 hr 55 min 27 sec)
Heartbeat CPU 0 instructions: 1410000239 cycles: 1279230977 heartbeat IPC: 1.135 cumulative IPC: 1.102 (Simulation time: 02 hr 56 min 56 sec)
Heartbeat CPU 0 instructions: 1420000239 cycles: 1287714553 heartbeat IPC: 1.179 cumulative IPC: 1.103 (Simulation time: 02 hr 58 min 22 sec)
Heartbeat CPU 0 instructions: 1430000243 cycles: 1296268116 heartbeat IPC: 1.169 cumulative IPC: 1.103 (Simulation time: 02 hr 59 min 49 sec)
Heartbeat CPU 0 instructions: 1440000247 cycles: 1304861616 heartbeat IPC: 1.164 cumulative IPC: 1.104 (Simulation time: 03 hr 01 min 17 sec)
Heartbeat CPU 0 instructions: 1450000248 cycles: 1311285300 heartbeat IPC: 1.557 cumulative IPC: 1.106 (Simulation time: 03 hr 02 min 28 sec)
Heartbeat CPU 0 instructions: 1460000251 cycles: 1317740070 heartbeat IPC: 1.549 cumulative IPC: 1.108 (Simulation time: 03 hr 03 min 38 sec)
Heartbeat CPU 0 instructions: 1470000252 cycles: 1324207229 heartbeat IPC: 1.546 cumulative IPC: 1.11 (Simulation time: 03 hr 04 min 49 sec)
Heartbeat CPU 0 instructions: 1480000256 cycles: 1330656243 heartbeat IPC: 1.551 cumulative IPC: 1.112 (Simulation time: 03 hr 06 min 00 sec)
Heartbeat CPU 0 instructions: 1490000258 cycles: 1337118632 heartbeat IPC: 1.547 cumulative IPC: 1.114 (Simulation time: 03 hr 07 min 10 sec)
Heartbeat CPU 0 instructions: 1500000258 cycles: 1343562055 heartbeat IPC: 1.552 cumulative IPC: 1.116 (Simulation time: 03 hr 08 min 13 sec)
Heartbeat CPU 0 instructions: 1510000260 cycles: 1350045269 heartbeat IPC: 1.542 cumulative IPC: 1.118 (Simulation time: 03 hr 09 min 22 sec)
Heartbeat CPU 0 instructions: 1520000261 cycles: 1356502885 heartbeat IPC: 1.549 cumulative IPC: 1.121 (Simulation time: 03 hr 10 min 33 sec)
Heartbeat CPU 0 instructions: 1530000261 cycles: 1362971226 heartbeat IPC: 1.546 cumulative IPC: 1.123 (Simulation time: 03 hr 11 min 35 sec)
Heartbeat CPU 0 instructions: 1540000261 cycles: 1369414882 heartbeat IPC: 1.552 cumulative IPC: 1.125 (Simulation time: 03 hr 12 min 30 sec)
Heartbeat CPU 0 instructions: 1550000261 cycles: 1375893335 heartbeat IPC: 1.544 cumulative IPC: 1.127 (Simulation time: 03 hr 13 min 19 sec)
Heartbeat CPU 0 instructions: 1560000262 cycles: 1382331433 heartbeat IPC: 1.553 cumulative IPC: 1.129 (Simulation time: 03 hr 14 min 09 sec)
Heartbeat CPU 0 instructions: 1570000266 cycles: 1388731707 heartbeat IPC: 1.562 cumulative IPC: 1.131 (Simulation time: 03 hr 15 min 07 sec)
[ERROR_CYCLE] Error added at CPU cycle 1394524842, interval 3, pending count: 1
[DRAM_CYCLE_ERROR] Cycle-based error applied! address=0xed6aa41c0 additional_latency=1990500 cycles
Heartbeat CPU 0 instructions: 1580000270 cycles: 1394761699 heartbeat IPC: 1.658 cumulative IPC: 1.133 (Simulation time: 03 hr 16 min 05 sec)
Heartbeat CPU 0 instructions: 1590000273 cycles: 1401118875 heartbeat IPC: 1.573 cumulative IPC: 1.135 (Simulation time: 03 hr 17 min 05 sec)
Heartbeat CPU 0 instructions: 1600000273 cycles: 1407555060 heartbeat IPC: 1.554 cumulative IPC: 1.137 (Simulation time: 03 hr 17 min 59 sec)
Heartbeat CPU 0 instructions: 1610000275 cycles: 1414012938 heartbeat IPC: 1.548 cumulative IPC: 1.139 (Simulation time: 03 hr 18 min 52 sec)
Heartbeat CPU 0 instructions: 1620000276 cycles: 1420456197 heartbeat IPC: 1.552 cumulative IPC: 1.14 (Simulation time: 03 hr 20 min 01 sec)
Heartbeat CPU 0 instructions: 1630000277 cycles: 1426920307 heartbeat IPC: 1.547 cumulative IPC: 1.142 (Simulation time: 03 hr 20 min 49 sec)
Heartbeat CPU 0 instructions: 1640000279 cycles: 1433396746 heartbeat IPC: 1.544 cumulative IPC: 1.144 (Simulation time: 03 hr 21 min 49 sec)
Heartbeat CPU 0 instructions: 1650000283 cycles: 1439848183 heartbeat IPC: 1.55 cumulative IPC: 1.146 (Simulation time: 03 hr 22 min 47 sec)
Heartbeat CPU 0 instructions: 1660000283 cycles: 1446302849 heartbeat IPC: 1.549 cumulative IPC: 1.148 (Simulation time: 03 hr 23 min 56 sec)
Heartbeat CPU 0 instructions: 1670000283 cycles: 1452765881 heartbeat IPC: 1.547 cumulative IPC: 1.15 (Simulation time: 03 hr 24 min 50 sec)
Heartbeat CPU 0 instructions: 1680000284 cycles: 1459239180 heartbeat IPC: 1.545 cumulative IPC: 1.151 (Simulation time: 03 hr 25 min 39 sec)
Heartbeat CPU 0 instructions: 1690000284 cycles: 1465689252 heartbeat IPC: 1.55 cumulative IPC: 1.153 (Simulation time: 03 hr 26 min 36 sec)
Heartbeat CPU 0 instructions: 1700000285 cycles: 1472163971 heartbeat IPC: 1.544 cumulative IPC: 1.155 (Simulation time: 03 hr 27 min 34 sec)
Heartbeat CPU 0 instructions: 1710000285 cycles: 1478613985 heartbeat IPC: 1.55 cumulative IPC: 1.156 (Simulation time: 03 hr 28 min 42 sec)
Heartbeat CPU 0 instructions: 1720000286 cycles: 1484848325 heartbeat IPC: 1.604 cumulative IPC: 1.158 (Simulation time: 03 hr 29 min 38 sec)
Heartbeat CPU 0 instructions: 1730000286 cycles: 1490917132 heartbeat IPC: 1.648 cumulative IPC: 1.16 (Simulation time: 03 hr 30 min 45 sec)
Heartbeat CPU 0 instructions: 1740000287 cycles: 1497388128 heartbeat IPC: 1.545 cumulative IPC: 1.162 (Simulation time: 03 hr 31 min 52 sec)
Heartbeat CPU 0 instructions: 1750000288 cycles: 1503830162 heartbeat IPC: 1.552 cumulative IPC: 1.164 (Simulation time: 03 hr 32 min 54 sec)
Heartbeat CPU 0 instructions: 1760000288 cycles: 1510289090 heartbeat IPC: 1.548 cumulative IPC: 1.165 (Simulation time: 03 hr 33 min 50 sec)
Heartbeat CPU 0 instructions: 1770000288 cycles: 1516744125 heartbeat IPC: 1.549 cumulative IPC: 1.167 (Simulation time: 03 hr 34 min 45 sec)
Heartbeat CPU 0 instructions: 1780000289 cycles: 1523213093 heartbeat IPC: 1.546 cumulative IPC: 1.169 (Simulation time: 03 hr 35 min 44 sec)
Heartbeat CPU 0 instructions: 1790000291 cycles: 1529660351 heartbeat IPC: 1.551 cumulative IPC: 1.17 (Simulation time: 03 hr 36 min 36 sec)
Heartbeat CPU 0 instructions: 1800000291 cycles: 1536137604 heartbeat IPC: 1.544 cumulative IPC: 1.172 (Simulation time: 03 hr 37 min 34 sec)
Heartbeat CPU 0 instructions: 1810000291 cycles: 1542618519 heartbeat IPC: 1.543 cumulative IPC: 1.173 (Simulation time: 03 hr 38 min 20 sec)
Heartbeat CPU 0 instructions: 1820000294 cycles: 1549083830 heartbeat IPC: 1.547 cumulative IPC: 1.175 (Simulation time: 03 hr 39 min 18 sec)
Heartbeat CPU 0 instructions: 1830000297 cycles: 1555556021 heartbeat IPC: 1.545 cumulative IPC: 1.176 (Simulation time: 03 hr 40 min 28 sec)
Heartbeat CPU 0 instructions: 1840000298 cycles: 1562014220 heartbeat IPC: 1.548 cumulative IPC: 1.178 (Simulation time: 03 hr 41 min 38 sec)
Heartbeat CPU 0 instructions: 1850000300 cycles: 1568486899 heartbeat IPC: 1.545 cumulative IPC: 1.179 (Simulation time: 03 hr 42 min 48 sec)
Heartbeat CPU 0 instructions: 1860000300 cycles: 1574993914 heartbeat IPC: 1.537 cumulative IPC: 1.181 (Simulation time: 03 hr 43 min 58 sec)
Heartbeat CPU 0 instructions: 1870000300 cycles: 1581058366 heartbeat IPC: 1.649 cumulative IPC: 1.183 (Simulation time: 03 hr 45 min 05 sec)
Heartbeat CPU 0 instructions: 1880000300 cycles: 1587288726 heartbeat IPC: 1.605 cumulative IPC: 1.184 (Simulation time: 03 hr 46 min 13 sec)
Heartbeat CPU 0 instructions: 1890000302 cycles: 1593744114 heartbeat IPC: 1.549 cumulative IPC: 1.186 (Simulation time: 03 hr 47 min 23 sec)
Heartbeat CPU 0 instructions: 1900000302 cycles: 1600205843 heartbeat IPC: 1.548 cumulative IPC: 1.187 (Simulation time: 03 hr 48 min 33 sec)
Heartbeat CPU 0 instructions: 1910000302 cycles: 1606663727 heartbeat IPC: 1.548 cumulative IPC: 1.189 (Simulation time: 03 hr 49 min 43 sec)
Heartbeat CPU 0 instructions: 1920000303 cycles: 1613125935 heartbeat IPC: 1.547 cumulative IPC: 1.19 (Simulation time: 03 hr 50 min 53 sec)
Heartbeat CPU 0 instructions: 1930000307 cycles: 1619586610 heartbeat IPC: 1.548 cumulative IPC: 1.192 (Simulation time: 03 hr 52 min 03 sec)
Heartbeat CPU 0 instructions: 1940000308 cycles: 1626077816 heartbeat IPC: 1.541 cumulative IPC: 1.193 (Simulation time: 03 hr 53 min 13 sec)
Heartbeat CPU 0 instructions: 1950000308 cycles: 1632540784 heartbeat IPC: 1.547 cumulative IPC: 1.194 (Simulation time: 03 hr 54 min 23 sec)
Heartbeat CPU 0 instructions: 1960000310 cycles: 1639031751 heartbeat IPC: 1.541 cumulative IPC: 1.196 (Simulation time: 03 hr 55 min 34 sec)
Heartbeat CPU 0 instructions: 1970000311 cycles: 1645498258 heartbeat IPC: 1.546 cumulative IPC: 1.197 (Simulation time: 03 hr 56 min 44 sec)
Heartbeat CPU 0 instructions: 1980000312 cycles: 1651977155 heartbeat IPC: 1.543 cumulative IPC: 1.199 (Simulation time: 03 hr 57 min 48 sec)
Heartbeat CPU 0 instructions: 1990000313 cycles: 1658447075 heartbeat IPC: 1.546 cumulative IPC: 1.2 (Simulation time: 03 hr 58 min 43 sec)

=== ERROR PAGE STATISTICS ===
Mode: CYCLE
Error Cycle Interval: 464841614 CPU cycles
Total Error Accesses: 3
==============================
Simulation finished CPU 0 instructions: 1999999509 cycles: 1664919005 cumulative IPC: 1.201 (Simulation time: 03 hr 59 min 42 sec)
Simulation complete CPU 0 instructions: 1999999509 cycles: 1664919005 cumulative IPC: 1.201 (Simulation time: 03 hr 59 min 42 sec)

ChampSim completed all CPUs

=== Simulation ===
CPU 0 runs test_traces/654.roms_s-1007B.champsimtrace.xz

Region of Interest Statistics

CPU 0 cumulative IPC: 1.201 instructions: 1999999509 cycles: 1664919005
CPU 0 Branch Prediction Accuracy: 95.85% MPKI: 3.086 Average ROB Occupancy at Mispredict: 45.57
Branch type MPKI
BRANCH_DIRECT_JUMP: 9.8e-05
BRANCH_INDIRECT: 6e-06
BRANCH_CONDITIONAL: 1.593
BRANCH_DIRECT_CALL: 3.65e-05
BRANCH_INDIRECT_CALL: 0
BRANCH_RETURN: 1.493

cpu0->cpu0_STLB TOTAL        ACCESS:   39022109 HIT:   39021229 MISS:        880 MSHR_MERGE:          0
cpu0->cpu0_STLB LOAD         ACCESS:   39022109 HIT:   39021229 MISS:        880 MSHR_MERGE:          0
cpu0->cpu0_STLB RFO          ACCESS:          0 HIT:          0 MISS:          0 MSHR_MERGE:          0
cpu0->cpu0_STLB PREFETCH     ACCESS:          0 HIT:          0 MISS:          0 MSHR_MERGE:          0
cpu0->cpu0_STLB WRITE        ACCESS:          0 HIT:          0 MISS:          0 MSHR_MERGE:          0
cpu0->cpu0_STLB TRANSLATION  ACCESS:          0 HIT:          0 MISS:          0 MSHR_MERGE:          0
cpu0->cpu0_STLB PREFETCH REQUESTED:          0 ISSUED:          0 USEFUL:          0 USELESS:          0
cpu0->cpu0_STLB AVERAGE MISS LATENCY: 8723 cycles
cpu0->cpu0_L2C TOTAL        ACCESS:   35187786 HIT:   15858825 MISS:   19328961 MSHR_MERGE:          0
cpu0->cpu0_L2C LOAD         ACCESS:   22563594 HIT:    7672291 MISS:   14891303 MSHR_MERGE:          0
cpu0->cpu0_L2C RFO          ACCESS:    5289546 HIT:     857713 MISS:    4431833 MSHR_MERGE:          0
cpu0->cpu0_L2C PREFETCH     ACCESS:          0 HIT:          0 MISS:          0 MSHR_MERGE:          0
cpu0->cpu0_L2C WRITE        ACCESS:    7334646 HIT:    7328821 MISS:       5825 MSHR_MERGE:          0
cpu0->cpu0_L2C TRANSLATION  ACCESS:          0 HIT:          0 MISS:          0 MSHR_MERGE:          0
cpu0->cpu0_L2C PREFETCH REQUESTED:          0 ISSUED:          0 USEFUL:          0 USELESS:          0
cpu0->cpu0_L2C AVERAGE MISS LATENCY: 60.27 cycles
cpu0->cpu0_L1I TOTAL        ACCESS:  419290317 HIT:  419289717 MISS:        600 MSHR_MERGE:        187
cpu0->cpu0_L1I LOAD         ACCESS:  419290317 HIT:  419289717 MISS:        600 MSHR_MERGE:        187
cpu0->cpu0_L1I RFO          ACCESS:          0 HIT:          0 MISS:          0 MSHR_MERGE:          0
cpu0->cpu0_L1I PREFETCH     ACCESS:          0 HIT:          0 MISS:          0 MSHR_MERGE:          0
cpu0->cpu0_L1I WRITE        ACCESS:          0 HIT:          0 MISS:          0 MSHR_MERGE:          0
cpu0->cpu0_L1I TRANSLATION  ACCESS:          0 HIT:          0 MISS:          0 MSHR_MERGE:          0
cpu0->cpu0_L1I PREFETCH REQUESTED:          0 ISSUED:          0 USEFUL:          0 USELESS:          0
cpu0->cpu0_L1I AVERAGE MISS LATENCY: 119.5 cycles
cpu0->cpu0_L1D TOTAL        ACCESS:  768701272 HIT:  729991606 MISS:   38709666 MSHR_MERGE:   10856453
cpu0->cpu0_L1D LOAD         ACCESS:  587622095 HIT:  557918038 MISS:   29704057 MSHR_MERGE:    7140870
cpu0->cpu0_L1D RFO          ACCESS:          0 HIT:          0 MISS:          0 MSHR_MERGE:          0
cpu0->cpu0_L1D PREFETCH     ACCESS:          0 HIT:          0 MISS:          0 MSHR_MERGE:          0
cpu0->cpu0_L1D WRITE        ACCESS:  181079177 HIT:  172073568 MISS:    9005609 MSHR_MERGE:    3715583
cpu0->cpu0_L1D TRANSLATION  ACCESS:          0 HIT:          0 MISS:          0 MSHR_MERGE:          0
cpu0->cpu0_L1D PREFETCH REQUESTED:          0 ISSUED:          0 USEFUL:          0 USELESS:          0
cpu0->cpu0_L1D AVERAGE MISS LATENCY: 50.57 cycles
cpu0->cpu0_ITLB TOTAL        ACCESS:  364616222 HIT:  364616221 MISS:          1 MSHR_MERGE:          0
cpu0->cpu0_ITLB LOAD         ACCESS:  364616222 HIT:  364616221 MISS:          1 MSHR_MERGE:          0
cpu0->cpu0_ITLB RFO          ACCESS:          0 HIT:          0 MISS:          0 MSHR_MERGE:          0
cpu0->cpu0_ITLB PREFETCH     ACCESS:          0 HIT:          0 MISS:          0 MSHR_MERGE:          0
cpu0->cpu0_ITLB WRITE        ACCESS:          0 HIT:          0 MISS:          0 MSHR_MERGE:          0
cpu0->cpu0_ITLB TRANSLATION  ACCESS:          0 HIT:          0 MISS:          0 MSHR_MERGE:          0
cpu0->cpu0_ITLB PREFETCH REQUESTED:          0 ISSUED:          0 USEFUL:          0 USELESS:          0
cpu0->cpu0_ITLB AVERAGE MISS LATENCY: 1.722e+04 cycles
cpu0->cpu0_DTLB TOTAL        ACCESS:  653279752 HIT:  614239062 MISS:   39040690 MSHR_MERGE:      18582
cpu0->cpu0_DTLB LOAD         ACCESS:  653279752 HIT:  614239062 MISS:   39040690 MSHR_MERGE:      18582
cpu0->cpu0_DTLB RFO          ACCESS:          0 HIT:          0 MISS:          0 MSHR_MERGE:          0
cpu0->cpu0_DTLB PREFETCH     ACCESS:          0 HIT:          0 MISS:          0 MSHR_MERGE:          0
cpu0->cpu0_DTLB WRITE        ACCESS:          0 HIT:          0 MISS:          0 MSHR_MERGE:          0
cpu0->cpu0_DTLB TRANSLATION  ACCESS:          0 HIT:          0 MISS:          0 MSHR_MERGE:          0
cpu0->cpu0_DTLB PREFETCH REQUESTED:          0 ISSUED:          0 USEFUL:          0 USELESS:          0
cpu0->cpu0_DTLB AVERAGE MISS LATENCY: 5.22 cycles
cpu0->LLC TOTAL        ACCESS:   25251985 HIT:   16383808 MISS:    8868177 MSHR_MERGE:          0
cpu0->LLC LOAD         ACCESS:   14891303 HIT:    7671960 MISS:    7219343 MSHR_MERGE:          0
cpu0->LLC RFO          ACCESS:    4431833 HIT:    2788319 MISS:    1643514 MSHR_MERGE:          0
cpu0->LLC PREFETCH     ACCESS:          0 HIT:          0 MISS:          0 MSHR_MERGE:          0
cpu0->LLC WRITE        ACCESS:    5928849 HIT:    5923529 MISS:       5320 MSHR_MERGE:          0
cpu0->LLC TRANSLATION  ACCESS:          0 HIT:          0 MISS:          0 MSHR_MERGE:          0
cpu0->LLC PREFETCH REQUESTED:          0 ISSUED:          0 USEFUL:          0 USELESS:          0
cpu0->LLC AVERAGE MISS LATENCY: 97.67 cycles

DRAM Statistics

Channel 0 RQ ROW_BUFFER_HIT:      79542
  ROW_BUFFER_MISS:    4352551
  AVG DBUS CONGESTED CYCLE: 11.47
Channel 0 WQ ROW_BUFFER_HIT:     183877
  ROW_BUFFER_MISS:     674399
  FULL:          0
Channel 0 REFRESHES ISSUED:     138734

Channel 1 RQ ROW_BUFFER_HIT:      79581
  ROW_BUFFER_MISS:    4352803
  AVG DBUS CONGESTED CYCLE: 11.44
Channel 1 WQ ROW_BUFFER_HIT:     182157
  ROW_BUFFER_MISS:     676028
  FULL:          0
Channel 1 REFRESHES ISSUED:     138734
