[VMEM] WARNING: physical memory size is smaller than virtual memory size.

*** ChampSim Multicore Out-of-Order Simulator ***
Warmup Instructions: 0
Simulation Instructions: 9223372036854775807
Number of CPUs: 1
Page size: 4096

Off-chip DRAM Size: 32 GiB Channels: 2 Width: 32-bit Data Rate: 4807 MT/s
[ERROR_PAGE_MANAGER] Error latency: 173500 
[ERROR_PAGE_MANAGER] Random seed: 54321 (fixed for preload reproducibility)
[ERROR_PAGE_MANAGER] Cycle-based error modeling enabled
[ERROR_PAGE_MANAGER] Errors per interval: 1
[ERROR_PAGE_MANAGER] Error cycle interval: 70532401 cycles

=== ERROR PAGE STATISTICS ===
Mode: CYCLE
Error Cycle Interval: 70532401 CPU cycles
Total Error Accesses: 0
==============================
Warmup finished CPU 0 instructions: 0 cycles: 1 cumulative IPC: 0 (Simulation time: 00 hr 00 min 00 sec)
Warmup complete CPU 0 instructions: 0 cycles: 1 cumulative IPC: 0 (Simulation time: 00 hr 00 min 00 sec)
Heartbeat CPU 0 instructions: 10000002 cycles: 6804523 heartbeat IPC: 1.47 cumulative IPC: 1.47 (Simulation time: 00 hr 00 min 57 sec)
Heartbeat CPU 0 instructions: 20000003 cycles: 13058993 heartbeat IPC: 1.599 cumulative IPC: 1.532 (Simulation time: 00 hr 01 min 48 sec)
Heartbeat CPU 0 instructions: 30000006 cycles: 19304243 heartbeat IPC: 1.601 cumulative IPC: 1.554 (Simulation time: 00 hr 02 min 27 sec)
Heartbeat CPU 0 instructions: 40000006 cycles: 25531036 heartbeat IPC: 1.606 cumulative IPC: 1.567 (Simulation time: 00 hr 03 min 13 sec)
Heartbeat CPU 0 instructions: 50000010 cycles: 31640791 heartbeat IPC: 1.637 cumulative IPC: 1.58 (Simulation time: 00 hr 03 min 51 sec)
Heartbeat CPU 0 instructions: 60000011 cycles: 37730560 heartbeat IPC: 1.642 cumulative IPC: 1.59 (Simulation time: 00 hr 04 min 30 sec)
Heartbeat CPU 0 instructions: 70000011 cycles: 43650088 heartbeat IPC: 1.689 cumulative IPC: 1.604 (Simulation time: 00 hr 05 min 10 sec)
Heartbeat CPU 0 instructions: 80000014 cycles: 49212251 heartbeat IPC: 1.798 cumulative IPC: 1.626 (Simulation time: 00 hr 05 min 50 sec)
Heartbeat CPU 0 instructions: 90000016 cycles: 55629423 heartbeat IPC: 1.558 cumulative IPC: 1.618 (Simulation time: 00 hr 06 min 26 sec)
Heartbeat CPU 0 instructions: 100000020 cycles: 61336563 heartbeat IPC: 1.752 cumulative IPC: 1.63 (Simulation time: 00 hr 07 min 07 sec)
Heartbeat CPU 0 instructions: 110000020 cycles: 67474801 heartbeat IPC: 1.629 cumulative IPC: 1.63 (Simulation time: 00 hr 07 min 50 sec)
[ERROR_CYCLE] Error added at CPU cycle 70532402, interval 1, pending count: 1
[DRAM_CYCLE_ERROR] Cycle-based error applied! address=0x1aac3fcc0 additional_latency=173500 cycles
Heartbeat CPU 0 instructions: 120000021 cycles: 72865714 heartbeat IPC: 1.855 cumulative IPC: 1.647 (Simulation time: 00 hr 08 min 24 sec)
Heartbeat CPU 0 instructions: 130000023 cycles: 78031239 heartbeat IPC: 1.936 cumulative IPC: 1.666 (Simulation time: 00 hr 08 min 59 sec)
Heartbeat CPU 0 instructions: 140000023 cycles: 82185902 heartbeat IPC: 2.407 cumulative IPC: 1.703 (Simulation time: 00 hr 09 min 23 sec)
Heartbeat CPU 0 instructions: 150000026 cycles: 86682501 heartbeat IPC: 2.224 cumulative IPC: 1.73 (Simulation time: 00 hr 09 min 47 sec)
Heartbeat CPU 0 instructions: 160000026 cycles: 91047271 heartbeat IPC: 2.291 cumulative IPC: 1.757 (Simulation time: 00 hr 10 min 15 sec)
Heartbeat CPU 0 instructions: 170000030 cycles: 96093965 heartbeat IPC: 1.981 cumulative IPC: 1.769 (Simulation time: 00 hr 10 min 49 sec)
Heartbeat CPU 0 instructions: 180000030 cycles: 102388006 heartbeat IPC: 1.589 cumulative IPC: 1.758 (Simulation time: 00 hr 11 min 30 sec)
Heartbeat CPU 0 instructions: 190000030 cycles: 108697805 heartbeat IPC: 1.585 cumulative IPC: 1.748 (Simulation time: 00 hr 12 min 14 sec)
Heartbeat CPU 0 instructions: 200000032 cycles: 115027202 heartbeat IPC: 1.58 cumulative IPC: 1.739 (Simulation time: 00 hr 12 min 56 sec)
Heartbeat CPU 0 instructions: 210000032 cycles: 121363897 heartbeat IPC: 1.578 cumulative IPC: 1.73 (Simulation time: 00 hr 13 min 35 sec)
Heartbeat CPU 0 instructions: 220000032 cycles: 127674199 heartbeat IPC: 1.585 cumulative IPC: 1.723 (Simulation time: 00 hr 14 min 20 sec)
Heartbeat CPU 0 instructions: 230000035 cycles: 133978394 heartbeat IPC: 1.586 cumulative IPC: 1.717 (Simulation time: 00 hr 15 min 10 sec)
Heartbeat CPU 0 instructions: 240000036 cycles: 140241975 heartbeat IPC: 1.597 cumulative IPC: 1.711 (Simulation time: 00 hr 15 min 46 sec)
[ERROR_CYCLE] Error added at CPU cycle 141064802, interval 2, pending count: 1
[DRAM_CYCLE_ERROR] Cycle-based error applied! address=0x617144cc0 additional_latency=173500 cycles
Heartbeat CPU 0 instructions: 250000039 cycles: 146255314 heartbeat IPC: 1.663 cumulative IPC: 1.709 (Simulation time: 00 hr 16 min 22 sec)
Heartbeat CPU 0 instructions: 260000043 cycles: 152755338 heartbeat IPC: 1.538 cumulative IPC: 1.702 (Simulation time: 00 hr 17 min 01 sec)
Heartbeat CPU 0 instructions: 270000044 cycles: 159005043 heartbeat IPC: 1.6 cumulative IPC: 1.698 (Simulation time: 00 hr 17 min 44 sec)
Heartbeat CPU 0 instructions: 280000046 cycles: 165015993 heartbeat IPC: 1.664 cumulative IPC: 1.697 (Simulation time: 00 hr 18 min 24 sec)
Heartbeat CPU 0 instructions: 290000050 cycles: 171240738 heartbeat IPC: 1.606 cumulative IPC: 1.694 (Simulation time: 00 hr 19 min 00 sec)
Heartbeat CPU 0 instructions: 300000050 cycles: 176798308 heartbeat IPC: 1.799 cumulative IPC: 1.697 (Simulation time: 00 hr 19 min 33 sec)
Heartbeat CPU 0 instructions: 310000051 cycles: 182173651 heartbeat IPC: 1.86 cumulative IPC: 1.702 (Simulation time: 00 hr 20 min 18 sec)
Heartbeat CPU 0 instructions: 320000051 cycles: 186583651 heartbeat IPC: 2.268 cumulative IPC: 1.715 (Simulation time: 00 hr 20 min 57 sec)
Heartbeat CPU 0 instructions: 330000055 cycles: 192045811 heartbeat IPC: 1.831 cumulative IPC: 1.718 (Simulation time: 00 hr 21 min 41 sec)
Heartbeat CPU 0 instructions: 340000056 cycles: 196843463 heartbeat IPC: 2.084 cumulative IPC: 1.727 (Simulation time: 00 hr 22 min 21 sec)
Heartbeat CPU 0 instructions: 350000056 cycles: 201806862 heartbeat IPC: 2.015 cumulative IPC: 1.734 (Simulation time: 00 hr 22 min 55 sec)
Heartbeat CPU 0 instructions: 360000058 cycles: 208109623 heartbeat IPC: 1.587 cumulative IPC: 1.73 (Simulation time: 00 hr 23 min 42 sec)
[ERROR_CYCLE] Error added at CPU cycle 211597203, interval 3, pending count: 1
[DRAM_CYCLE_ERROR] Cycle-based error applied! address=0x79b14e900 additional_latency=173500 cycles
Heartbeat CPU 0 instructions: 370000059 cycles: 214571183 heartbeat IPC: 1.548 cumulative IPC: 1.724 (Simulation time: 00 hr 24 min 35 sec)
Heartbeat CPU 0 instructions: 380000059 cycles: 221052534 heartbeat IPC: 1.543 cumulative IPC: 1.719 (Simulation time: 00 hr 25 min 32 sec)
Heartbeat CPU 0 instructions: 390000059 cycles: 227548906 heartbeat IPC: 1.539 cumulative IPC: 1.714 (Simulation time: 00 hr 26 min 22 sec)
Heartbeat CPU 0 instructions: 400000059 cycles: 234011970 heartbeat IPC: 1.547 cumulative IPC: 1.709 (Simulation time: 00 hr 27 min 03 sec)
Heartbeat CPU 0 instructions: 410000063 cycles: 240449403 heartbeat IPC: 1.553 cumulative IPC: 1.705 (Simulation time: 00 hr 27 min 50 sec)
Heartbeat CPU 0 instructions: 420000063 cycles: 246810204 heartbeat IPC: 1.572 cumulative IPC: 1.702 (Simulation time: 00 hr 28 min 27 sec)
Heartbeat CPU 0 instructions: 430000065 cycles: 252999764 heartbeat IPC: 1.616 cumulative IPC: 1.7 (Simulation time: 00 hr 29 min 11 sec)
Heartbeat CPU 0 instructions: 440000065 cycles: 258644792 heartbeat IPC: 1.771 cumulative IPC: 1.701 (Simulation time: 00 hr 30 min 01 sec)
Heartbeat CPU 0 instructions: 450000066 cycles: 265876475 heartbeat IPC: 1.383 cumulative IPC: 1.693 (Simulation time: 00 hr 31 min 00 sec)
Heartbeat CPU 0 instructions: 460000069 cycles: 271445685 heartbeat IPC: 1.796 cumulative IPC: 1.695 (Simulation time: 00 hr 31 min 51 sec)
Heartbeat CPU 0 instructions: 470000072 cycles: 277915809 heartbeat IPC: 1.546 cumulative IPC: 1.691 (Simulation time: 00 hr 32 min 48 sec)
[ERROR_CYCLE] Error added at CPU cycle 282129604, interval 4, pending count: 1
[DRAM_CYCLE_ERROR] Cycle-based error applied! address=0x8bcc7e80 additional_latency=173500 cycles
Heartbeat CPU 0 instructions: 480000072 cycles: 283712681 heartbeat IPC: 1.725 cumulative IPC: 1.692 (Simulation time: 00 hr 33 min 41 sec)
Heartbeat CPU 0 instructions: 490000072 cycles: 288625353 heartbeat IPC: 2.036 cumulative IPC: 1.698 (Simulation time: 00 hr 34 min 25 sec)
Heartbeat CPU 0 instructions: 500000075 cycles: 293568846 heartbeat IPC: 2.023 cumulative IPC: 1.703 (Simulation time: 00 hr 35 min 08 sec)
Heartbeat CPU 0 instructions: 510000076 cycles: 298231677 heartbeat IPC: 2.145 cumulative IPC: 1.71 (Simulation time: 00 hr 35 min 49 sec)
Heartbeat CPU 0 instructions: 520000078 cycles: 303844487 heartbeat IPC: 1.782 cumulative IPC: 1.711 (Simulation time: 00 hr 36 min 21 sec)
Heartbeat CPU 0 instructions: 530000079 cycles: 308377136 heartbeat IPC: 2.206 cumulative IPC: 1.719 (Simulation time: 00 hr 36 min 56 sec)
Heartbeat CPU 0 instructions: 540000079 cycles: 314399274 heartbeat IPC: 1.661 cumulative IPC: 1.718 (Simulation time: 00 hr 37 min 47 sec)
Heartbeat CPU 0 instructions: 550000079 cycles: 320729727 heartbeat IPC: 1.58 cumulative IPC: 1.715 (Simulation time: 00 hr 38 min 43 sec)
Heartbeat CPU 0 instructions: 560000081 cycles: 327076418 heartbeat IPC: 1.576 cumulative IPC: 1.712 (Simulation time: 00 hr 39 min 39 sec)
Heartbeat CPU 0 instructions: 570000084 cycles: 333455085 heartbeat IPC: 1.568 cumulative IPC: 1.709 (Simulation time: 00 hr 40 min 36 sec)
Heartbeat CPU 0 instructions: 580000084 cycles: 339802995 heartbeat IPC: 1.575 cumulative IPC: 1.707 (Simulation time: 00 hr 41 min 34 sec)
Heartbeat CPU 0 instructions: 590000084 cycles: 346130179 heartbeat IPC: 1.58 cumulative IPC: 1.705 (Simulation time: 00 hr 42 min 31 sec)
Heartbeat CPU 0 instructions: 600000087 cycles: 352400163 heartbeat IPC: 1.595 cumulative IPC: 1.703 (Simulation time: 00 hr 43 min 27 sec)
[ERROR_CYCLE] Error added at CPU cycle 352662006, interval 5, pending count: 1
[DRAM_CYCLE_ERROR] Cycle-based error applied! address=0xa44f4ec0 additional_latency=173500 cycles
Heartbeat CPU 0 instructions: 610000090 cycles: 358732600 heartbeat IPC: 1.579 cumulative IPC: 1.7 (Simulation time: 00 hr 44 min 24 sec)
Heartbeat CPU 0 instructions: 620000094 cycles: 363682128 heartbeat IPC: 2.02 cumulative IPC: 1.705 (Simulation time: 00 hr 45 min 10 sec)
Heartbeat CPU 0 instructions: 630000096 cycles: 371864790 heartbeat IPC: 1.222 cumulative IPC: 1.694 (Simulation time: 00 hr 46 min 15 sec)
Heartbeat CPU 0 instructions: 640000096 cycles: 377889949 heartbeat IPC: 1.66 cumulative IPC: 1.694 (Simulation time: 00 hr 47 min 07 sec)
Heartbeat CPU 0 instructions: 650000096 cycles: 384148099 heartbeat IPC: 1.598 cumulative IPC: 1.692 (Simulation time: 00 hr 48 min 03 sec)
Heartbeat CPU 0 instructions: 660000097 cycles: 390351367 heartbeat IPC: 1.612 cumulative IPC: 1.691 (Simulation time: 00 hr 49 min 01 sec)
Heartbeat CPU 0 instructions: 670000097 cycles: 395069837 heartbeat IPC: 2.119 cumulative IPC: 1.696 (Simulation time: 00 hr 49 min 42 sec)
Heartbeat CPU 0 instructions: 680000097 cycles: 400766903 heartbeat IPC: 1.755 cumulative IPC: 1.697 (Simulation time: 00 hr 50 min 19 sec)
Heartbeat CPU 0 instructions: 690000101 cycles: 404371297 heartbeat IPC: 2.774 cumulative IPC: 1.706 (Simulation time: 00 hr 50 min 49 sec)
Heartbeat CPU 0 instructions: 700000105 cycles: 410629505 heartbeat IPC: 1.598 cumulative IPC: 1.705 (Simulation time: 00 hr 51 min 39 sec)
Heartbeat CPU 0 instructions: 710000106 cycles: 415560258 heartbeat IPC: 2.028 cumulative IPC: 1.709 (Simulation time: 00 hr 52 min 21 sec)
Heartbeat CPU 0 instructions: 720000107 cycles: 421068098 heartbeat IPC: 1.816 cumulative IPC: 1.71 (Simulation time: 00 hr 53 min 09 sec)
[ERROR_CYCLE] Error added at CPU cycle 423194407, interval 6, pending count: 1
[DRAM_CYCLE_ERROR] Cycle-based error applied! address=0x616fbd80 additional_latency=173500 cycles
Heartbeat CPU 0 instructions: 730000109 cycles: 427716100 heartbeat IPC: 1.504 cumulative IPC: 1.707 (Simulation time: 00 hr 54 min 08 sec)
Heartbeat CPU 0 instructions: 740000109 cycles: 434039035 heartbeat IPC: 1.582 cumulative IPC: 1.705 (Simulation time: 00 hr 55 min 05 sec)
Heartbeat CPU 0 instructions: 750000112 cycles: 440419243 heartbeat IPC: 1.567 cumulative IPC: 1.703 (Simulation time: 00 hr 56 min 02 sec)
Heartbeat CPU 0 instructions: 760000113 cycles: 446764231 heartbeat IPC: 1.576 cumulative IPC: 1.701 (Simulation time: 00 hr 57 min 00 sec)
Heartbeat CPU 0 instructions: 770000113 cycles: 453169515 heartbeat IPC: 1.561 cumulative IPC: 1.699 (Simulation time: 00 hr 57 min 57 sec)
Heartbeat CPU 0 instructions: 780000113 cycles: 459608990 heartbeat IPC: 1.553 cumulative IPC: 1.697 (Simulation time: 00 hr 58 min 55 sec)
Heartbeat CPU 0 instructions: 790000117 cycles: 466051533 heartbeat IPC: 1.552 cumulative IPC: 1.695 (Simulation time: 00 hr 59 min 53 sec)
Heartbeat CPU 0 instructions: 800000117 cycles: 471594605 heartbeat IPC: 1.804 cumulative IPC: 1.696 (Simulation time: 01 hr 00 min 44 sec)
Heartbeat CPU 0 instructions: 810000118 cycles: 479082691 heartbeat IPC: 1.335 cumulative IPC: 1.691 (Simulation time: 01 hr 01 min 45 sec)
Heartbeat CPU 0 instructions: 820000118 cycles: 485175335 heartbeat IPC: 1.641 cumulative IPC: 1.69 (Simulation time: 01 hr 02 min 34 sec)
Heartbeat CPU 0 instructions: 830000119 cycles: 491105592 heartbeat IPC: 1.686 cumulative IPC: 1.69 (Simulation time: 01 hr 03 min 29 sec)
[ERROR_CYCLE] Error added at CPU cycle 493726807, interval 7, pending count: 1
[DRAM_CYCLE_ERROR] Cycle-based error applied! address=0xcff46580 additional_latency=173500 cycles
Heartbeat CPU 0 instructions: 840000120 cycles: 496895991 heartbeat IPC: 1.727 cumulative IPC: 1.69 (Simulation time: 01 hr 04 min 23 sec)
Heartbeat CPU 0 instructions: 850000121 cycles: 502355188 heartbeat IPC: 1.832 cumulative IPC: 1.692 (Simulation time: 01 hr 05 min 08 sec)
Heartbeat CPU 0 instructions: 860000122 cycles: 507871996 heartbeat IPC: 1.813 cumulative IPC: 1.693 (Simulation time: 01 hr 05 min 45 sec)
Heartbeat CPU 0 instructions: 870000123 cycles: 512170156 heartbeat IPC: 2.327 cumulative IPC: 1.699 (Simulation time: 01 hr 06 min 23 sec)
Heartbeat CPU 0 instructions: 880000126 cycles: 518240968 heartbeat IPC: 1.647 cumulative IPC: 1.698 (Simulation time: 01 hr 07 min 13 sec)
Heartbeat CPU 0 instructions: 890000126 cycles: 523352351 heartbeat IPC: 1.956 cumulative IPC: 1.701 (Simulation time: 01 hr 07 min 54 sec)
Heartbeat CPU 0 instructions: 900000130 cycles: 528307355 heartbeat IPC: 2.018 cumulative IPC: 1.704 (Simulation time: 01 hr 08 min 37 sec)
Heartbeat CPU 0 instructions: 910000130 cycles: 534559842 heartbeat IPC: 1.599 cumulative IPC: 1.702 (Simulation time: 01 hr 09 min 31 sec)
Heartbeat CPU 0 instructions: 920000132 cycles: 540874567 heartbeat IPC: 1.584 cumulative IPC: 1.701 (Simulation time: 01 hr 10 min 29 sec)
Heartbeat CPU 0 instructions: 930000133 cycles: 547233086 heartbeat IPC: 1.573 cumulative IPC: 1.699 (Simulation time: 01 hr 11 min 26 sec)
Heartbeat CPU 0 instructions: 940000133 cycles: 553536640 heartbeat IPC: 1.586 cumulative IPC: 1.698 (Simulation time: 01 hr 12 min 22 sec)
Heartbeat CPU 0 instructions: 950000133 cycles: 559810227 heartbeat IPC: 1.594 cumulative IPC: 1.697 (Simulation time: 01 hr 13 min 18 sec)
[ERROR_CYCLE] Error added at CPU cycle 564259208, interval 8, pending count: 1
[DRAM_CYCLE_ERROR] Cycle-based error applied! address=0x6d48402f8 additional_latency=173500 cycles
Heartbeat CPU 0 instructions: 960000134 cycles: 566086723 heartbeat IPC: 1.593 cumulative IPC: 1.696 (Simulation time: 01 hr 14 min 14 sec)
Heartbeat CPU 0 instructions: 970000137 cycles: 572492019 heartbeat IPC: 1.561 cumulative IPC: 1.694 (Simulation time: 01 hr 15 min 10 sec)
Heartbeat CPU 0 instructions: 980000138 cycles: 578922678 heartbeat IPC: 1.555 cumulative IPC: 1.693 (Simulation time: 01 hr 16 min 06 sec)
Heartbeat CPU 0 instructions: 990000139 cycles: 584347371 heartbeat IPC: 1.843 cumulative IPC: 1.694 (Simulation time: 01 hr 16 min 54 sec)
Heartbeat CPU 0 instructions: 1000000141 cycles: 591880762 heartbeat IPC: 1.327 cumulative IPC: 1.69 (Simulation time: 01 hr 17 min 52 sec)
Heartbeat CPU 0 instructions: 1010000142 cycles: 597553075 heartbeat IPC: 1.763 cumulative IPC: 1.69 (Simulation time: 01 hr 18 min 44 sec)
Heartbeat CPU 0 instructions: 1020000143 cycles: 604044662 heartbeat IPC: 1.54 cumulative IPC: 1.689 (Simulation time: 01 hr 19 min 35 sec)
Heartbeat CPU 0 instructions: 1030000147 cycles: 609917930 heartbeat IPC: 1.703 cumulative IPC: 1.689 (Simulation time: 01 hr 20 min 23 sec)
Heartbeat CPU 0 instructions: 1040000147 cycles: 614981613 heartbeat IPC: 1.975 cumulative IPC: 1.691 (Simulation time: 01 hr 21 min 06 sec)
Heartbeat CPU 0 instructions: 1050000147 cycles: 620236605 heartbeat IPC: 1.903 cumulative IPC: 1.693 (Simulation time: 01 hr 21 min 44 sec)
Heartbeat CPU 0 instructions: 1060000151 cycles: 624824782 heartbeat IPC: 2.18 cumulative IPC: 1.696 (Simulation time: 01 hr 22 min 18 sec)
Heartbeat CPU 0 instructions: 1070000151 cycles: 631216695 heartbeat IPC: 1.564 cumulative IPC: 1.695 (Simulation time: 01 hr 23 min 00 sec)
[ERROR_CYCLE] Error added at CPU cycle 634791609, interval 9, pending count: 1
[DRAM_CYCLE_ERROR] Cycle-based error applied! address=0x430f62e00 additional_latency=173500 cycles
Heartbeat CPU 0 instructions: 1080000154 cycles: 635691436 heartbeat IPC: 2.235 cumulative IPC: 1.699 (Simulation time: 01 hr 23 min 39 sec)
Heartbeat CPU 0 instructions: 1090000154 cycles: 641545261 heartbeat IPC: 1.708 cumulative IPC: 1.699 (Simulation time: 01 hr 24 min 29 sec)
Heartbeat CPU 0 instructions: 1100000154 cycles: 647996763 heartbeat IPC: 1.55 cumulative IPC: 1.698 (Simulation time: 01 hr 25 min 26 sec)
Heartbeat CPU 0 instructions: 1110000154 cycles: 654312202 heartbeat IPC: 1.583 cumulative IPC: 1.696 (Simulation time: 01 hr 26 min 15 sec)
Heartbeat CPU 0 instructions: 1120000154 cycles: 660652703 heartbeat IPC: 1.577 cumulative IPC: 1.695 (Simulation time: 01 hr 26 min 54 sec)
Heartbeat CPU 0 instructions: 1130000154 cycles: 667022962 heartbeat IPC: 1.57 cumulative IPC: 1.694 (Simulation time: 01 hr 27 min 52 sec)
Heartbeat CPU 0 instructions: 1140000156 cycles: 673352466 heartbeat IPC: 1.58 cumulative IPC: 1.693 (Simulation time: 01 hr 28 min 51 sec)
Heartbeat CPU 0 instructions: 1150000158 cycles: 679684582 heartbeat IPC: 1.579 cumulative IPC: 1.692 (Simulation time: 01 hr 29 min 43 sec)
Heartbeat CPU 0 instructions: 1160000158 cycles: 686173695 heartbeat IPC: 1.541 cumulative IPC: 1.691 (Simulation time: 01 hr 30 min 29 sec)
Heartbeat CPU 0 instructions: 1170000162 cycles: 691361363 heartbeat IPC: 1.928 cumulative IPC: 1.692 (Simulation time: 01 hr 31 min 15 sec)
Heartbeat CPU 0 instructions: 1180000163 cycles: 699213200 heartbeat IPC: 1.274 cumulative IPC: 1.688 (Simulation time: 01 hr 32 min 17 sec)
[ERROR_CYCLE] Error added at CPU cycle 705324011, interval 10, pending count: 1
[DRAM_CYCLE_ERROR] Cycle-based error applied! address=0x18f7405a8 additional_latency=173500 cycles
Heartbeat CPU 0 instructions: 1190000166 cycles: 705382998 heartbeat IPC: 1.621 cumulative IPC: 1.687 (Simulation time: 01 hr 33 min 10 sec)
Heartbeat CPU 0 instructions: 1200000166 cycles: 711592037 heartbeat IPC: 1.611 cumulative IPC: 1.686 (Simulation time: 01 hr 34 min 06 sec)
Heartbeat CPU 0 instructions: 1210000170 cycles: 717038125 heartbeat IPC: 1.836 cumulative IPC: 1.687 (Simulation time: 01 hr 34 min 41 sec)
Heartbeat CPU 0 instructions: 1220000171 cycles: 722400942 heartbeat IPC: 1.865 cumulative IPC: 1.689 (Simulation time: 01 hr 35 min 19 sec)
Heartbeat CPU 0 instructions: 1230000175 cycles: 728411843 heartbeat IPC: 1.664 cumulative IPC: 1.689 (Simulation time: 01 hr 36 min 06 sec)
Heartbeat CPU 0 instructions: 1240000175 cycles: 731702791 heartbeat IPC: 3.039 cumulative IPC: 1.695 (Simulation time: 01 hr 36 min 26 sec)
Heartbeat CPU 0 instructions: 1250000175 cycles: 738391187 heartbeat IPC: 1.495 cumulative IPC: 1.693 (Simulation time: 01 hr 37 min 01 sec)
Heartbeat CPU 0 instructions: 1260000176 cycles: 743106042 heartbeat IPC: 2.121 cumulative IPC: 1.696 (Simulation time: 01 hr 37 min 26 sec)
Heartbeat CPU 0 instructions: 1270000176 cycles: 748480054 heartbeat IPC: 1.861 cumulative IPC: 1.697 (Simulation time: 01 hr 37 min 58 sec)
Heartbeat CPU 0 instructions: 1280000180 cycles: 754946750 heartbeat IPC: 1.546 cumulative IPC: 1.695 (Simulation time: 01 hr 38 min 44 sec)
Heartbeat CPU 0 instructions: 1290000184 cycles: 761243412 heartbeat IPC: 1.588 cumulative IPC: 1.695 (Simulation time: 01 hr 39 min 28 sec)
Heartbeat CPU 0 instructions: 1300000185 cycles: 767581477 heartbeat IPC: 1.578 cumulative IPC: 1.694 (Simulation time: 01 hr 40 min 08 sec)
Heartbeat CPU 0 instructions: 1310000187 cycles: 773893320 heartbeat IPC: 1.584 cumulative IPC: 1.693 (Simulation time: 01 hr 40 min 59 sec)
[ERROR_CYCLE] Error added at CPU cycle 775856412, interval 11, pending count: 1
[DRAM_CYCLE_ERROR] Cycle-based error applied! address=0x41f8c6fc0 additional_latency=173500 cycles
Heartbeat CPU 0 instructions: 1320000190 cycles: 780163469 heartbeat IPC: 1.595 cumulative IPC: 1.692 (Simulation time: 01 hr 41 min 49 sec)
Heartbeat CPU 0 instructions: 1330000190 cycles: 786431905 heartbeat IPC: 1.595 cumulative IPC: 1.691 (Simulation time: 01 hr 42 min 42 sec)
Heartbeat CPU 0 instructions: 1340000191 cycles: 792933834 heartbeat IPC: 1.538 cumulative IPC: 1.69 (Simulation time: 01 hr 43 min 39 sec)
Heartbeat CPU 0 instructions: 1350000194 cycles: 799020116 heartbeat IPC: 1.643 cumulative IPC: 1.69 (Simulation time: 01 hr 44 min 33 sec)
Heartbeat CPU 0 instructions: 1360000198 cycles: 806072520 heartbeat IPC: 1.418 cumulative IPC: 1.687 (Simulation time: 01 hr 45 min 31 sec)
Heartbeat CPU 0 instructions: 1370000199 cycles: 812131066 heartbeat IPC: 1.651 cumulative IPC: 1.687 (Simulation time: 01 hr 46 min 23 sec)
Heartbeat CPU 0 instructions: 1380000200 cycles: 818194310 heartbeat IPC: 1.649 cumulative IPC: 1.687 (Simulation time: 01 hr 47 min 17 sec)
Heartbeat CPU 0 instructions: 1390000200 cycles: 824183180 heartbeat IPC: 1.67 cumulative IPC: 1.687 (Simulation time: 01 hr 48 min 10 sec)
Heartbeat CPU 0 instructions: 1400000203 cycles: 829734881 heartbeat IPC: 1.801 cumulative IPC: 1.687 (Simulation time: 01 hr 48 min 59 sec)
Heartbeat CPU 0 instructions: 1410000203 cycles: 835358312 heartbeat IPC: 1.778 cumulative IPC: 1.688 (Simulation time: 01 hr 49 min 47 sec)
Heartbeat CPU 0 instructions: 1420000204 cycles: 839665706 heartbeat IPC: 2.322 cumulative IPC: 1.691 (Simulation time: 01 hr 50 min 25 sec)
Heartbeat CPU 0 instructions: 1430000204 cycles: 845751029 heartbeat IPC: 1.643 cumulative IPC: 1.691 (Simulation time: 01 hr 51 min 13 sec)
[ERROR_CYCLE] Error added at CPU cycle 846388812, interval 12, pending count: 1
[DRAM_CYCLE_ERROR] Cycle-based error applied! address=0x7ef1072c0 additional_latency=173500 cycles
Heartbeat CPU 0 instructions: 1440000207 cycles: 851021404 heartbeat IPC: 1.897 cumulative IPC: 1.692 (Simulation time: 01 hr 51 min 50 sec)
Heartbeat CPU 0 instructions: 1450000207 cycles: 855991523 heartbeat IPC: 2.012 cumulative IPC: 1.694 (Simulation time: 01 hr 52 min 20 sec)
Heartbeat CPU 0 instructions: 1460000210 cycles: 862340211 heartbeat IPC: 1.575 cumulative IPC: 1.693 (Simulation time: 01 hr 52 min 56 sec)
Heartbeat CPU 0 instructions: 1470000211 cycles: 868747105 heartbeat IPC: 1.561 cumulative IPC: 1.692 (Simulation time: 01 hr 53 min 48 sec)
Heartbeat CPU 0 instructions: 1480000215 cycles: 875183241 heartbeat IPC: 1.554 cumulative IPC: 1.691 (Simulation time: 01 hr 54 min 46 sec)
Heartbeat CPU 0 instructions: 1490000219 cycles: 881583983 heartbeat IPC: 1.562 cumulative IPC: 1.69 (Simulation time: 01 hr 55 min 43 sec)
Heartbeat CPU 0 instructions: 1500000219 cycles: 887955811 heartbeat IPC: 1.569 cumulative IPC: 1.689 (Simulation time: 01 hr 56 min 41 sec)
Heartbeat CPU 0 instructions: 1510000219 cycles: 894374512 heartbeat IPC: 1.558 cumulative IPC: 1.688 (Simulation time: 01 hr 57 min 38 sec)
Heartbeat CPU 0 instructions: 1520000222 cycles: 900894188 heartbeat IPC: 1.534 cumulative IPC: 1.687 (Simulation time: 01 hr 58 min 36 sec)
Heartbeat CPU 0 instructions: 1530000222 cycles: 907390718 heartbeat IPC: 1.539 cumulative IPC: 1.686 (Simulation time: 01 hr 59 min 33 sec)
Heartbeat CPU 0 instructions: 1540000224 cycles: 912856162 heartbeat IPC: 1.83 cumulative IPC: 1.687 (Simulation time: 02 hr 00 min 22 sec)
[ERROR_CYCLE] Error added at CPU cycle 916921213, interval 13, pending count: 1
[DRAM_CYCLE_ERROR] Cycle-based error applied! address=0x4d2a55000 additional_latency=173500 cycles
Heartbeat CPU 0 instructions: 1550000225 cycles: 920123858 heartbeat IPC: 1.376 cumulative IPC: 1.685 (Simulation time: 02 hr 01 min 21 sec)
Heartbeat CPU 0 instructions: 1560000225 cycles: 926093016 heartbeat IPC: 1.675 cumulative IPC: 1.684 (Simulation time: 02 hr 02 min 15 sec)
Heartbeat CPU 0 instructions: 1570000229 cycles: 932512783 heartbeat IPC: 1.558 cumulative IPC: 1.684 (Simulation time: 02 hr 03 min 10 sec)
Heartbeat CPU 0 instructions: 1580000230 cycles: 938550626 heartbeat IPC: 1.656 cumulative IPC: 1.683 (Simulation time: 02 hr 04 min 06 sec)
Heartbeat CPU 0 instructions: 1590000234 cycles: 943379677 heartbeat IPC: 2.071 cumulative IPC: 1.685 (Simulation time: 02 hr 04 min 43 sec)
Heartbeat CPU 0 instructions: 1600000234 cycles: 948833894 heartbeat IPC: 1.833 cumulative IPC: 1.686 (Simulation time: 02 hr 05 min 29 sec)
Heartbeat CPU 0 instructions: 1610000238 cycles: 952888467 heartbeat IPC: 2.466 cumulative IPC: 1.69 (Simulation time: 02 hr 06 min 05 sec)
Heartbeat CPU 0 instructions: 1620000240 cycles: 959257467 heartbeat IPC: 1.57 cumulative IPC: 1.689 (Simulation time: 02 hr 06 min 56 sec)
Heartbeat CPU 0 instructions: 1630000242 cycles: 964058054 heartbeat IPC: 2.083 cumulative IPC: 1.691 (Simulation time: 02 hr 07 min 37 sec)
Heartbeat CPU 0 instructions: 1640000244 cycles: 969631662 heartbeat IPC: 1.794 cumulative IPC: 1.691 (Simulation time: 02 hr 08 min 26 sec)
Heartbeat CPU 0 instructions: 1650000245 cycles: 976332808 heartbeat IPC: 1.492 cumulative IPC: 1.69 (Simulation time: 02 hr 09 min 26 sec)
Heartbeat CPU 0 instructions: 1660000248 cycles: 982725693 heartbeat IPC: 1.564 cumulative IPC: 1.689 (Simulation time: 02 hr 10 min 24 sec)
[ERROR_CYCLE] Error added at CPU cycle 987453615, interval 14, pending count: 1
[DRAM_CYCLE_ERROR] Cycle-based error applied! address=0x776afb700 additional_latency=173500 cycles
Heartbeat CPU 0 instructions: 1670000251 cycles: 989102354 heartbeat IPC: 1.568 cumulative IPC: 1.688 (Simulation time: 02 hr 11 min 21 sec)
Heartbeat CPU 0 instructions: 1680000254 cycles: 995502301 heartbeat IPC: 1.563 cumulative IPC: 1.688 (Simulation time: 02 hr 12 min 19 sec)
Heartbeat CPU 0 instructions: 1690000256 cycles: 1001918414 heartbeat IPC: 1.559 cumulative IPC: 1.687 (Simulation time: 02 hr 13 min 18 sec)
Heartbeat CPU 0 instructions: 1700000257 cycles: 1008319667 heartbeat IPC: 1.562 cumulative IPC: 1.686 (Simulation time: 02 hr 14 min 16 sec)
Heartbeat CPU 0 instructions: 1710000257 cycles: 1014880084 heartbeat IPC: 1.524 cumulative IPC: 1.685 (Simulation time: 02 hr 15 min 14 sec)
Heartbeat CPU 0 instructions: 1720000260 cycles: 1020269318 heartbeat IPC: 1.856 cumulative IPC: 1.686 (Simulation time: 02 hr 16 min 04 sec)
Heartbeat CPU 0 instructions: 1730000262 cycles: 1028018662 heartbeat IPC: 1.29 cumulative IPC: 1.683 (Simulation time: 02 hr 17 min 07 sec)
Heartbeat CPU 0 instructions: 1740000262 cycles: 1034102762 heartbeat IPC: 1.644 cumulative IPC: 1.683 (Simulation time: 02 hr 17 min 59 sec)
Heartbeat CPU 0 instructions: 1750000265 cycles: 1040565790 heartbeat IPC: 1.547 cumulative IPC: 1.682 (Simulation time: 02 hr 18 min 56 sec)
Heartbeat CPU 0 instructions: 1760000267 cycles: 1046277219 heartbeat IPC: 1.751 cumulative IPC: 1.682 (Simulation time: 02 hr 19 min 50 sec)
Heartbeat CPU 0 instructions: 1770000271 cycles: 1051477040 heartbeat IPC: 1.923 cumulative IPC: 1.683 (Simulation time: 02 hr 20 min 35 sec)
Heartbeat CPU 0 instructions: 1780000274 cycles: 1057444520 heartbeat IPC: 1.676 cumulative IPC: 1.683 (Simulation time: 02 hr 21 min 26 sec)
[ERROR_CYCLE] Error added at CPU cycle 1057986016, interval 15, pending count: 1
[DRAM_CYCLE_ERROR] Cycle-based error applied! address=0xbc455980 additional_latency=173500 cycles
Heartbeat CPU 0 instructions: 1790000276 cycles: 1060670577 heartbeat IPC: 3.1 cumulative IPC: 1.688 (Simulation time: 02 hr 21 min 56 sec)
Heartbeat CPU 0 instructions: 1800000277 cycles: 1067554316 heartbeat IPC: 1.453 cumulative IPC: 1.686 (Simulation time: 02 hr 22 min 49 sec)
Heartbeat CPU 0 instructions: 1810000281 cycles: 1072265237 heartbeat IPC: 2.123 cumulative IPC: 1.688 (Simulation time: 02 hr 23 min 29 sec)
Heartbeat CPU 0 instructions: 1820000281 cycles: 1077860142 heartbeat IPC: 1.787 cumulative IPC: 1.689 (Simulation time: 02 hr 24 min 18 sec)
Heartbeat CPU 0 instructions: 1830000284 cycles: 1084577231 heartbeat IPC: 1.489 cumulative IPC: 1.687 (Simulation time: 02 hr 25 min 17 sec)
Heartbeat CPU 0 instructions: 1840000284 cycles: 1091055596 heartbeat IPC: 1.544 cumulative IPC: 1.686 (Simulation time: 02 hr 26 min 15 sec)
Heartbeat CPU 0 instructions: 1850000284 cycles: 1097514544 heartbeat IPC: 1.548 cumulative IPC: 1.686 (Simulation time: 02 hr 27 min 12 sec)
Heartbeat CPU 0 instructions: 1860000284 cycles: 1103978138 heartbeat IPC: 1.547 cumulative IPC: 1.685 (Simulation time: 02 hr 28 min 10 sec)
Heartbeat CPU 0 instructions: 1870000285 cycles: 1110491061 heartbeat IPC: 1.535 cumulative IPC: 1.684 (Simulation time: 02 hr 29 min 08 sec)
Heartbeat CPU 0 instructions: 1880000285 cycles: 1117017585 heartbeat IPC: 1.532 cumulative IPC: 1.683 (Simulation time: 02 hr 30 min 07 sec)
Heartbeat CPU 0 instructions: 1890000287 cycles: 1123642697 heartbeat IPC: 1.509 cumulative IPC: 1.682 (Simulation time: 02 hr 31 min 06 sec)
[ERROR_CYCLE] Error added at CPU cycle 1128518416, interval 16, pending count: 1
[DRAM_CYCLE_ERROR] Cycle-based error applied! address=0xc4619180 additional_latency=173500 cycles
Heartbeat CPU 0 instructions: 1900000288 cycles: 1129557031 heartbeat IPC: 1.691 cumulative IPC: 1.682 (Simulation time: 02 hr 31 min 59 sec)
Heartbeat CPU 0 instructions: 1910000292 cycles: 1136985580 heartbeat IPC: 1.346 cumulative IPC: 1.68 (Simulation time: 02 hr 32 min 59 sec)
Heartbeat CPU 0 instructions: 1920000295 cycles: 1142783156 heartbeat IPC: 1.725 cumulative IPC: 1.68 (Simulation time: 02 hr 33 min 49 sec)
Heartbeat CPU 0 instructions: 1930000299 cycles: 1148157393 heartbeat IPC: 1.861 cumulative IPC: 1.681 (Simulation time: 02 hr 34 min 39 sec)
Heartbeat CPU 0 instructions: 1940000299 cycles: 1154925877 heartbeat IPC: 1.477 cumulative IPC: 1.68 (Simulation time: 02 hr 35 min 38 sec)
Heartbeat CPU 0 instructions: 1950000299 cycles: 1160837266 heartbeat IPC: 1.692 cumulative IPC: 1.68 (Simulation time: 02 hr 36 min 30 sec)
Heartbeat CPU 0 instructions: 1960000301 cycles: 1165926236 heartbeat IPC: 1.965 cumulative IPC: 1.681 (Simulation time: 02 hr 37 min 12 sec)
Heartbeat CPU 0 instructions: 1970000302 cycles: 1170845202 heartbeat IPC: 2.033 cumulative IPC: 1.683 (Simulation time: 02 hr 37 min 40 sec)
Heartbeat CPU 0 instructions: 1980000303 cycles: 1175721303 heartbeat IPC: 2.051 cumulative IPC: 1.684 (Simulation time: 02 hr 38 min 05 sec)
Heartbeat CPU 0 instructions: 1990000303 cycles: 1181789751 heartbeat IPC: 1.648 cumulative IPC: 1.684 (Simulation time: 02 hr 38 min 37 sec)

=== ERROR PAGE STATISTICS ===
Mode: CYCLE
Error Cycle Interval: 70532401 CPU cycles
Total Error Accesses: 16
==============================
Simulation finished CPU 0 instructions: 1999999926 cycles: 1186441477 cumulative IPC: 1.686 (Simulation time: 02 hr 39 min 04 sec)
Simulation complete CPU 0 instructions: 1999999926 cycles: 1186441477 cumulative IPC: 1.686 (Simulation time: 02 hr 39 min 04 sec)

ChampSim completed all CPUs

=== Simulation ===
CPU 0 runs test_traces/628.pop2_s-17B.champsimtrace.xz

Region of Interest Statistics

CPU 0 cumulative IPC: 1.686 instructions: 1999999926 cycles: 1186441477
CPU 0 Branch Prediction Accuracy: 97.16% MPKI: 4.393 Average ROB Occupancy at Mispredict: 78.85
Branch type MPKI
BRANCH_DIRECT_JUMP: 0.02883
BRANCH_INDIRECT: 0.0006925
BRANCH_CONDITIONAL: 4.321
BRANCH_DIRECT_CALL: 0.0002875
BRANCH_INDIRECT_CALL: 0
BRANCH_RETURN: 0.04196

cpu0->cpu0_STLB TOTAL        ACCESS:     970162 HIT:     874960 MISS:      95202 MSHR_MERGE:          0
cpu0->cpu0_STLB LOAD         ACCESS:     970162 HIT:     874960 MISS:      95202 MSHR_MERGE:          0
cpu0->cpu0_STLB RFO          ACCESS:          0 HIT:          0 MISS:          0 MSHR_MERGE:          0
cpu0->cpu0_STLB PREFETCH     ACCESS:          0 HIT:          0 MISS:          0 MSHR_MERGE:          0
cpu0->cpu0_STLB WRITE        ACCESS:          0 HIT:          0 MISS:          0 MSHR_MERGE:          0
cpu0->cpu0_STLB TRANSLATION  ACCESS:          0 HIT:          0 MISS:          0 MSHR_MERGE:          0
cpu0->cpu0_STLB PREFETCH REQUESTED:          0 ISSUED:          0 USEFUL:          0 USELESS:          0
cpu0->cpu0_STLB AVERAGE MISS LATENCY: 431.3 cycles
cpu0->cpu0_L2C TOTAL        ACCESS:   43525237 HIT:   30670469 MISS:   12854768 MSHR_MERGE:          0
cpu0->cpu0_L2C LOAD         ACCESS:   20311145 HIT:   11677771 MISS:    8633374 MSHR_MERGE:          0
cpu0->cpu0_L2C RFO          ACCESS:    9924850 HIT:    5710973 MISS:    4213877 MSHR_MERGE:          0
cpu0->cpu0_L2C PREFETCH     ACCESS:          0 HIT:          0 MISS:          0 MSHR_MERGE:          0
cpu0->cpu0_L2C WRITE        ACCESS:   13289242 HIT:   13281725 MISS:       7517 MSHR_MERGE:          0
cpu0->cpu0_L2C TRANSLATION  ACCESS:          0 HIT:          0 MISS:          0 MSHR_MERGE:          0
cpu0->cpu0_L2C PREFETCH REQUESTED:          0 ISSUED:          0 USEFUL:          0 USELESS:          0
cpu0->cpu0_L2C AVERAGE MISS LATENCY: 71 cycles
cpu0->cpu0_L1I TOTAL        ACCESS:  104488105 HIT:  102554920 MISS:    1933185 MSHR_MERGE:     942636
cpu0->cpu0_L1I LOAD         ACCESS:  104488105 HIT:  102554920 MISS:    1933185 MSHR_MERGE:     942636
cpu0->cpu0_L1I RFO          ACCESS:          0 HIT:          0 MISS:          0 MSHR_MERGE:          0
cpu0->cpu0_L1I PREFETCH     ACCESS:          0 HIT:          0 MISS:          0 MSHR_MERGE:          0
cpu0->cpu0_L1I WRITE        ACCESS:          0 HIT:          0 MISS:          0 MSHR_MERGE:          0
cpu0->cpu0_L1I TRANSLATION  ACCESS:          0 HIT:          0 MISS:          0 MSHR_MERGE:          0
cpu0->cpu0_L1I PREFETCH REQUESTED:          0 ISSUED:          0 USEFUL:          0 USELESS:          0
cpu0->cpu0_L1I AVERAGE MISS LATENCY: 26.93 cycles
cpu0->cpu0_L1D TOTAL        ACCESS:  487371334 HIT:  414939037 MISS:   72432297 MSHR_MERGE:   43186551
cpu0->cpu0_L1D LOAD         ACCESS:  353221916 HIT:  315338413 MISS:   37883503 MSHR_MERGE:   18562727
cpu0->cpu0_L1D RFO          ACCESS:          0 HIT:          0 MISS:          0 MSHR_MERGE:          0
cpu0->cpu0_L1D PREFETCH     ACCESS:          0 HIT:          0 MISS:          0 MSHR_MERGE:          0
cpu0->cpu0_L1D WRITE        ACCESS:  134149418 HIT:   99600624 MISS:   34548794 MSHR_MERGE:   24623824
cpu0->cpu0_L1D TRANSLATION  ACCESS:          0 HIT:          0 MISS:          0 MSHR_MERGE:          0
cpu0->cpu0_L1D PREFETCH REQUESTED:          0 ISSUED:          0 USEFUL:          0 USELESS:          0
cpu0->cpu0_L1D AVERAGE MISS LATENCY: 39.08 cycles
cpu0->cpu0_ITLB TOTAL        ACCESS:   87496561 HIT:   87390539 MISS:     106022 MSHR_MERGE:      64609
cpu0->cpu0_ITLB LOAD         ACCESS:   87496561 HIT:   87390539 MISS:     106022 MSHR_MERGE:      64609
cpu0->cpu0_ITLB RFO          ACCESS:          0 HIT:          0 MISS:          0 MSHR_MERGE:          0
cpu0->cpu0_ITLB PREFETCH     ACCESS:          0 HIT:          0 MISS:          0 MSHR_MERGE:          0
cpu0->cpu0_ITLB WRITE        ACCESS:          0 HIT:          0 MISS:          0 MSHR_MERGE:          0
cpu0->cpu0_ITLB TRANSLATION  ACCESS:          0 HIT:          0 MISS:          0 MSHR_MERGE:          0
cpu0->cpu0_ITLB PREFETCH REQUESTED:          0 ISSUED:          0 USEFUL:          0 USELESS:          0
cpu0->cpu0_ITLB AVERAGE MISS LATENCY: 12.95 cycles
cpu0->cpu0_DTLB TOTAL        ACCESS:  453774952 HIT:  451769008 MISS:    2005944 MSHR_MERGE:    1077195
cpu0->cpu0_DTLB LOAD         ACCESS:  453774952 HIT:  451769008 MISS:    2005944 MSHR_MERGE:    1077195
cpu0->cpu0_DTLB RFO          ACCESS:          0 HIT:          0 MISS:          0 MSHR_MERGE:          0
cpu0->cpu0_DTLB PREFETCH     ACCESS:          0 HIT:          0 MISS:          0 MSHR_MERGE:          0
cpu0->cpu0_DTLB WRITE        ACCESS:          0 HIT:          0 MISS:          0 MSHR_MERGE:          0
cpu0->cpu0_DTLB TRANSLATION  ACCESS:          0 HIT:          0 MISS:          0 MSHR_MERGE:          0
cpu0->cpu0_DTLB PREFETCH REQUESTED:          0 ISSUED:          0 USEFUL:          0 USELESS:          0
cpu0->cpu0_DTLB AVERAGE MISS LATENCY: 48.99 cycles
cpu0->LLC TOTAL        ACCESS:   18839886 HIT:   11658409 MISS:    7181477 MSHR_MERGE:          0
cpu0->LLC LOAD         ACCESS:    8633374 HIT:    4193358 MISS:    4440016 MSHR_MERGE:          0
cpu0->LLC RFO          ACCESS:    4213871 HIT:    1531103 MISS:    2682768 MSHR_MERGE:          0
cpu0->LLC PREFETCH     ACCESS:          0 HIT:          0 MISS:          0 MSHR_MERGE:          0
cpu0->LLC WRITE        ACCESS:    5992641 HIT:    5933948 MISS:      58693 MSHR_MERGE:          0
cpu0->LLC TRANSLATION  ACCESS:          0 HIT:          0 MISS:          0 MSHR_MERGE:          0
cpu0->LLC PREFETCH REQUESTED:          0 ISSUED:          0 USEFUL:          0 USELESS:          0
cpu0->LLC AVERAGE MISS LATENCY: 99.29 cycles

DRAM Statistics

Channel 0 RQ ROW_BUFFER_HIT:       2271
  ROW_BUFFER_MISS:    3659998
  AVG DBUS CONGESTED CYCLE: 10.3
Channel 0 WQ ROW_BUFFER_HIT:     267404
  ROW_BUFFER_MISS:    1546653
  FULL:          0
Channel 0 REFRESHES ISSUED:      98863

Channel 1 RQ ROW_BUFFER_HIT:       2252
  ROW_BUFFER_MISS:    3660937
  AVG DBUS CONGESTED CYCLE: 10.3
Channel 1 WQ ROW_BUFFER_HIT:     268268
  ROW_BUFFER_MISS:    1546127
  FULL:         10
Channel 1 REFRESHES ISSUED:      98863
