[VMEM] WARNING: physical memory size is smaller than virtual memory size.

*** ChampSim Multicore Out-of-Order Simulator ***
Warmup Instructions: 0
Simulation Instructions: 9223372036854775807
Number of CPUs: 1
Page size: 4096

Off-chip DRAM Size: 64 GiB Channels: 2 Width: 32-bit Data Rate: 4807 MT/s
[ERROR_PAGE_MANAGER] Error latency: 0 
[ERROR_PAGE_MANAGER] Random seed: 54321 (fixed for preload reproducibility)
[ERROR_PAGE_MANAGER] Error pages off

=== ERROR PAGE STATISTICS ===
Mode: OFF
Total Error Accesses: 0
==============================
Warmup finished CPU 0 instructions: 0 cycles: 1 cumulative IPC: 0 (Simulation time: 00 hr 00 min 03 sec)
Warmup complete CPU 0 instructions: 0 cycles: 1 cumulative IPC: 0 (Simulation time: 00 hr 00 min 03 sec)
Heartbeat CPU 0 instructions: 10000002 cycles: 29553358 heartbeat IPC: 0.3384 cumulative IPC: 0.3384 (Simulation time: 00 hr 02 min 49 sec)
Heartbeat CPU 0 instructions: 20000002 cycles: 59027230 heartbeat IPC: 0.3393 cumulative IPC: 0.3388 (Simulation time: 00 hr 05 min 21 sec)
Heartbeat CPU 0 instructions: 30000004 cycles: 88498636 heartbeat IPC: 0.3393 cumulative IPC: 0.339 (Simulation time: 00 hr 08 min 01 sec)
Heartbeat CPU 0 instructions: 40000005 cycles: 118001919 heartbeat IPC: 0.3389 cumulative IPC: 0.339 (Simulation time: 00 hr 10 min 50 sec)
Heartbeat CPU 0 instructions: 50000009 cycles: 147420854 heartbeat IPC: 0.3399 cumulative IPC: 0.3392 (Simulation time: 00 hr 13 min 39 sec)
Heartbeat CPU 0 instructions: 60000012 cycles: 176862983 heartbeat IPC: 0.3396 cumulative IPC: 0.3392 (Simulation time: 00 hr 16 min 05 sec)
Heartbeat CPU 0 instructions: 70000012 cycles: 206298290 heartbeat IPC: 0.3397 cumulative IPC: 0.3393 (Simulation time: 00 hr 18 min 47 sec)
Heartbeat CPU 0 instructions: 80000016 cycles: 235740671 heartbeat IPC: 0.3396 cumulative IPC: 0.3394 (Simulation time: 00 hr 21 min 33 sec)
Heartbeat CPU 0 instructions: 90000018 cycles: 265184389 heartbeat IPC: 0.3396 cumulative IPC: 0.3394 (Simulation time: 00 hr 24 min 25 sec)
Heartbeat CPU 0 instructions: 100000020 cycles: 294611570 heartbeat IPC: 0.3398 cumulative IPC: 0.3394 (Simulation time: 00 hr 27 min 17 sec)
Heartbeat CPU 0 instructions: 110000020 cycles: 324120839 heartbeat IPC: 0.3389 cumulative IPC: 0.3394 (Simulation time: 00 hr 30 min 09 sec)
Heartbeat CPU 0 instructions: 120000024 cycles: 353639784 heartbeat IPC: 0.3388 cumulative IPC: 0.3393 (Simulation time: 00 hr 33 min 00 sec)
Heartbeat CPU 0 instructions: 130000024 cycles: 383135446 heartbeat IPC: 0.339 cumulative IPC: 0.3393 (Simulation time: 00 hr 35 min 29 sec)
Heartbeat CPU 0 instructions: 140000027 cycles: 412546023 heartbeat IPC: 0.34 cumulative IPC: 0.3394 (Simulation time: 00 hr 37 min 58 sec)
Heartbeat CPU 0 instructions: 150000029 cycles: 441942815 heartbeat IPC: 0.3402 cumulative IPC: 0.3394 (Simulation time: 00 hr 40 min 41 sec)
Heartbeat CPU 0 instructions: 160000031 cycles: 471422558 heartbeat IPC: 0.3392 cumulative IPC: 0.3394 (Simulation time: 00 hr 43 min 32 sec)
Heartbeat CPU 0 instructions: 170000034 cycles: 500922843 heartbeat IPC: 0.339 cumulative IPC: 0.3394 (Simulation time: 00 hr 46 min 00 sec)
Heartbeat CPU 0 instructions: 180000036 cycles: 530353081 heartbeat IPC: 0.3398 cumulative IPC: 0.3394 (Simulation time: 00 hr 48 min 15 sec)
Heartbeat CPU 0 instructions: 190000039 cycles: 559910074 heartbeat IPC: 0.3383 cumulative IPC: 0.3393 (Simulation time: 00 hr 51 min 03 sec)
Heartbeat CPU 0 instructions: 200000040 cycles: 589287630 heartbeat IPC: 0.3404 cumulative IPC: 0.3394 (Simulation time: 00 hr 53 min 56 sec)
Heartbeat CPU 0 instructions: 210000042 cycles: 618767852 heartbeat IPC: 0.3392 cumulative IPC: 0.3394 (Simulation time: 00 hr 56 min 36 sec)
Heartbeat CPU 0 instructions: 220000045 cycles: 648306442 heartbeat IPC: 0.3385 cumulative IPC: 0.3393 (Simulation time: 00 hr 59 min 04 sec)
Heartbeat CPU 0 instructions: 230000046 cycles: 677790211 heartbeat IPC: 0.3392 cumulative IPC: 0.3393 (Simulation time: 01 hr 01 min 31 sec)
Heartbeat CPU 0 instructions: 240000047 cycles: 707280523 heartbeat IPC: 0.3391 cumulative IPC: 0.3393 (Simulation time: 01 hr 03 min 46 sec)
Heartbeat CPU 0 instructions: 250000047 cycles: 736800780 heartbeat IPC: 0.3388 cumulative IPC: 0.3393 (Simulation time: 01 hr 06 min 34 sec)
Heartbeat CPU 0 instructions: 260000051 cycles: 766327141 heartbeat IPC: 0.3387 cumulative IPC: 0.3393 (Simulation time: 01 hr 09 min 13 sec)
Heartbeat CPU 0 instructions: 270000051 cycles: 795843883 heartbeat IPC: 0.3388 cumulative IPC: 0.3393 (Simulation time: 01 hr 11 min 11 sec)
Heartbeat CPU 0 instructions: 280000052 cycles: 825319883 heartbeat IPC: 0.3393 cumulative IPC: 0.3393 (Simulation time: 01 hr 13 min 25 sec)
Heartbeat CPU 0 instructions: 290000052 cycles: 854754294 heartbeat IPC: 0.3397 cumulative IPC: 0.3393 (Simulation time: 01 hr 15 min 57 sec)
Heartbeat CPU 0 instructions: 300000056 cycles: 884177038 heartbeat IPC: 0.3399 cumulative IPC: 0.3393 (Simulation time: 01 hr 18 min 37 sec)
Heartbeat CPU 0 instructions: 310000056 cycles: 913653896 heartbeat IPC: 0.3392 cumulative IPC: 0.3393 (Simulation time: 01 hr 21 min 24 sec)
Heartbeat CPU 0 instructions: 320000059 cycles: 943168851 heartbeat IPC: 0.3388 cumulative IPC: 0.3393 (Simulation time: 01 hr 24 min 12 sec)
Heartbeat CPU 0 instructions: 330000059 cycles: 972650978 heartbeat IPC: 0.3392 cumulative IPC: 0.3393 (Simulation time: 01 hr 26 min 30 sec)
Heartbeat CPU 0 instructions: 340000061 cycles: 1002071403 heartbeat IPC: 0.3399 cumulative IPC: 0.3393 (Simulation time: 01 hr 29 min 12 sec)
Heartbeat CPU 0 instructions: 350000063 cycles: 1031482192 heartbeat IPC: 0.34 cumulative IPC: 0.3393 (Simulation time: 01 hr 31 min 36 sec)
Heartbeat CPU 0 instructions: 360000064 cycles: 1060898959 heartbeat IPC: 0.3399 cumulative IPC: 0.3393 (Simulation time: 01 hr 33 min 24 sec)
Heartbeat CPU 0 instructions: 370000067 cycles: 1090340637 heartbeat IPC: 0.3397 cumulative IPC: 0.3393 (Simulation time: 01 hr 36 min 11 sec)
Heartbeat CPU 0 instructions: 380000068 cycles: 1119872254 heartbeat IPC: 0.3386 cumulative IPC: 0.3393 (Simulation time: 01 hr 38 min 35 sec)
Heartbeat CPU 0 instructions: 390000071 cycles: 1149416996 heartbeat IPC: 0.3385 cumulative IPC: 0.3393 (Simulation time: 01 hr 41 min 22 sec)
Heartbeat CPU 0 instructions: 400000074 cycles: 1178924908 heartbeat IPC: 0.3389 cumulative IPC: 0.3393 (Simulation time: 01 hr 44 min 15 sec)
Heartbeat CPU 0 instructions: 410000076 cycles: 1208416649 heartbeat IPC: 0.3391 cumulative IPC: 0.3393 (Simulation time: 01 hr 46 min 38 sec)
Heartbeat CPU 0 instructions: 420000076 cycles: 1237938359 heartbeat IPC: 0.3387 cumulative IPC: 0.3393 (Simulation time: 01 hr 48 min 51 sec)
Heartbeat CPU 0 instructions: 430000076 cycles: 1267456831 heartbeat IPC: 0.3388 cumulative IPC: 0.3393 (Simulation time: 01 hr 51 min 43 sec)
Heartbeat CPU 0 instructions: 440000080 cycles: 1296946196 heartbeat IPC: 0.3391 cumulative IPC: 0.3393 (Simulation time: 01 hr 54 min 19 sec)
Heartbeat CPU 0 instructions: 450000081 cycles: 1326411013 heartbeat IPC: 0.3394 cumulative IPC: 0.3393 (Simulation time: 01 hr 56 min 54 sec)
Heartbeat CPU 0 instructions: 460000083 cycles: 1355807923 heartbeat IPC: 0.3402 cumulative IPC: 0.3393 (Simulation time: 01 hr 59 min 50 sec)
Heartbeat CPU 0 instructions: 470000085 cycles: 1385138660 heartbeat IPC: 0.3409 cumulative IPC: 0.3393 (Simulation time: 02 hr 02 min 44 sec)
Heartbeat CPU 0 instructions: 480000086 cycles: 1414524765 heartbeat IPC: 0.3403 cumulative IPC: 0.3393 (Simulation time: 02 hr 05 min 40 sec)
Heartbeat CPU 0 instructions: 490000086 cycles: 1443870063 heartbeat IPC: 0.3408 cumulative IPC: 0.3394 (Simulation time: 02 hr 08 min 36 sec)
Heartbeat CPU 0 instructions: 500000086 cycles: 1473340908 heartbeat IPC: 0.3393 cumulative IPC: 0.3394 (Simulation time: 02 hr 11 min 00 sec)
Heartbeat CPU 0 instructions: 510000087 cycles: 1502779221 heartbeat IPC: 0.3397 cumulative IPC: 0.3394 (Simulation time: 02 hr 13 min 16 sec)
Heartbeat CPU 0 instructions: 520000087 cycles: 1532107158 heartbeat IPC: 0.341 cumulative IPC: 0.3394 (Simulation time: 02 hr 15 min 38 sec)
Heartbeat CPU 0 instructions: 530000091 cycles: 1561466836 heartbeat IPC: 0.3406 cumulative IPC: 0.3394 (Simulation time: 02 hr 17 min 59 sec)
Heartbeat CPU 0 instructions: 540000093 cycles: 1591015089 heartbeat IPC: 0.3384 cumulative IPC: 0.3394 (Simulation time: 02 hr 20 min 42 sec)
Heartbeat CPU 0 instructions: 550000093 cycles: 1620514357 heartbeat IPC: 0.339 cumulative IPC: 0.3394 (Simulation time: 02 hr 23 min 39 sec)
Heartbeat CPU 0 instructions: 560000095 cycles: 1650013013 heartbeat IPC: 0.339 cumulative IPC: 0.3394 (Simulation time: 02 hr 26 min 05 sec)
Heartbeat CPU 0 instructions: 570000095 cycles: 1679429543 heartbeat IPC: 0.3399 cumulative IPC: 0.3394 (Simulation time: 02 hr 28 min 48 sec)
Heartbeat CPU 0 instructions: 580000099 cycles: 1708879777 heartbeat IPC: 0.3396 cumulative IPC: 0.3394 (Simulation time: 02 hr 30 min 56 sec)
Heartbeat CPU 0 instructions: 590000102 cycles: 1738317874 heartbeat IPC: 0.3397 cumulative IPC: 0.3394 (Simulation time: 02 hr 33 min 04 sec)
Heartbeat CPU 0 instructions: 600000104 cycles: 1767765174 heartbeat IPC: 0.3396 cumulative IPC: 0.3394 (Simulation time: 02 hr 35 min 16 sec)
Heartbeat CPU 0 instructions: 610000105 cycles: 1797260659 heartbeat IPC: 0.339 cumulative IPC: 0.3394 (Simulation time: 02 hr 38 min 11 sec)
Heartbeat CPU 0 instructions: 620000107 cycles: 1831070342 heartbeat IPC: 0.2958 cumulative IPC: 0.3386 (Simulation time: 02 hr 41 min 29 sec)
Heartbeat CPU 0 instructions: 630000107 cycles: 1863411284 heartbeat IPC: 0.3092 cumulative IPC: 0.3381 (Simulation time: 02 hr 44 min 12 sec)
Heartbeat CPU 0 instructions: 640000107 cycles: 1893867560 heartbeat IPC: 0.3283 cumulative IPC: 0.3379 (Simulation time: 02 hr 46 min 49 sec)
Heartbeat CPU 0 instructions: 650000107 cycles: 1924943982 heartbeat IPC: 0.3218 cumulative IPC: 0.3377 (Simulation time: 02 hr 48 min 49 sec)
Heartbeat CPU 0 instructions: 660000108 cycles: 1954813566 heartbeat IPC: 0.3348 cumulative IPC: 0.3376 (Simulation time: 02 hr 51 min 00 sec)
Heartbeat CPU 0 instructions: 670000109 cycles: 1984300501 heartbeat IPC: 0.3391 cumulative IPC: 0.3377 (Simulation time: 02 hr 53 min 13 sec)
Heartbeat CPU 0 instructions: 680000110 cycles: 2013726175 heartbeat IPC: 0.3398 cumulative IPC: 0.3377 (Simulation time: 02 hr 55 min 24 sec)
Heartbeat CPU 0 instructions: 690000111 cycles: 2043067336 heartbeat IPC: 0.3408 cumulative IPC: 0.3377 (Simulation time: 02 hr 58 min 02 sec)
Heartbeat CPU 0 instructions: 700000115 cycles: 2072387126 heartbeat IPC: 0.3411 cumulative IPC: 0.3378 (Simulation time: 03 hr 00 min 15 sec)
Heartbeat CPU 0 instructions: 710000116 cycles: 2101734567 heartbeat IPC: 0.3407 cumulative IPC: 0.3378 (Simulation time: 03 hr 02 min 55 sec)
Heartbeat CPU 0 instructions: 720000117 cycles: 2131037925 heartbeat IPC: 0.3413 cumulative IPC: 0.3379 (Simulation time: 03 hr 05 min 50 sec)
Heartbeat CPU 0 instructions: 730000120 cycles: 2160502797 heartbeat IPC: 0.3394 cumulative IPC: 0.3379 (Simulation time: 03 hr 08 min 47 sec)
Heartbeat CPU 0 instructions: 740000121 cycles: 2189989231 heartbeat IPC: 0.3391 cumulative IPC: 0.3379 (Simulation time: 03 hr 11 min 40 sec)
Heartbeat CPU 0 instructions: 750000122 cycles: 2219452647 heartbeat IPC: 0.3394 cumulative IPC: 0.3379 (Simulation time: 03 hr 14 min 36 sec)
Heartbeat CPU 0 instructions: 760000122 cycles: 2248973470 heartbeat IPC: 0.3387 cumulative IPC: 0.3379 (Simulation time: 03 hr 17 min 24 sec)
Heartbeat CPU 0 instructions: 770000122 cycles: 2278468832 heartbeat IPC: 0.339 cumulative IPC: 0.3379 (Simulation time: 03 hr 20 min 19 sec)
Heartbeat CPU 0 instructions: 780000124 cycles: 2307901378 heartbeat IPC: 0.3398 cumulative IPC: 0.338 (Simulation time: 03 hr 22 min 53 sec)
Heartbeat CPU 0 instructions: 790000127 cycles: 2337233245 heartbeat IPC: 0.3409 cumulative IPC: 0.338 (Simulation time: 03 hr 25 min 41 sec)
Heartbeat CPU 0 instructions: 800000128 cycles: 2366712020 heartbeat IPC: 0.3392 cumulative IPC: 0.338 (Simulation time: 03 hr 28 min 24 sec)
Heartbeat CPU 0 instructions: 810000128 cycles: 2396195234 heartbeat IPC: 0.3392 cumulative IPC: 0.338 (Simulation time: 03 hr 31 min 02 sec)
Heartbeat CPU 0 instructions: 820000128 cycles: 2425693964 heartbeat IPC: 0.339 cumulative IPC: 0.338 (Simulation time: 03 hr 33 min 59 sec)
Heartbeat CPU 0 instructions: 830000128 cycles: 2455176318 heartbeat IPC: 0.3392 cumulative IPC: 0.3381 (Simulation time: 03 hr 36 min 56 sec)
Heartbeat CPU 0 instructions: 840000128 cycles: 2484623706 heartbeat IPC: 0.3396 cumulative IPC: 0.3381 (Simulation time: 03 hr 39 min 21 sec)
Heartbeat CPU 0 instructions: 850000131 cycles: 2514062718 heartbeat IPC: 0.3397 cumulative IPC: 0.3381 (Simulation time: 03 hr 41 min 38 sec)
Heartbeat CPU 0 instructions: 860000134 cycles: 2543351575 heartbeat IPC: 0.3414 cumulative IPC: 0.3381 (Simulation time: 03 hr 43 min 42 sec)
Heartbeat CPU 0 instructions: 870000134 cycles: 2572658857 heartbeat IPC: 0.3412 cumulative IPC: 0.3382 (Simulation time: 03 hr 45 min 36 sec)
Heartbeat CPU 0 instructions: 880000136 cycles: 2601935064 heartbeat IPC: 0.3416 cumulative IPC: 0.3382 (Simulation time: 03 hr 48 min 19 sec)
Heartbeat CPU 0 instructions: 890000137 cycles: 2631260468 heartbeat IPC: 0.341 cumulative IPC: 0.3382 (Simulation time: 03 hr 51 min 16 sec)
Heartbeat CPU 0 instructions: 900000137 cycles: 2660636491 heartbeat IPC: 0.3404 cumulative IPC: 0.3383 (Simulation time: 03 hr 54 min 13 sec)
Heartbeat CPU 0 instructions: 910000140 cycles: 2690015681 heartbeat IPC: 0.3404 cumulative IPC: 0.3383 (Simulation time: 03 hr 57 min 09 sec)
Heartbeat CPU 0 instructions: 920000140 cycles: 2719374743 heartbeat IPC: 0.3406 cumulative IPC: 0.3383 (Simulation time: 04 hr 00 min 02 sec)
Heartbeat CPU 0 instructions: 930000140 cycles: 2748742869 heartbeat IPC: 0.3405 cumulative IPC: 0.3383 (Simulation time: 04 hr 02 min 57 sec)
Heartbeat CPU 0 instructions: 940000144 cycles: 2778107269 heartbeat IPC: 0.3405 cumulative IPC: 0.3384 (Simulation time: 04 hr 05 min 30 sec)
Heartbeat CPU 0 instructions: 950000147 cycles: 2807521105 heartbeat IPC: 0.34 cumulative IPC: 0.3384 (Simulation time: 04 hr 07 min 54 sec)
Heartbeat CPU 0 instructions: 960000147 cycles: 2836881372 heartbeat IPC: 0.3406 cumulative IPC: 0.3384 (Simulation time: 04 hr 10 min 18 sec)
Heartbeat CPU 0 instructions: 970000149 cycles: 2866257738 heartbeat IPC: 0.3404 cumulative IPC: 0.3384 (Simulation time: 04 hr 13 min 00 sec)
Heartbeat CPU 0 instructions: 980000150 cycles: 2895658845 heartbeat IPC: 0.3401 cumulative IPC: 0.3384 (Simulation time: 04 hr 15 min 17 sec)
Heartbeat CPU 0 instructions: 990000150 cycles: 2925012217 heartbeat IPC: 0.3407 cumulative IPC: 0.3385 (Simulation time: 04 hr 17 min 47 sec)
Heartbeat CPU 0 instructions: 1000000152 cycles: 2954426719 heartbeat IPC: 0.34 cumulative IPC: 0.3385 (Simulation time: 04 hr 20 min 18 sec)
Heartbeat CPU 0 instructions: 1010000153 cycles: 2983754327 heartbeat IPC: 0.341 cumulative IPC: 0.3385 (Simulation time: 04 hr 22 min 47 sec)
Heartbeat CPU 0 instructions: 1020000155 cycles: 3013086316 heartbeat IPC: 0.3409 cumulative IPC: 0.3385 (Simulation time: 04 hr 25 min 41 sec)
Heartbeat CPU 0 instructions: 1030000155 cycles: 3042546864 heartbeat IPC: 0.3394 cumulative IPC: 0.3385 (Simulation time: 04 hr 28 min 36 sec)
Heartbeat CPU 0 instructions: 1040000157 cycles: 3071926250 heartbeat IPC: 0.3404 cumulative IPC: 0.3385 (Simulation time: 04 hr 31 min 28 sec)
Heartbeat CPU 0 instructions: 1050000160 cycles: 3101258922 heartbeat IPC: 0.3409 cumulative IPC: 0.3386 (Simulation time: 04 hr 34 min 01 sec)
Heartbeat CPU 0 instructions: 1060000161 cycles: 3130629626 heartbeat IPC: 0.3405 cumulative IPC: 0.3386 (Simulation time: 04 hr 36 min 52 sec)
Heartbeat CPU 0 instructions: 1070000162 cycles: 3159994038 heartbeat IPC: 0.3405 cumulative IPC: 0.3386 (Simulation time: 04 hr 39 min 07 sec)
Heartbeat CPU 0 instructions: 1080000163 cycles: 3189372681 heartbeat IPC: 0.3404 cumulative IPC: 0.3386 (Simulation time: 04 hr 41 min 14 sec)
Heartbeat CPU 0 instructions: 1090000163 cycles: 3218773828 heartbeat IPC: 0.3401 cumulative IPC: 0.3386 (Simulation time: 04 hr 44 min 09 sec)
Heartbeat CPU 0 instructions: 1100000164 cycles: 3248149775 heartbeat IPC: 0.3404 cumulative IPC: 0.3387 (Simulation time: 04 hr 47 min 03 sec)
Heartbeat CPU 0 instructions: 1110000164 cycles: 3277486978 heartbeat IPC: 0.3409 cumulative IPC: 0.3387 (Simulation time: 04 hr 49 min 57 sec)
Heartbeat CPU 0 instructions: 1120000166 cycles: 3306784673 heartbeat IPC: 0.3413 cumulative IPC: 0.3387 (Simulation time: 04 hr 52 min 50 sec)
Heartbeat CPU 0 instructions: 1130000166 cycles: 3336117380 heartbeat IPC: 0.3409 cumulative IPC: 0.3387 (Simulation time: 04 hr 55 min 45 sec)
Heartbeat CPU 0 instructions: 1140000169 cycles: 3365440038 heartbeat IPC: 0.341 cumulative IPC: 0.3387 (Simulation time: 04 hr 58 min 43 sec)
Heartbeat CPU 0 instructions: 1150000169 cycles: 3394937076 heartbeat IPC: 0.339 cumulative IPC: 0.3387 (Simulation time: 05 hr 00 min 57 sec)
Heartbeat CPU 0 instructions: 1160000171 cycles: 3424288154 heartbeat IPC: 0.3407 cumulative IPC: 0.3388 (Simulation time: 05 hr 03 min 22 sec)
Heartbeat CPU 0 instructions: 1170000172 cycles: 3453704178 heartbeat IPC: 0.34 cumulative IPC: 0.3388 (Simulation time: 05 hr 06 min 11 sec)
Heartbeat CPU 0 instructions: 1180000173 cycles: 3483138800 heartbeat IPC: 0.3397 cumulative IPC: 0.3388 (Simulation time: 05 hr 08 min 29 sec)
Heartbeat CPU 0 instructions: 1190000173 cycles: 3512546645 heartbeat IPC: 0.34 cumulative IPC: 0.3388 (Simulation time: 05 hr 11 min 16 sec)
Heartbeat CPU 0 instructions: 1200000173 cycles: 3541931244 heartbeat IPC: 0.3403 cumulative IPC: 0.3388 (Simulation time: 05 hr 13 min 41 sec)
Heartbeat CPU 0 instructions: 1210000174 cycles: 3571314252 heartbeat IPC: 0.3403 cumulative IPC: 0.3388 (Simulation time: 05 hr 15 min 34 sec)
Heartbeat CPU 0 instructions: 1220000178 cycles: 3600772677 heartbeat IPC: 0.3395 cumulative IPC: 0.3388 (Simulation time: 05 hr 17 min 55 sec)
Heartbeat CPU 0 instructions: 1230000181 cycles: 3630258586 heartbeat IPC: 0.3391 cumulative IPC: 0.3388 (Simulation time: 05 hr 20 min 42 sec)
Heartbeat CPU 0 instructions: 1240000182 cycles: 3659685055 heartbeat IPC: 0.3398 cumulative IPC: 0.3388 (Simulation time: 05 hr 23 min 17 sec)
Heartbeat CPU 0 instructions: 1250000185 cycles: 3689118286 heartbeat IPC: 0.3398 cumulative IPC: 0.3388 (Simulation time: 05 hr 25 min 46 sec)
Heartbeat CPU 0 instructions: 1260000185 cycles: 3718610024 heartbeat IPC: 0.3391 cumulative IPC: 0.3388 (Simulation time: 05 hr 28 min 03 sec)
Heartbeat CPU 0 instructions: 1270000185 cycles: 3748078155 heartbeat IPC: 0.3393 cumulative IPC: 0.3388 (Simulation time: 05 hr 30 min 13 sec)
Heartbeat CPU 0 instructions: 1280000186 cycles: 3777601835 heartbeat IPC: 0.3387 cumulative IPC: 0.3388 (Simulation time: 05 hr 33 min 03 sec)
Heartbeat CPU 0 instructions: 1290000186 cycles: 3807083093 heartbeat IPC: 0.3392 cumulative IPC: 0.3388 (Simulation time: 05 hr 35 min 50 sec)
Heartbeat CPU 0 instructions: 1300000190 cycles: 3836481973 heartbeat IPC: 0.3401 cumulative IPC: 0.3389 (Simulation time: 05 hr 38 min 47 sec)
Heartbeat CPU 0 instructions: 1310000190 cycles: 3865923192 heartbeat IPC: 0.3397 cumulative IPC: 0.3389 (Simulation time: 05 hr 41 min 45 sec)
Heartbeat CPU 0 instructions: 1320000190 cycles: 3895409582 heartbeat IPC: 0.3391 cumulative IPC: 0.3389 (Simulation time: 05 hr 44 min 44 sec)
Heartbeat CPU 0 instructions: 1330000190 cycles: 3924908443 heartbeat IPC: 0.339 cumulative IPC: 0.3389 (Simulation time: 05 hr 47 min 32 sec)
Heartbeat CPU 0 instructions: 1340000190 cycles: 3954384905 heartbeat IPC: 0.3393 cumulative IPC: 0.3389 (Simulation time: 05 hr 50 min 29 sec)
Heartbeat CPU 0 instructions: 1350000192 cycles: 3983847472 heartbeat IPC: 0.3394 cumulative IPC: 0.3389 (Simulation time: 05 hr 53 min 26 sec)
Heartbeat CPU 0 instructions: 1360000193 cycles: 4013353305 heartbeat IPC: 0.3389 cumulative IPC: 0.3389 (Simulation time: 05 hr 56 min 03 sec)
Heartbeat CPU 0 instructions: 1370000194 cycles: 4042868223 heartbeat IPC: 0.3388 cumulative IPC: 0.3389 (Simulation time: 05 hr 58 min 29 sec)
Heartbeat CPU 0 instructions: 1380000197 cycles: 4072437600 heartbeat IPC: 0.3382 cumulative IPC: 0.3389 (Simulation time: 06 hr 00 min 51 sec)
Heartbeat CPU 0 instructions: 1390000201 cycles: 4101887287 heartbeat IPC: 0.3396 cumulative IPC: 0.3389 (Simulation time: 06 hr 03 min 23 sec)
Heartbeat CPU 0 instructions: 1400000204 cycles: 4131297613 heartbeat IPC: 0.34 cumulative IPC: 0.3389 (Simulation time: 06 hr 06 min 17 sec)
Heartbeat CPU 0 instructions: 1410000206 cycles: 4160796242 heartbeat IPC: 0.339 cumulative IPC: 0.3389 (Simulation time: 06 hr 08 min 55 sec)
Heartbeat CPU 0 instructions: 1420000206 cycles: 4190602378 heartbeat IPC: 0.3355 cumulative IPC: 0.3389 (Simulation time: 06 hr 11 min 08 sec)
Heartbeat CPU 0 instructions: 1430000209 cycles: 4220269315 heartbeat IPC: 0.3371 cumulative IPC: 0.3388 (Simulation time: 06 hr 14 min 05 sec)
Heartbeat CPU 0 instructions: 1440000211 cycles: 4252101908 heartbeat IPC: 0.3141 cumulative IPC: 0.3387 (Simulation time: 06 hr 16 min 27 sec)
Heartbeat CPU 0 instructions: 1450000214 cycles: 4281553330 heartbeat IPC: 0.3395 cumulative IPC: 0.3387 (Simulation time: 06 hr 18 min 28 sec)
Heartbeat CPU 0 instructions: 1460000214 cycles: 4311142950 heartbeat IPC: 0.338 cumulative IPC: 0.3387 (Simulation time: 06 hr 20 min 38 sec)
Heartbeat CPU 0 instructions: 1470000214 cycles: 4340635369 heartbeat IPC: 0.3391 cumulative IPC: 0.3387 (Simulation time: 06 hr 22 min 37 sec)
Heartbeat CPU 0 instructions: 1480000216 cycles: 4370081273 heartbeat IPC: 0.3396 cumulative IPC: 0.3387 (Simulation time: 06 hr 25 min 24 sec)
Heartbeat CPU 0 instructions: 1490000220 cycles: 4399445368 heartbeat IPC: 0.3406 cumulative IPC: 0.3387 (Simulation time: 06 hr 28 min 23 sec)
Heartbeat CPU 0 instructions: 1500000220 cycles: 4428750882 heartbeat IPC: 0.3412 cumulative IPC: 0.3387 (Simulation time: 06 hr 30 min 38 sec)
Heartbeat CPU 0 instructions: 1510000220 cycles: 4458095912 heartbeat IPC: 0.3408 cumulative IPC: 0.3387 (Simulation time: 06 hr 32 min 47 sec)
Heartbeat CPU 0 instructions: 1520000222 cycles: 4487716279 heartbeat IPC: 0.3376 cumulative IPC: 0.3387 (Simulation time: 06 hr 35 min 00 sec)
Heartbeat CPU 0 instructions: 1530000222 cycles: 4517304761 heartbeat IPC: 0.338 cumulative IPC: 0.3387 (Simulation time: 06 hr 37 min 58 sec)
Heartbeat CPU 0 instructions: 1540000223 cycles: 4546488528 heartbeat IPC: 0.3427 cumulative IPC: 0.3387 (Simulation time: 06 hr 40 min 43 sec)
Heartbeat CPU 0 instructions: 1550000223 cycles: 4574830459 heartbeat IPC: 0.3528 cumulative IPC: 0.3388 (Simulation time: 06 hr 43 min 10 sec)
Heartbeat CPU 0 instructions: 1560000225 cycles: 4603125036 heartbeat IPC: 0.3534 cumulative IPC: 0.3389 (Simulation time: 06 hr 46 min 01 sec)
Heartbeat CPU 0 instructions: 1570000225 cycles: 4631483470 heartbeat IPC: 0.3526 cumulative IPC: 0.339 (Simulation time: 06 hr 48 min 53 sec)
Heartbeat CPU 0 instructions: 1580000227 cycles: 4659765781 heartbeat IPC: 0.3536 cumulative IPC: 0.3391 (Simulation time: 06 hr 51 min 06 sec)
Heartbeat CPU 0 instructions: 1590000231 cycles: 4688050804 heartbeat IPC: 0.3535 cumulative IPC: 0.3392 (Simulation time: 06 hr 53 min 54 sec)
Heartbeat CPU 0 instructions: 1600000231 cycles: 4716365255 heartbeat IPC: 0.3532 cumulative IPC: 0.3392 (Simulation time: 06 hr 56 min 34 sec)
Heartbeat CPU 0 instructions: 1610000231 cycles: 4744650839 heartbeat IPC: 0.3535 cumulative IPC: 0.3393 (Simulation time: 06 hr 58 min 29 sec)
Heartbeat CPU 0 instructions: 1620000232 cycles: 4772945164 heartbeat IPC: 0.3534 cumulative IPC: 0.3394 (Simulation time: 07 hr 00 min 31 sec)
Heartbeat CPU 0 instructions: 1630000233 cycles: 4801208963 heartbeat IPC: 0.3538 cumulative IPC: 0.3395 (Simulation time: 07 hr 03 min 18 sec)
Heartbeat CPU 0 instructions: 1640000234 cycles: 4829530095 heartbeat IPC: 0.3531 cumulative IPC: 0.3396 (Simulation time: 07 hr 06 min 11 sec)
Heartbeat CPU 0 instructions: 1650000235 cycles: 4857822818 heartbeat IPC: 0.3534 cumulative IPC: 0.3397 (Simulation time: 07 hr 08 min 54 sec)
Heartbeat CPU 0 instructions: 1660000235 cycles: 4886186415 heartbeat IPC: 0.3526 cumulative IPC: 0.3397 (Simulation time: 07 hr 11 min 44 sec)
Heartbeat CPU 0 instructions: 1670000235 cycles: 4914503991 heartbeat IPC: 0.3531 cumulative IPC: 0.3398 (Simulation time: 07 hr 14 min 34 sec)
Heartbeat CPU 0 instructions: 1680000237 cycles: 4942812764 heartbeat IPC: 0.3532 cumulative IPC: 0.3399 (Simulation time: 07 hr 17 min 24 sec)
Heartbeat CPU 0 instructions: 1690000237 cycles: 4971119956 heartbeat IPC: 0.3533 cumulative IPC: 0.34 (Simulation time: 07 hr 19 min 54 sec)
Heartbeat CPU 0 instructions: 1700000241 cycles: 4999401290 heartbeat IPC: 0.3536 cumulative IPC: 0.34 (Simulation time: 07 hr 22 min 21 sec)
Heartbeat CPU 0 instructions: 1710000242 cycles: 5027716912 heartbeat IPC: 0.3532 cumulative IPC: 0.3401 (Simulation time: 07 hr 25 min 11 sec)
Heartbeat CPU 0 instructions: 1720000243 cycles: 5056023364 heartbeat IPC: 0.3533 cumulative IPC: 0.3402 (Simulation time: 07 hr 27 min 24 sec)
Heartbeat CPU 0 instructions: 1730000243 cycles: 5084359653 heartbeat IPC: 0.3529 cumulative IPC: 0.3403 (Simulation time: 07 hr 29 min 49 sec)
Heartbeat CPU 0 instructions: 1740000246 cycles: 5112669177 heartbeat IPC: 0.3532 cumulative IPC: 0.3403 (Simulation time: 07 hr 32 min 14 sec)
Heartbeat CPU 0 instructions: 1750000247 cycles: 5140960805 heartbeat IPC: 0.3535 cumulative IPC: 0.3404 (Simulation time: 07 hr 34 min 31 sec)
Heartbeat CPU 0 instructions: 1760000248 cycles: 5169321253 heartbeat IPC: 0.3526 cumulative IPC: 0.3405 (Simulation time: 07 hr 36 min 59 sec)
Heartbeat CPU 0 instructions: 1770000252 cycles: 5197647529 heartbeat IPC: 0.353 cumulative IPC: 0.3405 (Simulation time: 07 hr 39 min 18 sec)
Heartbeat CPU 0 instructions: 1780000252 cycles: 5225964557 heartbeat IPC: 0.3531 cumulative IPC: 0.3406 (Simulation time: 07 hr 42 min 03 sec)
Heartbeat CPU 0 instructions: 1790000252 cycles: 5254342199 heartbeat IPC: 0.3524 cumulative IPC: 0.3407 (Simulation time: 07 hr 43 min 55 sec)
Heartbeat CPU 0 instructions: 1800000252 cycles: 5282722181 heartbeat IPC: 0.3524 cumulative IPC: 0.3407 (Simulation time: 07 hr 46 min 27 sec)
Heartbeat CPU 0 instructions: 1810000253 cycles: 5311033320 heartbeat IPC: 0.3532 cumulative IPC: 0.3408 (Simulation time: 07 hr 48 min 40 sec)
Heartbeat CPU 0 instructions: 1820000255 cycles: 5339335691 heartbeat IPC: 0.3533 cumulative IPC: 0.3409 (Simulation time: 07 hr 50 min 52 sec)
Heartbeat CPU 0 instructions: 1830000257 cycles: 5367636030 heartbeat IPC: 0.3534 cumulative IPC: 0.3409 (Simulation time: 07 hr 53 min 05 sec)
Heartbeat CPU 0 instructions: 1840000259 cycles: 5395960297 heartbeat IPC: 0.3531 cumulative IPC: 0.341 (Simulation time: 07 hr 55 min 57 sec)
Heartbeat CPU 0 instructions: 1850000259 cycles: 5424282128 heartbeat IPC: 0.3531 cumulative IPC: 0.3411 (Simulation time: 07 hr 58 min 47 sec)
Heartbeat CPU 0 instructions: 1860000262 cycles: 5452625131 heartbeat IPC: 0.3528 cumulative IPC: 0.3411 (Simulation time: 08 hr 01 min 38 sec)
Heartbeat CPU 0 instructions: 1870000263 cycles: 5480910517 heartbeat IPC: 0.3535 cumulative IPC: 0.3412 (Simulation time: 08 hr 04 min 26 sec)
Heartbeat CPU 0 instructions: 1880000264 cycles: 5509226662 heartbeat IPC: 0.3532 cumulative IPC: 0.3412 (Simulation time: 08 hr 07 min 16 sec)
Heartbeat CPU 0 instructions: 1890000267 cycles: 5537533191 heartbeat IPC: 0.3533 cumulative IPC: 0.3413 (Simulation time: 08 hr 10 min 06 sec)
Heartbeat CPU 0 instructions: 1900000271 cycles: 5565821409 heartbeat IPC: 0.3535 cumulative IPC: 0.3414 (Simulation time: 08 hr 12 min 57 sec)
Heartbeat CPU 0 instructions: 1910000274 cycles: 5594139631 heartbeat IPC: 0.3531 cumulative IPC: 0.3414 (Simulation time: 08 hr 15 min 34 sec)
Heartbeat CPU 0 instructions: 1920000278 cycles: 5622470686 heartbeat IPC: 0.353 cumulative IPC: 0.3415 (Simulation time: 08 hr 18 min 25 sec)
Heartbeat CPU 0 instructions: 1930000280 cycles: 5650795971 heartbeat IPC: 0.353 cumulative IPC: 0.3415 (Simulation time: 08 hr 21 min 16 sec)
Heartbeat CPU 0 instructions: 1940000280 cycles: 5679162277 heartbeat IPC: 0.3525 cumulative IPC: 0.3416 (Simulation time: 08 hr 24 min 07 sec)
Heartbeat CPU 0 instructions: 1950000281 cycles: 5707476717 heartbeat IPC: 0.3532 cumulative IPC: 0.3417 (Simulation time: 08 hr 26 min 58 sec)
Heartbeat CPU 0 instructions: 1960000284 cycles: 5735821808 heartbeat IPC: 0.3528 cumulative IPC: 0.3417 (Simulation time: 08 hr 29 min 50 sec)
Heartbeat CPU 0 instructions: 1970000284 cycles: 5764162448 heartbeat IPC: 0.3529 cumulative IPC: 0.3418 (Simulation time: 08 hr 32 min 34 sec)
Heartbeat CPU 0 instructions: 1980000285 cycles: 5792474539 heartbeat IPC: 0.3532 cumulative IPC: 0.3418 (Simulation time: 08 hr 34 min 49 sec)
Heartbeat CPU 0 instructions: 1990000285 cycles: 5820770334 heartbeat IPC: 0.3534 cumulative IPC: 0.3419 (Simulation time: 08 hr 37 min 39 sec)

=== ERROR PAGE STATISTICS ===
Mode: OFF
Total Error Accesses: 0
==============================
Simulation finished CPU 0 instructions: 1999999981 cycles: 5849004012 cumulative IPC: 0.3419 (Simulation time: 08 hr 40 min 29 sec)
Simulation complete CPU 0 instructions: 1999999981 cycles: 5849004012 cumulative IPC: 0.3419 (Simulation time: 08 hr 40 min 29 sec)

ChampSim completed all CPUs

=== Simulation ===
CPU 0 runs test_traces/602.gcc_s-1850B.champsimtrace.xz

Region of Interest Statistics

CPU 0 cumulative IPC: 0.3419 instructions: 1999999981 cycles: 5849004012
CPU 0 Branch Prediction Accuracy: 92.26% MPKI: 19.84 Average ROB Occupancy at Mispredict: 28.45
Branch type MPKI
BRANCH_DIRECT_JUMP: 0.0104
BRANCH_INDIRECT: 0
BRANCH_CONDITIONAL: 19.83
BRANCH_DIRECT_CALL: 8.5e-06
BRANCH_INDIRECT_CALL: 0
BRANCH_RETURN: 7e-06

cpu0->cpu0_STLB TOTAL        ACCESS:     748412 HIT:     106521 MISS:     641891 MSHR_MERGE:          0
cpu0->cpu0_STLB LOAD         ACCESS:     748412 HIT:     106521 MISS:     641891 MSHR_MERGE:          0
cpu0->cpu0_STLB RFO          ACCESS:          0 HIT:          0 MISS:          0 MSHR_MERGE:          0
cpu0->cpu0_STLB PREFETCH     ACCESS:          0 HIT:          0 MISS:          0 MSHR_MERGE:          0
cpu0->cpu0_STLB WRITE        ACCESS:          0 HIT:          0 MISS:          0 MSHR_MERGE:          0
cpu0->cpu0_STLB TRANSLATION  ACCESS:          0 HIT:          0 MISS:          0 MSHR_MERGE:          0
cpu0->cpu0_STLB PREFETCH REQUESTED:          0 ISSUED:          0 USEFUL:          0 USELESS:          0
cpu0->cpu0_STLB AVERAGE MISS LATENCY: 467.9 cycles
cpu0->cpu0_L2C TOTAL        ACCESS:   48249093 HIT:   12595784 MISS:   35653309 MSHR_MERGE:          0
cpu0->cpu0_L2C LOAD         ACCESS:   48104366 HIT:   12467937 MISS:   35636429 MSHR_MERGE:          0
cpu0->cpu0_L2C RFO          ACCESS:      16943 HIT:        112 MISS:      16831 MSHR_MERGE:          0
cpu0->cpu0_L2C PREFETCH     ACCESS:          0 HIT:          0 MISS:          0 MSHR_MERGE:          0
cpu0->cpu0_L2C WRITE        ACCESS:     127784 HIT:     127735 MISS:         49 MSHR_MERGE:          0
cpu0->cpu0_L2C TRANSLATION  ACCESS:          0 HIT:          0 MISS:          0 MSHR_MERGE:          0
cpu0->cpu0_L2C PREFETCH REQUESTED:          0 ISSUED:          0 USEFUL:          0 USELESS:          0
cpu0->cpu0_L2C AVERAGE MISS LATENCY: 103.8 cycles
cpu0->cpu0_L1I TOTAL        ACCESS:      78795 HIT:      78735 MISS:         60 MSHR_MERGE:          3
cpu0->cpu0_L1I LOAD         ACCESS:      78795 HIT:      78735 MISS:         60 MSHR_MERGE:          3
cpu0->cpu0_L1I RFO          ACCESS:          0 HIT:          0 MISS:          0 MSHR_MERGE:          0
cpu0->cpu0_L1I PREFETCH     ACCESS:          0 HIT:          0 MISS:          0 MSHR_MERGE:          0
cpu0->cpu0_L1I WRITE        ACCESS:          0 HIT:          0 MISS:          0 MSHR_MERGE:          0
cpu0->cpu0_L1I TRANSLATION  ACCESS:          0 HIT:          0 MISS:          0 MSHR_MERGE:          0
cpu0->cpu0_L1I PREFETCH REQUESTED:          0 ISSUED:          0 USEFUL:          0 USELESS:          0
cpu0->cpu0_L1I AVERAGE MISS LATENCY: 110.1 cycles
cpu0->cpu0_L1D TOTAL        ACCESS:  605677845 HIT:  522294032 MISS:   83383813 MSHR_MERGE:   35262561
cpu0->cpu0_L1D LOAD         ACCESS:  433055276 HIT:  349688882 MISS:   83366394 MSHR_MERGE:   35262085
cpu0->cpu0_L1D RFO          ACCESS:          0 HIT:          0 MISS:          0 MSHR_MERGE:          0
cpu0->cpu0_L1D PREFETCH     ACCESS:          0 HIT:          0 MISS:          0 MSHR_MERGE:          0
cpu0->cpu0_L1D WRITE        ACCESS:  172622569 HIT:  172605150 MISS:      17419 MSHR_MERGE:        476
cpu0->cpu0_L1D TRANSLATION  ACCESS:          0 HIT:          0 MISS:          0 MSHR_MERGE:          0
cpu0->cpu0_L1D PREFETCH REQUESTED:          0 ISSUED:          0 USEFUL:          0 USELESS:          0
cpu0->cpu0_L1D AVERAGE MISS LATENCY: 85.68 cycles
cpu0->cpu0_ITLB TOTAL        ACCESS:      74095 HIT:      74086 MISS:          9 MSHR_MERGE:          3
cpu0->cpu0_ITLB LOAD         ACCESS:      74095 HIT:      74086 MISS:          9 MSHR_MERGE:          3
cpu0->cpu0_ITLB RFO          ACCESS:          0 HIT:          0 MISS:          0 MSHR_MERGE:          0
cpu0->cpu0_ITLB PREFETCH     ACCESS:          0 HIT:          0 MISS:          0 MSHR_MERGE:          0
cpu0->cpu0_ITLB WRITE        ACCESS:          0 HIT:          0 MISS:          0 MSHR_MERGE:          0
cpu0->cpu0_ITLB TRANSLATION  ACCESS:          0 HIT:          0 MISS:          0 MSHR_MERGE:          0
cpu0->cpu0_ITLB PREFETCH REQUESTED:          0 ISSUED:          0 USEFUL:          0 USELESS:          0
cpu0->cpu0_ITLB AVERAGE MISS LATENCY: 796.2 cycles
cpu0->cpu0_DTLB TOTAL        ACCESS:  552104547 HIT:  550734181 MISS:    1370366 MSHR_MERGE:     621960
cpu0->cpu0_DTLB LOAD         ACCESS:  552104547 HIT:  550734181 MISS:    1370366 MSHR_MERGE:     621960
cpu0->cpu0_DTLB RFO          ACCESS:          0 HIT:          0 MISS:          0 MSHR_MERGE:          0
cpu0->cpu0_DTLB PREFETCH     ACCESS:          0 HIT:          0 MISS:          0 MSHR_MERGE:          0
cpu0->cpu0_DTLB WRITE        ACCESS:          0 HIT:          0 MISS:          0 MSHR_MERGE:          0
cpu0->cpu0_DTLB TRANSLATION  ACCESS:          0 HIT:          0 MISS:          0 MSHR_MERGE:          0
cpu0->cpu0_DTLB PREFETCH REQUESTED:          0 ISSUED:          0 USEFUL:          0 USELESS:          0
cpu0->cpu0_DTLB AVERAGE MISS LATENCY: 407.2 cycles
cpu0->LLC TOTAL        ACCESS:   35703434 HIT:     114520 MISS:   35588914 MSHR_MERGE:          0
cpu0->LLC LOAD         ACCESS:   35636429 HIT:      64619 MISS:   35571810 MSHR_MERGE:          0
cpu0->LLC RFO          ACCESS:      16831 HIT:         62 MISS:      16769 MSHR_MERGE:          0
cpu0->LLC PREFETCH     ACCESS:          0 HIT:          0 MISS:          0 MSHR_MERGE:          0
cpu0->LLC WRITE        ACCESS:      50174 HIT:      49839 MISS:        335 MSHR_MERGE:          0
cpu0->LLC TRANSLATION  ACCESS:          0 HIT:          0 MISS:          0 MSHR_MERGE:          0
cpu0->LLC PREFETCH REQUESTED:          0 ISSUED:          0 USEFUL:          0 USELESS:          0
cpu0->LLC AVERAGE MISS LATENCY: 88 cycles

DRAM Statistics

Channel 0 RQ ROW_BUFFER_HIT:       7353
  ROW_BUFFER_MISS:   18436152
  AVG DBUS CONGESTED CYCLE: 11.73
Channel 0 WQ ROW_BUFFER_HIT:       2890
  ROW_BUFFER_MISS:      22176
  FULL:          0
Channel 0 REFRESHES ISSUED:     487385

Channel 1 RQ ROW_BUFFER_HIT:       8078
  ROW_BUFFER_MISS:   18436092
  AVG DBUS CONGESTED CYCLE: 11.74
Channel 1 WQ ROW_BUFFER_HIT:       2807
  ROW_BUFFER_MISS:      22246
  FULL:          0
Channel 1 REFRESHES ISSUED:     487385
