
*** ChampSim Multicore Out-of-Order Simulator ***
Warmup Instructions: 0
Simulation Instructions: 9223372036854775807
Number of CPUs: 1
Page size: 1048576

Off-chip DRAM Size: 32 GiB Channels: 2 Width: 32-bit Data Rate: 4807 MT/s
[ERROR_PAGE_MANAGER] Error latency: 2459910500 
[ERROR_PAGE_MANAGER] Random seed: 54321 (fixed for preload reproducibility)
[ERROR_PAGE_MANAGER] Cycle-based error modeling enabled
[ERROR_PAGE_MANAGER] Errors per interval: 1
[ERROR_PAGE_MANAGER] Error cycle interval: 705324015 cycles

=== ERROR PAGE STATISTICS ===
Mode: CYCLE
Error Cycle Interval: 705324015 CPU cycles
Total Error Accesses: 0
==============================
Warmup finished CPU 0 instructions: 0 cycles: 1 cumulative IPC: 0 (Simulation time: 00 hr 00 min 00 sec)
Warmup complete CPU 0 instructions: 0 cycles: 1 cumulative IPC: 0 (Simulation time: 00 hr 00 min 00 sec)
Simulation CPU 0 panic: IPC 0 < 0.01
Simulation CPU 0 panic: IPC 1e-07 < 0.01
Simulation CPU 0 panic: IPC 0 < 0.01
Simulation CPU 0 panic: IPC 1e-07 < 0.01
Simulation CPU 0 panic: IPC 2.1e-06 < 0.01
Simulation CPU 0 panic: IPC 2.3e-05 < 0.01
Simulation CPU 0 panic: IPC 0.0004727 < 0.01
Simulation CPU 0 panic: IPC 1e-06 < 0.01
Simulation CPU 0 panic: IPC 0.0002725 < 0.01
Simulation CPU 0 panic: IPC 0.0029129 < 0.01
Simulation CPU 0 panic: IPC 0.0020414 < 0.01
Simulation CPU 0 panic: IPC 0.0001183 < 0.01
Simulation CPU 0 panic: IPC 1.6e-06 < 0.01
Simulation CPU 0 panic: IPC 4.4e-06 < 0.01
Simulation CPU 0 panic: IPC 0 < 0.01
Simulation CPU 0 panic: IPC 0.0022093 < 0.01
Simulation CPU 0 panic: IPC 0 < 0.01
Simulation CPU 0 panic: IPC 0.0019384 < 0.01
Simulation CPU 0 panic: IPC 0.0002613 < 0.01
Simulation CPU 0 panic: IPC 5e-07 < 0.01
Simulation CPU 0 panic: IPC 1.4e-06 < 0.01
Simulation CPU 0 panic: IPC 5.38e-05 < 0.01
Simulation CPU 0 panic: IPC 3.4e-06 < 0.01
Simulation CPU 0 panic: IPC 1.05e-05 < 0.01
Simulation CPU 0 panic: IPC 6e-07 < 0.01
Simulation CPU 0 panic: IPC 0.0002537 < 0.01
Simulation CPU 0 panic: IPC 0.0004514 < 0.01
Simulation CPU 0 panic: IPC 0.0009248 < 0.01
Simulation CPU 0 panic: IPC 0.000379 < 0.01
Simulation CPU 0 panic: IPC 0.0044689 < 0.01
Simulation CPU 0 panic: IPC 0.0035715 < 0.01
Simulation CPU 0 panic: IPC 0.0010914 < 0.01
Simulation CPU 0 panic: IPC 0.000521 < 0.01
Simulation CPU 0 panic: IPC 0.0036923 < 0.01
Simulation CPU 0 panic: IPC 0.0012109 < 0.01
Simulation CPU 0 panic: IPC 0.0004728 < 0.01
Simulation CPU 0 panic: IPC 0.0002884 < 0.01
Simulation CPU 0 panic: IPC 0.0018766 < 0.01
Simulation CPU 0 panic: IPC 0.0018104 < 0.01
Simulation CPU 0 panic: IPC 0.0007074 < 0.01
Simulation CPU 0 panic: IPC 9e-06 < 0.01
Simulation CPU 0 panic: IPC 1.42e-05 < 0.01
Simulation CPU 0 panic: IPC 1.42e-05 < 0.01
Simulation CPU 0 panic: IPC 1.42e-05 < 0.01
Simulation CPU 0 panic: IPC 0.0036294 < 0.01
Simulation CPU 0 panic: IPC 0.0020797 < 0.01
Simulation CPU 0 panic: IPC 0.0064004 < 0.01
Simulation CPU 0 panic: IPC 0.0004234 < 0.01
Simulation CPU 0 panic: IPC 0.0004521 < 0.01
Simulation CPU 0 panic: IPC 0.000695 < 0.01
Simulation CPU 0 panic: IPC 0.0004567 < 0.01
Simulation CPU 0 panic: IPC 0.0004498 < 0.01
Simulation CPU 0 panic: IPC 0.0004484 < 0.01
Simulation CPU 0 panic: IPC 0.0002466 < 0.01
Simulation CPU 0 panic: IPC 0.0007072 < 0.01
Simulation CPU 0 panic: IPC 0.0065293 < 0.01
Simulation CPU 0 critical: IPC 0.011599 < 0.02
Simulation CPU 0 panic: IPC 0.0002464 < 0.01
Simulation CPU 0 panic: IPC 0.0007731 < 0.01
Simulation CPU 0 panic: IPC 7.59e-05 < 0.01
Simulation CPU 0 panic: IPC 0.0002137 < 0.01
Simulation CPU 0 panic: IPC 0.0047619 < 0.01
Simulation CPU 0 panic: IPC 4.4e-06 < 0.01
Simulation CPU 0 panic: IPC 3.4e-06 < 0.01
Simulation CPU 0 panic: IPC 0.0001809 < 0.01
Simulation CPU 0 panic: IPC 0.0003701 < 0.01
Simulation CPU 0 panic: IPC 0.0005202 < 0.01
Simulation CPU 0 panic: IPC 0.0045808 < 0.01
Simulation CPU 0 panic: IPC 0.0004161 < 0.01
Simulation CPU 0 panic: IPC 0.0002493 < 0.01
[ERROR_CYCLE] Error added at CPU cycle 705324016, interval 1, pending count: 1
[DRAM_CYCLE_ERROR] Cycle-based error applied! address=0x537c59740 additional_latency=2459910500 cycles
Simulation CPU 0 panic: IPC 0.000416 < 0.01
Simulation CPU 0 panic: IPC 0 < 0.01
Simulation CPU 0 panic: IPC 0.0002537 < 0.01
Simulation CPU 0 panic: IPC 0.0002387 < 0.01
Simulation CPU 0 panic: IPC 0.0019012 < 0.01
Simulation CPU 0 panic: IPC 0.0004001 < 0.01
Simulation CPU 0 panic: IPC 0.0002481 < 0.01
Simulation CPU 0 panic: IPC 0.0002475 < 0.01
Simulation CPU 0 panic: IPC 0.0007423 < 0.01
Simulation CPU 0 panic: IPC 0.001547 < 0.01
Simulation CPU 0 panic: IPC 0.0020238 < 0.01
Simulation CPU 0 panic: IPC 0.0006807 < 0.01
Simulation CPU 0 panic: IPC 0.0038324 < 0.01
Simulation CPU 0 panic: IPC 0.0057279 < 0.01
Simulation CPU 0 panic: IPC 0.0074519 < 0.01
Simulation CPU 0 critical: IPC 0.011126 < 0.02
Simulation CPU 0 panic: IPC 0.0002364 < 0.01
Simulation CPU 0 panic: IPC 0.0003667 < 0.01
Simulation CPU 0 panic: IPC 0.0006031 < 0.01
Simulation CPU 0 panic: IPC 0.0002563 < 0.01
Simulation CPU 0 panic: IPC 0.0002463 < 0.01
Simulation CPU 0 panic: IPC 0.0002461 < 0.01
Heartbeat CPU 0 instructions: 10000002 cycles: 939859796 heartbeat IPC: 0.01064 cumulative IPC: 0.01064 (Simulation time: 01 hr 23 min 16 sec)
Heartbeat CPU 0 instructions: 20000003 cycles: 954909699 heartbeat IPC: 0.6645 cumulative IPC: 0.02094 (Simulation time: 01 hr 25 min 02 sec)
Heartbeat CPU 0 instructions: 30000006 cycles: 960716355 heartbeat IPC: 1.722 cumulative IPC: 0.03123 (Simulation time: 01 hr 25 min 48 sec)
Heartbeat CPU 0 instructions: 40000006 cycles: 994242953 heartbeat IPC: 0.2983 cumulative IPC: 0.04023 (Simulation time: 01 hr 29 min 01 sec)
Simulation CPU 0 panic: IPC 0.0065411 < 0.01
Heartbeat CPU 0 instructions: 50000010 cycles: 1046130256 heartbeat IPC: 0.1927 cumulative IPC: 0.0478 (Simulation time: 01 hr 33 min 51 sec)
Heartbeat CPU 0 instructions: 60000011 cycles: 1061025151 heartbeat IPC: 0.6714 cumulative IPC: 0.05655 (Simulation time: 01 hr 35 min 08 sec)
Heartbeat CPU 0 instructions: 70000011 cycles: 1066533814 heartbeat IPC: 1.815 cumulative IPC: 0.06563 (Simulation time: 01 hr 35 min 56 sec)
Simulation CPU 0 panic: IPC 1e-06 < 0.01
Simulation CPU 0 panic: IPC 1.4e-06 < 0.01
Simulation CPU 0 panic: IPC 3e-07 < 0.01
Simulation CPU 0 panic: IPC 9.82e-05 < 0.01
Simulation CPU 0 critical: IPC 0.010314 < 0.02
Simulation CPU 0 panic: IPC 0.0092325 < 0.01
Simulation CPU 0 warning: IPC 0.043496 < 0.05
Simulation CPU 0 panic: IPC 1.16e-05 < 0.01
Simulation CPU 0 panic: IPC 0.003754 < 0.01
Simulation CPU 0 panic: IPC 0.0004161 < 0.01
Simulation CPU 0 panic: IPC 0.0033566 < 0.01
Simulation CPU 0 panic: IPC 0.0002445 < 0.01
Simulation CPU 0 panic: IPC 0.0002447 < 0.01
Simulation CPU 0 panic: IPC 0.0002405 < 0.01
Simulation CPU 0 panic: IPC 0.0002343 < 0.01
Simulation CPU 0 panic: IPC 0.0002301 < 0.01
Simulation CPU 0 warning: IPC 0.045435 < 0.05
Heartbeat CPU 0 instructions: 80000014 cycles: 1265668393 heartbeat IPC: 0.05022 cumulative IPC: 0.06321 (Simulation time: 01 hr 54 min 18 sec)
Heartbeat CPU 0 instructions: 90000016 cycles: 1280980558 heartbeat IPC: 0.6531 cumulative IPC: 0.07026 (Simulation time: 01 hr 55 min 45 sec)
Simulation CPU 0 panic: IPC 0.0077634 < 0.01
Simulation CPU 0 panic: IPC 0.0006831 < 0.01
Heartbeat CPU 0 instructions: 100000020 cycles: 1332468384 heartbeat IPC: 0.1942 cumulative IPC: 0.07505 (Simulation time: 02 hr 00 min 19 sec)
Simulation CPU 0 critical: IPC 0.014643 < 0.02
Simulation CPU 0 critical: IPC 0.014642 < 0.02
Simulation CPU 0 warning: IPC 0.024537 < 0.05
Simulation CPU 0 panic: IPC 0.0003929 < 0.01
[ERROR_CYCLE] Error added at CPU cycle 1410648031, interval 2, pending count: 1
[DRAM_CYCLE_ERROR] Cycle-based error applied! address=0x537ca2a58 additional_latency=2459910500 cycles
Simulation CPU 0 panic: IPC 0 < 0.01
Heartbeat CPU 0 instructions: 110000020 cycles: 1440067277 heartbeat IPC: 0.09294 cumulative IPC: 0.07639 (Simulation time: 02 hr 10 min 44 sec)
Heartbeat CPU 0 instructions: 120000021 cycles: 1482119476 heartbeat IPC: 0.2378 cumulative IPC: 0.08097 (Simulation time: 02 hr 14 min 09 sec)
Simulation CPU 0 critical: IPC 0.011778 < 0.02
Simulation CPU 0 warning: IPC 0.022124 < 0.05
Heartbeat CPU 0 instructions: 130000024 cycles: 1533121083 heartbeat IPC: 0.1961 cumulative IPC: 0.08479 (Simulation time: 02 hr 17 min 40 sec)
Simulation CPU 0 critical: IPC 0.012534 < 0.02
Heartbeat CPU 0 instructions: 140000028 cycles: 1564848738 heartbeat IPC: 0.3152 cumulative IPC: 0.08947 (Simulation time: 02 hr 20 min 06 sec)
Heartbeat CPU 0 instructions: 150000030 cycles: 1569303339 heartbeat IPC: 2.245 cumulative IPC: 0.09558 (Simulation time: 02 hr 20 min 36 sec)
Simulation CPU 0 critical: IPC 0.012398 < 0.02
Heartbeat CPU 0 instructions: 160000030 cycles: 1591991084 heartbeat IPC: 0.4408 cumulative IPC: 0.1005 (Simulation time: 02 hr 22 min 46 sec)
Simulation CPU 0 panic: IPC 0.0002463 < 0.01
Simulation CPU 0 panic: IPC 0.0002463 < 0.01
Simulation CPU 0 critical: IPC 0.017864 < 0.02
Heartbeat CPU 0 instructions: 170000030 cycles: 1642981307 heartbeat IPC: 0.1961 cumulative IPC: 0.1035 (Simulation time: 02 hr 27 min 26 sec)
Heartbeat CPU 0 instructions: 180000031 cycles: 1667478098 heartbeat IPC: 0.4082 cumulative IPC: 0.1079 (Simulation time: 02 hr 29 min 55 sec)
Heartbeat CPU 0 instructions: 190000031 cycles: 1673453364 heartbeat IPC: 1.674 cumulative IPC: 0.1135 (Simulation time: 02 hr 30 min 38 sec)
Heartbeat CPU 0 instructions: 200000032 cycles: 1679448102 heartbeat IPC: 1.668 cumulative IPC: 0.1191 (Simulation time: 02 hr 31 min 14 sec)
Heartbeat CPU 0 instructions: 210000032 cycles: 1694672218 heartbeat IPC: 0.6569 cumulative IPC: 0.1239 (Simulation time: 02 hr 32 min 40 sec)
Heartbeat CPU 0 instructions: 220000032 cycles: 1700646330 heartbeat IPC: 1.674 cumulative IPC: 0.1294 (Simulation time: 02 hr 33 min 32 sec)
Heartbeat CPU 0 instructions: 230000035 cycles: 1706591987 heartbeat IPC: 1.682 cumulative IPC: 0.1348 (Simulation time: 02 hr 34 min 13 sec)
Heartbeat CPU 0 instructions: 240000036 cycles: 1712495592 heartbeat IPC: 1.694 cumulative IPC: 0.1401 (Simulation time: 02 hr 35 min 00 sec)
Heartbeat CPU 0 instructions: 250000039 cycles: 1736655843 heartbeat IPC: 0.4139 cumulative IPC: 0.144 (Simulation time: 02 hr 37 min 29 sec)
Heartbeat CPU 0 instructions: 260000043 cycles: 1761178783 heartbeat IPC: 0.4078 cumulative IPC: 0.1476 (Simulation time: 02 hr 40 min 05 sec)
Heartbeat CPU 0 instructions: 270000044 cycles: 1776380243 heartbeat IPC: 0.6578 cumulative IPC: 0.152 (Simulation time: 02 hr 41 min 55 sec)
Heartbeat CPU 0 instructions: 280000046 cycles: 1791367663 heartbeat IPC: 0.6672 cumulative IPC: 0.1563 (Simulation time: 02 hr 43 min 38 sec)
Simulation CPU 0 warning: IPC 0.023305 < 0.05
Simulation CPU 0 panic: IPC 0.004895 < 0.01
Heartbeat CPU 0 instructions: 290000050 cycles: 1843115497 heartbeat IPC: 0.1932 cumulative IPC: 0.1573 (Simulation time: 02 hr 48 min 58 sec)
Heartbeat CPU 0 instructions: 300000050 cycles: 1857592294 heartbeat IPC: 0.6908 cumulative IPC: 0.1615 (Simulation time: 02 hr 50 min 36 sec)
Heartbeat CPU 0 instructions: 310000051 cycles: 1862634921 heartbeat IPC: 1.983 cumulative IPC: 0.1664 (Simulation time: 02 hr 51 min 19 sec)
Heartbeat CPU 0 instructions: 320000051 cycles: 1866891172 heartbeat IPC: 2.349 cumulative IPC: 0.1714 (Simulation time: 02 hr 51 min 58 sec)
Heartbeat CPU 0 instructions: 330000055 cycles: 1872306127 heartbeat IPC: 1.847 cumulative IPC: 0.1763 (Simulation time: 02 hr 52 min 38 sec)
Simulation CPU 0 critical: IPC 0.0124 < 0.02
Heartbeat CPU 0 instructions: 340000056 cycles: 1895396156 heartbeat IPC: 0.4331 cumulative IPC: 0.1794 (Simulation time: 02 hr 54 min 43 sec)
Heartbeat CPU 0 instructions: 350000056 cycles: 1900178184 heartbeat IPC: 2.091 cumulative IPC: 0.1842 (Simulation time: 02 hr 55 min 10 sec)
Heartbeat CPU 0 instructions: 360000058 cycles: 1915454200 heartbeat IPC: 0.6546 cumulative IPC: 0.1879 (Simulation time: 02 hr 56 min 30 sec)
Heartbeat CPU 0 instructions: 370000059 cycles: 1921579915 heartbeat IPC: 1.632 cumulative IPC: 0.1925 (Simulation time: 02 hr 57 min 06 sec)
Heartbeat CPU 0 instructions: 380000059 cycles: 1927714163 heartbeat IPC: 1.63 cumulative IPC: 0.1971 (Simulation time: 02 hr 57 min 52 sec)
Heartbeat CPU 0 instructions: 390000059 cycles: 1933882745 heartbeat IPC: 1.621 cumulative IPC: 0.2017 (Simulation time: 02 hr 58 min 43 sec)
Heartbeat CPU 0 instructions: 400000059 cycles: 1940016703 heartbeat IPC: 1.63 cumulative IPC: 0.2062 (Simulation time: 02 hr 59 min 24 sec)
Heartbeat CPU 0 instructions: 410000063 cycles: 1955361545 heartbeat IPC: 0.6517 cumulative IPC: 0.2097 (Simulation time: 03 hr 00 min 53 sec)
Heartbeat CPU 0 instructions: 420000063 cycles: 1970612818 heartbeat IPC: 0.6557 cumulative IPC: 0.2131 (Simulation time: 03 hr 02 min 18 sec)
Heartbeat CPU 0 instructions: 430000065 cycles: 1976477526 heartbeat IPC: 1.705 cumulative IPC: 0.2176 (Simulation time: 03 hr 03 min 11 sec)
Simulation CPU 0 panic: IPC 0.0002104 < 0.01
Simulation CPU 0 panic: IPC 0.0001003 < 0.01
Simulation CPU 0 panic: IPC 0.006545 < 0.01
Heartbeat CPU 0 instructions: 440000065 cycles: 2037196712 heartbeat IPC: 0.1647 cumulative IPC: 0.216 (Simulation time: 03 hr 09 min 15 sec)
Heartbeat CPU 0 instructions: 450000066 cycles: 2053301202 heartbeat IPC: 0.6209 cumulative IPC: 0.2192 (Simulation time: 03 hr 11 min 02 sec)
Heartbeat CPU 0 instructions: 460000069 cycles: 2058566233 heartbeat IPC: 1.899 cumulative IPC: 0.2235 (Simulation time: 03 hr 11 min 42 sec)
Simulation CPU 0 warning: IPC 0.035267 < 0.05
Heartbeat CPU 0 instructions: 470000072 cycles: 2101334873 heartbeat IPC: 0.2338 cumulative IPC: 0.2237 (Simulation time: 03 hr 15 min 57 sec)
[ERROR_CYCLE] Error added at CPU cycle 2115972045, interval 3, pending count: 1
[DRAM_CYCLE_ERROR] Cycle-based error applied! address=0x537cd7b70 additional_latency=2459910500 cycles
Simulation CPU 0 panic: IPC 0 < 0.01
Heartbeat CPU 0 instructions: 480000072 cycles: 2135008228 heartbeat IPC: 0.297 cumulative IPC: 0.2248 (Simulation time: 03 hr 18 min 42 sec)
Heartbeat CPU 0 instructions: 490000072 cycles: 2139767339 heartbeat IPC: 2.101 cumulative IPC: 0.229 (Simulation time: 03 hr 19 min 09 sec)
Simulation CPU 0 critical: IPC 0.012516 < 0.02
Heartbeat CPU 0 instructions: 500000075 cycles: 2162873664 heartbeat IPC: 0.4328 cumulative IPC: 0.2312 (Simulation time: 03 hr 20 min 53 sec)
Heartbeat CPU 0 instructions: 510000076 cycles: 2167483635 heartbeat IPC: 2.169 cumulative IPC: 0.2353 (Simulation time: 03 hr 21 min 25 sec)
Simulation CPU 0 critical: IPC 0.0124 < 0.02
Heartbeat CPU 0 instructions: 520000078 cycles: 2191378257 heartbeat IPC: 0.4185 cumulative IPC: 0.2373 (Simulation time: 03 hr 24 min 02 sec)
Heartbeat CPU 0 instructions: 530000079 cycles: 2195761230 heartbeat IPC: 2.282 cumulative IPC: 0.2414 (Simulation time: 03 hr 24 min 27 sec)
Heartbeat CPU 0 instructions: 540000079 cycles: 2210801055 heartbeat IPC: 0.6649 cumulative IPC: 0.2443 (Simulation time: 03 hr 25 min 43 sec)
Heartbeat CPU 0 instructions: 550000079 cycles: 2216796165 heartbeat IPC: 1.668 cumulative IPC: 0.2481 (Simulation time: 03 hr 26 min 20 sec)
Heartbeat CPU 0 instructions: 560000081 cycles: 2232071867 heartbeat IPC: 0.6546 cumulative IPC: 0.2509 (Simulation time: 03 hr 27 min 43 sec)
Heartbeat CPU 0 instructions: 570000084 cycles: 2238115971 heartbeat IPC: 1.655 cumulative IPC: 0.2547 (Simulation time: 03 hr 28 min 37 sec)
Heartbeat CPU 0 instructions: 580000084 cycles: 2253392479 heartbeat IPC: 0.6546 cumulative IPC: 0.2574 (Simulation time: 03 hr 30 min 28 sec)
Heartbeat CPU 0 instructions: 590000084 cycles: 2268646767 heartbeat IPC: 0.6556 cumulative IPC: 0.2601 (Simulation time: 03 hr 32 min 18 sec)
Heartbeat CPU 0 instructions: 600000087 cycles: 2274610444 heartbeat IPC: 1.677 cumulative IPC: 0.2638 (Simulation time: 03 hr 33 min 10 sec)
Heartbeat CPU 0 instructions: 610000090 cycles: 2280628725 heartbeat IPC: 1.662 cumulative IPC: 0.2675 (Simulation time: 03 hr 34 min 03 sec)
Heartbeat CPU 0 instructions: 620000094 cycles: 2294586050 heartbeat IPC: 0.7165 cumulative IPC: 0.2702 (Simulation time: 03 hr 35 min 47 sec)
Heartbeat CPU 0 instructions: 630000096 cycles: 2320799700 heartbeat IPC: 0.3815 cumulative IPC: 0.2715 (Simulation time: 03 hr 38 min 28 sec)
Heartbeat CPU 0 instructions: 640000096 cycles: 2326619603 heartbeat IPC: 1.718 cumulative IPC: 0.2751 (Simulation time: 03 hr 39 min 18 sec)
Heartbeat CPU 0 instructions: 650000097 cycles: 2341530775 heartbeat IPC: 0.6706 cumulative IPC: 0.2776 (Simulation time: 03 hr 40 min 29 sec)
Heartbeat CPU 0 instructions: 660000097 cycles: 2365585798 heartbeat IPC: 0.4157 cumulative IPC: 0.279 (Simulation time: 03 hr 42 min 42 sec)
Heartbeat CPU 0 instructions: 670000097 cycles: 2379402408 heartbeat IPC: 0.7238 cumulative IPC: 0.2816 (Simulation time: 03 hr 44 min 14 sec)
Heartbeat CPU 0 instructions: 680000098 cycles: 2430937382 heartbeat IPC: 0.194 cumulative IPC: 0.2797 (Simulation time: 03 hr 48 min 31 sec)
Heartbeat CPU 0 instructions: 690000101 cycles: 2434517508 heartbeat IPC: 2.793 cumulative IPC: 0.2834 (Simulation time: 03 hr 48 min 51 sec)
Heartbeat CPU 0 instructions: 700000105 cycles: 2440739742 heartbeat IPC: 1.607 cumulative IPC: 0.2868 (Simulation time: 03 hr 49 min 24 sec)
Heartbeat CPU 0 instructions: 710000108 cycles: 2454684965 heartbeat IPC: 0.7171 cumulative IPC: 0.2892 (Simulation time: 03 hr 50 min 52 sec)
Heartbeat CPU 0 instructions: 720000109 cycles: 2469204768 heartbeat IPC: 0.6887 cumulative IPC: 0.2916 (Simulation time: 03 hr 52 min 32 sec)
Heartbeat CPU 0 instructions: 730000110 cycles: 2484787085 heartbeat IPC: 0.6418 cumulative IPC: 0.2938 (Simulation time: 03 hr 54 min 28 sec)
Heartbeat CPU 0 instructions: 740000114 cycles: 2490798970 heartbeat IPC: 1.663 cumulative IPC: 0.2971 (Simulation time: 03 hr 55 min 13 sec)
Heartbeat CPU 0 instructions: 750000117 cycles: 2496851862 heartbeat IPC: 1.652 cumulative IPC: 0.3004 (Simulation time: 03 hr 56 min 06 sec)
Heartbeat CPU 0 instructions: 760000118 cycles: 2512128781 heartbeat IPC: 0.6546 cumulative IPC: 0.3025 (Simulation time: 03 hr 57 min 49 sec)
Heartbeat CPU 0 instructions: 770000118 cycles: 2526663283 heartbeat IPC: 0.688 cumulative IPC: 0.3047 (Simulation time: 03 hr 59 min 28 sec)
Heartbeat CPU 0 instructions: 780000119 cycles: 2542041788 heartbeat IPC: 0.6503 cumulative IPC: 0.3068 (Simulation time: 04 hr 01 min 10 sec)
Heartbeat CPU 0 instructions: 790000122 cycles: 2557415551 heartbeat IPC: 0.6505 cumulative IPC: 0.3089 (Simulation time: 04 hr 02 min 56 sec)
Heartbeat CPU 0 instructions: 800000126 cycles: 2562698851 heartbeat IPC: 1.893 cumulative IPC: 0.3122 (Simulation time: 04 hr 03 min 44 sec)
Heartbeat CPU 0 instructions: 810000126 cycles: 2606606623 heartbeat IPC: 0.2278 cumulative IPC: 0.3107 (Simulation time: 04 hr 07 min 53 sec)
Heartbeat CPU 0 instructions: 820000127 cycles: 2612489797 heartbeat IPC: 1.7 cumulative IPC: 0.3139 (Simulation time: 04 hr 08 min 30 sec)
Heartbeat CPU 0 instructions: 830000129 cycles: 2627226993 heartbeat IPC: 0.6786 cumulative IPC: 0.3159 (Simulation time: 04 hr 09 min 56 sec)
Simulation CPU 0 warning: IPC 0.039497 < 0.05
Heartbeat CPU 0 instructions: 840000130 cycles: 2678493013 heartbeat IPC: 0.1951 cumulative IPC: 0.3136 (Simulation time: 04 hr 14 min 49 sec)
Heartbeat CPU 0 instructions: 850000134 cycles: 2692999915 heartbeat IPC: 0.6893 cumulative IPC: 0.3156 (Simulation time: 04 hr 16 min 35 sec)
Heartbeat CPU 0 instructions: 860000134 cycles: 2698189820 heartbeat IPC: 1.927 cumulative IPC: 0.3187 (Simulation time: 04 hr 17 min 21 sec)
Simulation CPU 0 critical: IPC 0.012519 < 0.02
Heartbeat CPU 0 instructions: 870000135 cycles: 2720837969 heartbeat IPC: 0.4415 cumulative IPC: 0.3198 (Simulation time: 04 hr 19 min 34 sec)
Heartbeat CPU 0 instructions: 880000136 cycles: 2726841323 heartbeat IPC: 1.666 cumulative IPC: 0.3227 (Simulation time: 04 hr 20 min 23 sec)
Heartbeat CPU 0 instructions: 890000138 cycles: 2741013239 heartbeat IPC: 0.7056 cumulative IPC: 0.3247 (Simulation time: 04 hr 22 min 03 sec)
Heartbeat CPU 0 instructions: 900000140 cycles: 2745787082 heartbeat IPC: 2.095 cumulative IPC: 0.3278 (Simulation time: 04 hr 22 min 45 sec)
Heartbeat CPU 0 instructions: 910000140 cycles: 2761038435 heartbeat IPC: 0.6557 cumulative IPC: 0.3296 (Simulation time: 04 hr 24 min 31 sec)
Heartbeat CPU 0 instructions: 920000142 cycles: 2767026117 heartbeat IPC: 1.67 cumulative IPC: 0.3325 (Simulation time: 04 hr 25 min 15 sec)
Heartbeat CPU 0 instructions: 930000142 cycles: 2782287576 heartbeat IPC: 0.6552 cumulative IPC: 0.3343 (Simulation time: 04 hr 27 min 00 sec)
Heartbeat CPU 0 instructions: 940000143 cycles: 2788281594 heartbeat IPC: 1.668 cumulative IPC: 0.3371 (Simulation time: 04 hr 27 min 50 sec)
Heartbeat CPU 0 instructions: 950000144 cycles: 2803482160 heartbeat IPC: 0.6579 cumulative IPC: 0.3389 (Simulation time: 04 hr 29 min 16 sec)
Heartbeat CPU 0 instructions: 960000147 cycles: 2809432654 heartbeat IPC: 1.681 cumulative IPC: 0.3417 (Simulation time: 04 hr 29 min 59 sec)
Heartbeat CPU 0 instructions: 970000147 cycles: 2815507790 heartbeat IPC: 1.646 cumulative IPC: 0.3445 (Simulation time: 04 hr 30 min 51 sec)
[ERROR_CYCLE] Error added at CPU cycle 2821296060, interval 4, pending count: 1
[DRAM_CYCLE_ERROR] Cycle-based error applied! address=0xd0a05520 additional_latency=2459910500 cycles
Simulation CPU 0 panic: IPC 0 < 0.01
Heartbeat CPU 0 instructions: 980000148 cycles: 2840683149 heartbeat IPC: 0.3972 cumulative IPC: 0.345 (Simulation time: 04 hr 33 min 01 sec)
Heartbeat CPU 0 instructions: 990000149 cycles: 2864254491 heartbeat IPC: 0.4242 cumulative IPC: 0.3456 (Simulation time: 04 hr 35 min 26 sec)
Heartbeat CPU 0 instructions: 1000000149 cycles: 2871410047 heartbeat IPC: 1.398 cumulative IPC: 0.3483 (Simulation time: 04 hr 36 min 14 sec)
Heartbeat CPU 0 instructions: 1010000149 cycles: 2876866110 heartbeat IPC: 1.833 cumulative IPC: 0.3511 (Simulation time: 04 hr 36 min 50 sec)
Heartbeat CPU 0 instructions: 1020000153 cycles: 2891879354 heartbeat IPC: 0.6661 cumulative IPC: 0.3527 (Simulation time: 04 hr 38 min 11 sec)
Heartbeat CPU 0 instructions: 1030000157 cycles: 2943522589 heartbeat IPC: 0.1936 cumulative IPC: 0.3499 (Simulation time: 04 hr 43 min 19 sec)
Heartbeat CPU 0 instructions: 1040000157 cycles: 2957649277 heartbeat IPC: 0.7079 cumulative IPC: 0.3516 (Simulation time: 04 hr 44 min 56 sec)
Simulation CPU 0 warning: IPC 0.021947 < 0.05
Simulation CPU 0 critical: IPC 0.012568 < 0.02
Heartbeat CPU 0 instructions: 1050000158 cycles: 3008722285 heartbeat IPC: 0.1958 cumulative IPC: 0.349 (Simulation time: 04 hr 49 min 16 sec)
Heartbeat CPU 0 instructions: 1060000158 cycles: 3013265370 heartbeat IPC: 2.201 cumulative IPC: 0.3518 (Simulation time: 04 hr 49 min 40 sec)
Simulation CPU 0 critical: IPC 0.012394 < 0.02
Heartbeat CPU 0 instructions: 1070000161 cycles: 3037947715 heartbeat IPC: 0.4051 cumulative IPC: 0.3522 (Simulation time: 04 hr 51 min 32 sec)
Heartbeat CPU 0 instructions: 1080000163 cycles: 3042317282 heartbeat IPC: 2.289 cumulative IPC: 0.355 (Simulation time: 04 hr 51 min 57 sec)
Heartbeat CPU 0 instructions: 1090000166 cycles: 3057154547 heartbeat IPC: 0.674 cumulative IPC: 0.3565 (Simulation time: 04 hr 53 min 20 sec)
Heartbeat CPU 0 instructions: 1100000168 cycles: 3072516347 heartbeat IPC: 0.651 cumulative IPC: 0.358 (Simulation time: 04 hr 54 min 38 sec)
Heartbeat CPU 0 instructions: 1110000169 cycles: 3078495332 heartbeat IPC: 1.673 cumulative IPC: 0.3606 (Simulation time: 04 hr 55 min 20 sec)
Heartbeat CPU 0 instructions: 1120000172 cycles: 3084488268 heartbeat IPC: 1.669 cumulative IPC: 0.3631 (Simulation time: 04 hr 55 min 58 sec)
Heartbeat CPU 0 instructions: 1130000174 cycles: 3090508208 heartbeat IPC: 1.661 cumulative IPC: 0.3656 (Simulation time: 04 hr 56 min 41 sec)
Heartbeat CPU 0 instructions: 1140000174 cycles: 3096494541 heartbeat IPC: 1.67 cumulative IPC: 0.3682 (Simulation time: 04 hr 57 min 31 sec)
Heartbeat CPU 0 instructions: 1150000174 cycles: 3111724673 heartbeat IPC: 0.6566 cumulative IPC: 0.3696 (Simulation time: 04 hr 59 min 28 sec)
Heartbeat CPU 0 instructions: 1160000174 cycles: 3117862845 heartbeat IPC: 1.629 cumulative IPC: 0.372 (Simulation time: 05 hr 00 min 23 sec)
Heartbeat CPU 0 instructions: 1170000177 cycles: 3132029407 heartbeat IPC: 0.7059 cumulative IPC: 0.3736 (Simulation time: 05 hr 02 min 05 sec)
Heartbeat CPU 0 instructions: 1180000177 cycles: 3176380117 heartbeat IPC: 0.2255 cumulative IPC: 0.3715 (Simulation time: 05 hr 06 min 48 sec)
Heartbeat CPU 0 instructions: 1190000178 cycles: 3182315510 heartbeat IPC: 1.685 cumulative IPC: 0.3739 (Simulation time: 05 hr 07 min 37 sec)
Heartbeat CPU 0 instructions: 1200000181 cycles: 3215768676 heartbeat IPC: 0.2989 cumulative IPC: 0.3732 (Simulation time: 05 hr 10 min 41 sec)
Heartbeat CPU 0 instructions: 1210000185 cycles: 3248298846 heartbeat IPC: 0.3074 cumulative IPC: 0.3725 (Simulation time: 05 hr 13 min 44 sec)
Heartbeat CPU 0 instructions: 1220000187 cycles: 3253482765 heartbeat IPC: 1.929 cumulative IPC: 0.375 (Simulation time: 05 hr 14 min 28 sec)
Heartbeat CPU 0 instructions: 1230000190 cycles: 3259098895 heartbeat IPC: 1.781 cumulative IPC: 0.3774 (Simulation time: 05 hr 15 min 18 sec)
Heartbeat CPU 0 instructions: 1240000191 cycles: 3262381613 heartbeat IPC: 3.046 cumulative IPC: 0.3801 (Simulation time: 05 hr 15 min 42 sec)
Heartbeat CPU 0 instructions: 1250000194 cycles: 3268989616 heartbeat IPC: 1.513 cumulative IPC: 0.3824 (Simulation time: 05 hr 16 min 16 sec)
Simulation CPU 0 warning: IPC 0.044725 < 0.05
Heartbeat CPU 0 instructions: 1260000194 cycles: 3292019931 heartbeat IPC: 0.4342 cumulative IPC: 0.3827 (Simulation time: 05 hr 18 min 39 sec)
Heartbeat CPU 0 instructions: 1270000194 cycles: 3306381998 heartbeat IPC: 0.6963 cumulative IPC: 0.3841 (Simulation time: 05 hr 20 min 18 sec)
Heartbeat CPU 0 instructions: 1280000194 cycles: 3321780515 heartbeat IPC: 0.6494 cumulative IPC: 0.3853 (Simulation time: 05 hr 22 min 14 sec)
Heartbeat CPU 0 instructions: 1290000194 cycles: 3327754006 heartbeat IPC: 1.674 cumulative IPC: 0.3876 (Simulation time: 05 hr 23 min 04 sec)
Heartbeat CPU 0 instructions: 1300000198 cycles: 3342983756 heartbeat IPC: 0.6566 cumulative IPC: 0.3889 (Simulation time: 05 hr 24 min 35 sec)
Heartbeat CPU 0 instructions: 1310000200 cycles: 3348947296 heartbeat IPC: 1.677 cumulative IPC: 0.3912 (Simulation time: 05 hr 25 min 28 sec)
Heartbeat CPU 0 instructions: 1320000203 cycles: 3354883953 heartbeat IPC: 1.684 cumulative IPC: 0.3935 (Simulation time: 05 hr 26 min 21 sec)
Heartbeat CPU 0 instructions: 1330000206 cycles: 3370052495 heartbeat IPC: 0.6593 cumulative IPC: 0.3947 (Simulation time: 05 hr 28 min 05 sec)
Heartbeat CPU 0 instructions: 1340000206 cycles: 3376223420 heartbeat IPC: 1.621 cumulative IPC: 0.3969 (Simulation time: 05 hr 28 min 59 sec)
Heartbeat CPU 0 instructions: 1350000209 cycles: 3400482753 heartbeat IPC: 0.4122 cumulative IPC: 0.397 (Simulation time: 05 hr 31 min 35 sec)
Simulation CPU 0 panic: IPC 0.0086739 < 0.01
Simulation CPU 0 panic: IPC 0.0063234 < 0.01
Heartbeat CPU 0 instructions: 1360000212 cycles: 3453253242 heartbeat IPC: 0.1895 cumulative IPC: 0.3938 (Simulation time: 05 hr 37 min 18 sec)
Heartbeat CPU 0 instructions: 1370000214 cycles: 3459137920 heartbeat IPC: 1.699 cumulative IPC: 0.3961 (Simulation time: 05 hr 38 min 08 sec)
Heartbeat CPU 0 instructions: 1380000218 cycles: 3474070103 heartbeat IPC: 0.6697 cumulative IPC: 0.3972 (Simulation time: 05 hr 39 min 55 sec)
Simulation CPU 0 panic: IPC 0.0081606 < 0.01
Heartbeat CPU 0 instructions: 1390000221 cycles: 3516347255 heartbeat IPC: 0.2365 cumulative IPC: 0.3953 (Simulation time: 05 hr 44 min 14 sec)
[ERROR_CYCLE] Error added at CPU cycle 3526620075, interval 5, pending count: 1
[DRAM_CYCLE_ERROR] Cycle-based error applied! address=0x22ba00000 additional_latency=2459910500 cycles
Simulation CPU 0 panic: IPC 0.0005323 < 0.01
Heartbeat CPU 0 instructions: 1400000221 cycles: 3540761941 heartbeat IPC: 0.4096 cumulative IPC: 0.3954 (Simulation time: 05 hr 47 min 17 sec)
Heartbeat CPU 0 instructions: 1410000223 cycles: 3546049618 heartbeat IPC: 1.891 cumulative IPC: 0.3976 (Simulation time: 05 hr 48 min 03 sec)
Simulation CPU 0 critical: IPC 0.012532 < 0.02
Heartbeat CPU 0 instructions: 1420000225 cycles: 3568711556 heartbeat IPC: 0.4413 cumulative IPC: 0.3979 (Simulation time: 05 hr 50 min 20 sec)
Heartbeat CPU 0 instructions: 1430000226 cycles: 3574737272 heartbeat IPC: 1.66 cumulative IPC: 0.4 (Simulation time: 05 hr 51 min 08 sec)
Simulation CPU 0 critical: IPC 0.012398 < 0.02
Heartbeat CPU 0 instructions: 1440000227 cycles: 3598292001 heartbeat IPC: 0.4245 cumulative IPC: 0.4002 (Simulation time: 05 hr 53 min 46 sec)
Heartbeat CPU 0 instructions: 1450000231 cycles: 3603074948 heartbeat IPC: 2.091 cumulative IPC: 0.4024 (Simulation time: 05 hr 54 min 28 sec)
Heartbeat CPU 0 instructions: 1460000235 cycles: 3618408538 heartbeat IPC: 0.6522 cumulative IPC: 0.4035 (Simulation time: 05 hr 56 min 22 sec)
Heartbeat CPU 0 instructions: 1470000235 cycles: 3624478196 heartbeat IPC: 1.648 cumulative IPC: 0.4056 (Simulation time: 05 hr 57 min 17 sec)
Heartbeat CPU 0 instructions: 1480000239 cycles: 3639818281 heartbeat IPC: 0.6519 cumulative IPC: 0.4066 (Simulation time: 05 hr 59 min 09 sec)
Heartbeat CPU 0 instructions: 1490000239 cycles: 3645901962 heartbeat IPC: 1.644 cumulative IPC: 0.4087 (Simulation time: 06 hr 00 min 04 sec)
Heartbeat CPU 0 instructions: 1500000241 cycles: 3661175988 heartbeat IPC: 0.6547 cumulative IPC: 0.4097 (Simulation time: 06 hr 01 min 49 sec)
Heartbeat CPU 0 instructions: 1510000242 cycles: 3667266929 heartbeat IPC: 1.642 cumulative IPC: 0.4118 (Simulation time: 06 hr 02 min 44 sec)
Heartbeat CPU 0 instructions: 1520000242 cycles: 3682699304 heartbeat IPC: 0.648 cumulative IPC: 0.4127 (Simulation time: 06 hr 04 min 36 sec)
Heartbeat CPU 0 instructions: 1530000242 cycles: 3688878427 heartbeat IPC: 1.618 cumulative IPC: 0.4148 (Simulation time: 06 hr 05 min 31 sec)
Heartbeat CPU 0 instructions: 1540000242 cycles: 3703253933 heartbeat IPC: 0.6956 cumulative IPC: 0.4159 (Simulation time: 06 hr 07 min 20 sec)
Heartbeat CPU 0 instructions: 1550000243 cycles: 3719312598 heartbeat IPC: 0.6227 cumulative IPC: 0.4167 (Simulation time: 06 hr 09 min 19 sec)
Heartbeat CPU 0 instructions: 1560000244 cycles: 3725095522 heartbeat IPC: 1.729 cumulative IPC: 0.4188 (Simulation time: 06 hr 10 min 10 sec)
Simulation CPU 0 warning: IPC 0.035974 < 0.05
Heartbeat CPU 0 instructions: 1570000244 cycles: 3749427089 heartbeat IPC: 0.411 cumulative IPC: 0.4187 (Simulation time: 06 hr 12 min 48 sec)
Heartbeat CPU 0 instructions: 1580000244 cycles: 3773421178 heartbeat IPC: 0.4168 cumulative IPC: 0.4187 (Simulation time: 06 hr 15 min 42 sec)
Heartbeat CPU 0 instructions: 1590000245 cycles: 3787333467 heartbeat IPC: 0.7188 cumulative IPC: 0.4198 (Simulation time: 06 hr 17 min 11 sec)
Simulation CPU 0 warning: IPC 0.023814 < 0.05
Simulation CPU 0 critical: IPC 0.012525 < 0.02
Heartbeat CPU 0 instructions: 1600000248 cycles: 3838670550 heartbeat IPC: 0.1948 cumulative IPC: 0.4168 (Simulation time: 06 hr 22 min 22 sec)
Heartbeat CPU 0 instructions: 1610000250 cycles: 3842691163 heartbeat IPC: 2.487 cumulative IPC: 0.419 (Simulation time: 06 hr 22 min 57 sec)
Heartbeat CPU 0 instructions: 1620000252 cycles: 3848971358 heartbeat IPC: 1.592 cumulative IPC: 0.4209 (Simulation time: 06 hr 23 min 47 sec)
Heartbeat CPU 0 instructions: 1630000256 cycles: 3862796333 heartbeat IPC: 0.7233 cumulative IPC: 0.422 (Simulation time: 06 hr 25 min 19 sec)
Heartbeat CPU 0 instructions: 1640000257 cycles: 3868150798 heartbeat IPC: 1.868 cumulative IPC: 0.424 (Simulation time: 06 hr 26 min 05 sec)
Heartbeat CPU 0 instructions: 1650000257 cycles: 3874482209 heartbeat IPC: 1.579 cumulative IPC: 0.4259 (Simulation time: 06 hr 27 min 02 sec)
Heartbeat CPU 0 instructions: 1660000257 cycles: 3880520651 heartbeat IPC: 1.656 cumulative IPC: 0.4278 (Simulation time: 06 hr 27 min 57 sec)
Heartbeat CPU 0 instructions: 1670000259 cycles: 3886559058 heartbeat IPC: 1.656 cumulative IPC: 0.4297 (Simulation time: 06 hr 28 min 51 sec)
Heartbeat CPU 0 instructions: 1680000262 cycles: 3911087267 heartbeat IPC: 0.4077 cumulative IPC: 0.4295 (Simulation time: 06 hr 31 min 36 sec)
Heartbeat CPU 0 instructions: 1690000262 cycles: 3917144686 heartbeat IPC: 1.651 cumulative IPC: 0.4314 (Simulation time: 06 hr 32 min 31 sec)
Heartbeat CPU 0 instructions: 1700000262 cycles: 3923194219 heartbeat IPC: 1.653 cumulative IPC: 0.4333 (Simulation time: 06 hr 33 min 25 sec)
Heartbeat CPU 0 instructions: 1710000264 cycles: 3929418003 heartbeat IPC: 1.607 cumulative IPC: 0.4352 (Simulation time: 06 hr 34 min 20 sec)
Heartbeat CPU 0 instructions: 1720000264 cycles: 3943788773 heartbeat IPC: 0.6959 cumulative IPC: 0.4361 (Simulation time: 06 hr 35 min 45 sec)
Heartbeat CPU 0 instructions: 1730000264 cycles: 3978701545 heartbeat IPC: 0.2864 cumulative IPC: 0.4348 (Simulation time: 06 hr 38 min 25 sec)
Heartbeat CPU 0 instructions: 1740000266 cycles: 3984562476 heartbeat IPC: 1.706 cumulative IPC: 0.4367 (Simulation time: 06 hr 39 min 07 sec)
Simulation CPU 0 panic: IPC 0.0087288 < 0.01
Heartbeat CPU 0 instructions: 1750000270 cycles: 4027412517 heartbeat IPC: 0.2334 cumulative IPC: 0.4345 (Simulation time: 06 hr 43 min 24 sec)
Simulation CPU 0 panic: IPC 0.0090653 < 0.01
Heartbeat CPU 0 instructions: 1760000272 cycles: 4069544092 heartbeat IPC: 0.2374 cumulative IPC: 0.4325 (Simulation time: 06 hr 47 min 41 sec)
Heartbeat CPU 0 instructions: 1770000276 cycles: 4074569264 heartbeat IPC: 1.99 cumulative IPC: 0.4344 (Simulation time: 06 hr 48 min 25 sec)
Simulation CPU 0 critical: IPC 0.012578 < 0.02
Heartbeat CPU 0 instructions: 1780000278 cycles: 4098648493 heartbeat IPC: 0.4153 cumulative IPC: 0.4343 (Simulation time: 06 hr 50 min 48 sec)
Heartbeat CPU 0 instructions: 1790000278 cycles: 4101859445 heartbeat IPC: 3.114 cumulative IPC: 0.4364 (Simulation time: 06 hr 51 min 16 sec)
Heartbeat CPU 0 instructions: 1800000279 cycles: 4108689460 heartbeat IPC: 1.464 cumulative IPC: 0.4381 (Simulation time: 06 hr 52 min 07 sec)
Simulation CPU 0 critical: IPC 0.012399 < 0.02
Heartbeat CPU 0 instructions: 1810000281 cycles: 4131690785 heartbeat IPC: 0.4348 cumulative IPC: 0.4381 (Simulation time: 06 hr 54 min 18 sec)
Heartbeat CPU 0 instructions: 1820000281 cycles: 4137041035 heartbeat IPC: 1.869 cumulative IPC: 0.4399 (Simulation time: 06 hr 55 min 01 sec)
Heartbeat CPU 0 instructions: 1830000284 cycles: 4152665903 heartbeat IPC: 0.64 cumulative IPC: 0.4407 (Simulation time: 06 hr 56 min 52 sec)
Heartbeat CPU 0 instructions: 1840000284 cycles: 4158811771 heartbeat IPC: 1.627 cumulative IPC: 0.4424 (Simulation time: 06 hr 57 min 47 sec)
Heartbeat CPU 0 instructions: 1850000284 cycles: 4174155225 heartbeat IPC: 0.6517 cumulative IPC: 0.4432 (Simulation time: 06 hr 59 min 21 sec)
Heartbeat CPU 0 instructions: 1860000284 cycles: 4189520198 heartbeat IPC: 0.6508 cumulative IPC: 0.444 (Simulation time: 07 hr 00 min 53 sec)
Heartbeat CPU 0 instructions: 1870000285 cycles: 4195692363 heartbeat IPC: 1.62 cumulative IPC: 0.4457 (Simulation time: 07 hr 01 min 50 sec)
Heartbeat CPU 0 instructions: 1880000285 cycles: 4211120366 heartbeat IPC: 0.6482 cumulative IPC: 0.4464 (Simulation time: 07 hr 03 min 39 sec)
Heartbeat CPU 0 instructions: 1890000287 cycles: 4226657687 heartbeat IPC: 0.6436 cumulative IPC: 0.4472 (Simulation time: 07 hr 05 min 29 sec)
[ERROR_CYCLE] Error added at CPU cycle 4231944091, interval 6, pending count: 1
[DRAM_CYCLE_ERROR] Cycle-based error applied! address=0xd0a65ae0 additional_latency=2459910500 cycles
Simulation CPU 0 panic: IPC 0 < 0.01
Heartbeat CPU 0 instructions: 1900000288 cycles: 4251343239 heartbeat IPC: 0.4051 cumulative IPC: 0.4469 (Simulation time: 07 hr 07 min 50 sec)
Simulation CPU 0 critical: IPC 0.016554 < 0.02
Heartbeat CPU 0 instructions: 1910000292 cycles: 4286011079 heartbeat IPC: 0.2885 cumulative IPC: 0.4456 (Simulation time: 07 hr 10 min 35 sec)
Heartbeat CPU 0 instructions: 1920000295 cycles: 4291621359 heartbeat IPC: 1.782 cumulative IPC: 0.4474 (Simulation time: 07 hr 11 min 17 sec)
Heartbeat CPU 0 instructions: 1930000299 cycles: 4296816928 heartbeat IPC: 1.925 cumulative IPC: 0.4492 (Simulation time: 07 hr 11 min 58 sec)
Heartbeat CPU 0 instructions: 1940000299 cycles: 4321394434 heartbeat IPC: 0.4069 cumulative IPC: 0.4489 (Simulation time: 07 hr 14 min 43 sec)
Heartbeat CPU 0 instructions: 1950000299 cycles: 4336131900 heartbeat IPC: 0.6785 cumulative IPC: 0.4497 (Simulation time: 07 hr 16 min 40 sec)
Heartbeat CPU 0 instructions: 1960000301 cycles: 4350268252 heartbeat IPC: 0.7074 cumulative IPC: 0.4505 (Simulation time: 07 hr 18 min 09 sec)
Heartbeat CPU 0 instructions: 1970000302 cycles: 4391839070 heartbeat IPC: 0.2406 cumulative IPC: 0.4486 (Simulation time: 07 hr 21 min 17 sec)
Heartbeat CPU 0 instructions: 1980000306 cycles: 4396667245 heartbeat IPC: 2.071 cumulative IPC: 0.4503 (Simulation time: 07 hr 21 min 47 sec)
Simulation CPU 0 critical: IPC 0.012394 < 0.02
Heartbeat CPU 0 instructions: 1990000307 cycles: 4421031118 heartbeat IPC: 0.4104 cumulative IPC: 0.4501 (Simulation time: 07 hr 23 min 52 sec)

=== ERROR PAGE STATISTICS ===
Mode: CYCLE
Error Cycle Interval: 705324015 CPU cycles
Total Error Accesses: 6
==============================
Simulation finished CPU 0 instructions: 1999999926 cycles: 4425559487 cumulative IPC: 0.4519 (Simulation time: 07 hr 24 min 17 sec)
Simulation complete CPU 0 instructions: 1999999926 cycles: 4425559487 cumulative IPC: 0.4519 (Simulation time: 07 hr 24 min 17 sec)

ChampSim completed all CPUs

=== Simulation ===
CPU 0 runs test_traces/628.pop2_s-17B.champsimtrace.xz

Region of Interest Statistics

CPU 0 cumulative IPC: 0.4519 instructions: 1999999926 cycles: 4425559487
CPU 0 Branch Prediction Accuracy: 97.16% MPKI: 4.393 Average ROB Occupancy at Mispredict: 77.21
Branch type MPKI
BRANCH_DIRECT_JUMP: 0.02883
BRANCH_INDIRECT: 0.0006925
BRANCH_CONDITIONAL: 4.321
BRANCH_DIRECT_CALL: 0.0002875
BRANCH_INDIRECT_CALL: 0
BRANCH_RETURN: 0.04196

cpu0->cpu0_STLB TOTAL        ACCESS:      58788 HIT:      58426 MISS:        362 MSHR_MERGE:          0
cpu0->cpu0_STLB LOAD         ACCESS:      58788 HIT:      58426 MISS:        362 MSHR_MERGE:          0
cpu0->cpu0_STLB RFO          ACCESS:          0 HIT:          0 MISS:          0 MSHR_MERGE:          0
cpu0->cpu0_STLB PREFETCH     ACCESS:          0 HIT:          0 MISS:          0 MSHR_MERGE:          0
cpu0->cpu0_STLB WRITE        ACCESS:          0 HIT:          0 MISS:          0 MSHR_MERGE:          0
cpu0->cpu0_STLB TRANSLATION  ACCESS:          0 HIT:          0 MISS:          0 MSHR_MERGE:          0
cpu0->cpu0_STLB PREFETCH REQUESTED:          0 ISSUED:          0 USEFUL:          0 USELESS:          0
cpu0->cpu0_STLB AVERAGE MISS LATENCY: 9.478e+06 cycles
cpu0->cpu0_L2C TOTAL        ACCESS:   43523352 HIT:   30817965 MISS:   12705387 MSHR_MERGE:          0
cpu0->cpu0_L2C LOAD         ACCESS:   20308677 HIT:   11673289 MISS:    8635388 MSHR_MERGE:          0
cpu0->cpu0_L2C RFO          ACCESS:    9924916 HIT:    5862101 MISS:    4062815 MSHR_MERGE:          0
cpu0->cpu0_L2C PREFETCH     ACCESS:          0 HIT:          0 MISS:          0 MSHR_MERGE:          0
cpu0->cpu0_L2C WRITE        ACCESS:   13289759 HIT:   13282575 MISS:       7184 MSHR_MERGE:          0
cpu0->cpu0_L2C TRANSLATION  ACCESS:          0 HIT:          0 MISS:          0 MSHR_MERGE:          0
cpu0->cpu0_L2C PREFETCH REQUESTED:          0 ISSUED:          0 USEFUL:          0 USELESS:          0
cpu0->cpu0_L2C AVERAGE MISS LATENCY: 76.53 cycles
cpu0->cpu0_L1I TOTAL        ACCESS:  103667947 HIT:  101719494 MISS:    1948453 MSHR_MERGE:     957906
cpu0->cpu0_L1I LOAD         ACCESS:  103667947 HIT:  101719494 MISS:    1948453 MSHR_MERGE:     957906
cpu0->cpu0_L1I RFO          ACCESS:          0 HIT:          0 MISS:          0 MSHR_MERGE:          0
cpu0->cpu0_L1I PREFETCH     ACCESS:          0 HIT:          0 MISS:          0 MSHR_MERGE:          0
cpu0->cpu0_L1I WRITE        ACCESS:          0 HIT:          0 MISS:          0 MSHR_MERGE:          0
cpu0->cpu0_L1I TRANSLATION  ACCESS:          0 HIT:          0 MISS:          0 MSHR_MERGE:          0
cpu0->cpu0_L1I PREFETCH REQUESTED:          0 ISSUED:          0 USEFUL:          0 USELESS:          0
cpu0->cpu0_L1I AVERAGE MISS LATENCY: 27.42 cycles
cpu0->cpu0_L1D TOTAL        ACCESS:  498241301 HIT:  423483056 MISS:   74758245 MSHR_MERGE:   45514878
cpu0->cpu0_L1D LOAD         ACCESS:  364078501 HIT:  324124897 MISS:   39953604 MSHR_MERGE:   20635335
cpu0->cpu0_L1D RFO          ACCESS:          0 HIT:          0 MISS:          0 MSHR_MERGE:          0
cpu0->cpu0_L1D PREFETCH     ACCESS:          0 HIT:          0 MISS:          0 MSHR_MERGE:          0
cpu0->cpu0_L1D WRITE        ACCESS:  134162800 HIT:   99358159 MISS:   34804641 MSHR_MERGE:   24879543
cpu0->cpu0_L1D TRANSLATION  ACCESS:          0 HIT:          0 MISS:          0 MSHR_MERGE:          0
cpu0->cpu0_L1D PREFETCH REQUESTED:          0 ISSUED:          0 USEFUL:          0 USELESS:          0
cpu0->cpu0_L1D AVERAGE MISS LATENCY: 41.12 cycles
cpu0->cpu0_ITLB TOTAL        ACCESS:   86607518 HIT:   86607509 MISS:          9 MSHR_MERGE:          3
cpu0->cpu0_ITLB LOAD         ACCESS:   86607518 HIT:   86607509 MISS:          9 MSHR_MERGE:          3
cpu0->cpu0_ITLB RFO          ACCESS:          0 HIT:          0 MISS:          0 MSHR_MERGE:          0
cpu0->cpu0_ITLB PREFETCH     ACCESS:          0 HIT:          0 MISS:          0 MSHR_MERGE:          0
cpu0->cpu0_ITLB WRITE        ACCESS:          0 HIT:          0 MISS:          0 MSHR_MERGE:          0
cpu0->cpu0_ITLB TRANSLATION  ACCESS:          0 HIT:          0 MISS:          0 MSHR_MERGE:          0
cpu0->cpu0_ITLB PREFETCH REQUESTED:          0 ISSUED:          0 USEFUL:          0 USELESS:          0
cpu0->cpu0_ITLB AVERAGE MISS LATENCY: 1.078e+07 cycles
cpu0->cpu0_DTLB TOTAL        ACCESS:  432888852 HIT:  432762014 MISS:     126838 MSHR_MERGE:      68056
cpu0->cpu0_DTLB LOAD         ACCESS:  432888852 HIT:  432762014 MISS:     126838 MSHR_MERGE:      68056
cpu0->cpu0_DTLB RFO          ACCESS:          0 HIT:          0 MISS:          0 MSHR_MERGE:          0
cpu0->cpu0_DTLB PREFETCH     ACCESS:          0 HIT:          0 MISS:          0 MSHR_MERGE:          0
cpu0->cpu0_DTLB WRITE        ACCESS:          0 HIT:          0 MISS:          0 MSHR_MERGE:          0
cpu0->cpu0_DTLB TRANSLATION  ACCESS:          0 HIT:          0 MISS:          0 MSHR_MERGE:          0
cpu0->cpu0_DTLB PREFETCH REQUESTED:          0 ISSUED:          0 USEFUL:          0 USELESS:          0
cpu0->cpu0_DTLB AVERAGE MISS LATENCY: 5.727e+04 cycles
cpu0->LLC TOTAL        ACCESS:   18541825 HIT:   11400284 MISS:    7141541 MSHR_MERGE:          0
cpu0->LLC LOAD         ACCESS:    8635388 HIT:    4231020 MISS:    4404368 MSHR_MERGE:          0
cpu0->LLC RFO          ACCESS:    4062815 HIT:    1383804 MISS:    2679011 MSHR_MERGE:          0
cpu0->LLC PREFETCH     ACCESS:          0 HIT:          0 MISS:          0 MSHR_MERGE:          0
cpu0->LLC WRITE        ACCESS:    5843622 HIT:    5785460 MISS:      58162 MSHR_MERGE:          0
cpu0->LLC TRANSLATION  ACCESS:          0 HIT:          0 MISS:          0 MSHR_MERGE:          0
cpu0->LLC PREFETCH REQUESTED:          0 ISSUED:          0 USEFUL:          0 USELESS:          0
cpu0->LLC AVERAGE MISS LATENCY: 108.5 cycles

DRAM Statistics

Channel 0 RQ ROW_BUFFER_HIT:     326364
  ROW_BUFFER_MISS:    3215386
  AVG DBUS CONGESTED CYCLE: 10.78
Channel 0 WQ ROW_BUFFER_HIT:     366728
  ROW_BUFFER_MISS:    1434079
  FULL:        848
Channel 0 REFRESHES ISSUED:     368773

Channel 1 RQ ROW_BUFFER_HIT:     326759
  ROW_BUFFER_MISS:    3215513
  AVG DBUS CONGESTED CYCLE: 10.78
Channel 1 WQ ROW_BUFFER_HIT:     364376
  ROW_BUFFER_MISS:    1436419
  FULL:       1130
Channel 1 REFRESHES ISSUED:     368773
