
*** ChampSim Multicore Out-of-Order Simulator ***
Warmup Instructions: 0
Simulation Instructions: 9223372036854775807
Number of CPUs: 1
Page size: 2097152

Off-chip DRAM Size: 64 GiB Channels: 2 Width: 32-bit Data Rate: 4807 MT/s
[ERROR_PAGE_MANAGER] Error latency: 1990500 
[ERROR_PAGE_MANAGER] Random seed: 54321 (fixed for preload reproducibility)
[ERROR_PAGE_MANAGER] Cycle-based error modeling enabled
[ERROR_PAGE_MANAGER] Errors per interval: 1
[ERROR_PAGE_MANAGER] Error cycle interval: 46484161 cycles

=== ERROR PAGE STATISTICS ===
Mode: CYCLE
Error Cycle Interval: 46484161 CPU cycles
Total Error Accesses: 0
==============================
Warmup finished CPU 0 instructions: 0 cycles: 1 cumulative IPC: 0 (Simulation time: 00 hr 00 min 00 sec)
Warmup complete CPU 0 instructions: 0 cycles: 1 cumulative IPC: 0 (Simulation time: 00 hr 00 min 00 sec)
Heartbeat CPU 0 instructions: 10000004 cycles: 7845553 heartbeat IPC: 1.275 cumulative IPC: 1.275 (Simulation time: 00 hr 01 min 09 sec)
Heartbeat CPU 0 instructions: 20000004 cycles: 15655282 heartbeat IPC: 1.28 cumulative IPC: 1.278 (Simulation time: 00 hr 01 min 56 sec)
Heartbeat CPU 0 instructions: 30000005 cycles: 23861547 heartbeat IPC: 1.219 cumulative IPC: 1.257 (Simulation time: 00 hr 02 min 45 sec)
Heartbeat CPU 0 instructions: 40000008 cycles: 31936214 heartbeat IPC: 1.238 cumulative IPC: 1.252 (Simulation time: 00 hr 03 min 34 sec)
Heartbeat CPU 0 instructions: 50000009 cycles: 39985625 heartbeat IPC: 1.242 cumulative IPC: 1.25 (Simulation time: 00 hr 04 min 32 sec)
[ERROR_CYCLE] Error added at CPU cycle 46484161, interval 1, pending count: 1
[DRAM_CYCLE_ERROR] Cycle-based error applied! address=0xdafcde340 additional_latency=1990500 cycles
Heartbeat CPU 0 instructions: 60000010 cycles: 47908337 heartbeat IPC: 1.262 cumulative IPC: 1.252 (Simulation time: 00 hr 05 min 20 sec)
Heartbeat CPU 0 instructions: 70000013 cycles: 55631594 heartbeat IPC: 1.295 cumulative IPC: 1.258 (Simulation time: 00 hr 06 min 20 sec)
Heartbeat CPU 0 instructions: 80000013 cycles: 63382888 heartbeat IPC: 1.29 cumulative IPC: 1.262 (Simulation time: 00 hr 07 min 30 sec)
Heartbeat CPU 0 instructions: 90000014 cycles: 71112934 heartbeat IPC: 1.294 cumulative IPC: 1.266 (Simulation time: 00 hr 08 min 22 sec)
Heartbeat CPU 0 instructions: 100000015 cycles: 78901187 heartbeat IPC: 1.284 cumulative IPC: 1.267 (Simulation time: 00 hr 09 min 23 sec)
Heartbeat CPU 0 instructions: 110000018 cycles: 87028424 heartbeat IPC: 1.23 cumulative IPC: 1.264 (Simulation time: 00 hr 10 min 37 sec)
[ERROR_CYCLE] Error added at CPU cycle 92968322, interval 2, pending count: 1
[DRAM_CYCLE_ERROR] Cycle-based error applied! address=0x5d488fe40 additional_latency=1990500 cycles
Heartbeat CPU 0 instructions: 120000022 cycles: 95061898 heartbeat IPC: 1.245 cumulative IPC: 1.262 (Simulation time: 00 hr 11 min 52 sec)
Heartbeat CPU 0 instructions: 130000024 cycles: 103027253 heartbeat IPC: 1.255 cumulative IPC: 1.262 (Simulation time: 00 hr 13 min 06 sec)
Heartbeat CPU 0 instructions: 140000025 cycles: 111314722 heartbeat IPC: 1.207 cumulative IPC: 1.258 (Simulation time: 00 hr 14 min 22 sec)
Heartbeat CPU 0 instructions: 150000028 cycles: 119249865 heartbeat IPC: 1.26 cumulative IPC: 1.258 (Simulation time: 00 hr 15 min 36 sec)
Heartbeat CPU 0 instructions: 160000029 cycles: 127464801 heartbeat IPC: 1.217 cumulative IPC: 1.255 (Simulation time: 00 hr 16 min 52 sec)
Heartbeat CPU 0 instructions: 170000032 cycles: 135462921 heartbeat IPC: 1.25 cumulative IPC: 1.255 (Simulation time: 00 hr 18 min 06 sec)
[ERROR_CYCLE] Error added at CPU cycle 139452483, interval 3, pending count: 1
[DRAM_CYCLE_ERROR] Cycle-based error applied! address=0xe5c218f80 additional_latency=1990500 cycles
Heartbeat CPU 0 instructions: 180000035 cycles: 143456549 heartbeat IPC: 1.251 cumulative IPC: 1.255 (Simulation time: 00 hr 19 min 17 sec)
Heartbeat CPU 0 instructions: 190000037 cycles: 151673806 heartbeat IPC: 1.217 cumulative IPC: 1.253 (Simulation time: 00 hr 20 min 32 sec)
Heartbeat CPU 0 instructions: 200000039 cycles: 159624683 heartbeat IPC: 1.258 cumulative IPC: 1.253 (Simulation time: 00 hr 21 min 46 sec)
Heartbeat CPU 0 instructions: 210000042 cycles: 167316300 heartbeat IPC: 1.3 cumulative IPC: 1.255 (Simulation time: 00 hr 22 min 57 sec)
Heartbeat CPU 0 instructions: 220000046 cycles: 175474957 heartbeat IPC: 1.226 cumulative IPC: 1.254 (Simulation time: 00 hr 24 min 12 sec)
Heartbeat CPU 0 instructions: 230000048 cycles: 183700226 heartbeat IPC: 1.216 cumulative IPC: 1.252 (Simulation time: 00 hr 25 min 23 sec)
[ERROR_CYCLE] Error added at CPU cycle 185936644, interval 4, pending count: 1
[DRAM_CYCLE_ERROR] Cycle-based error applied! address=0xf53be6880 additional_latency=1990500 cycles
Heartbeat CPU 0 instructions: 240000049 cycles: 191517041 heartbeat IPC: 1.279 cumulative IPC: 1.253 (Simulation time: 00 hr 26 min 13 sec)
Heartbeat CPU 0 instructions: 250000050 cycles: 199238229 heartbeat IPC: 1.295 cumulative IPC: 1.255 (Simulation time: 00 hr 27 min 10 sec)
Heartbeat CPU 0 instructions: 260000052 cycles: 207008112 heartbeat IPC: 1.287 cumulative IPC: 1.256 (Simulation time: 00 hr 28 min 19 sec)
Heartbeat CPU 0 instructions: 270000054 cycles: 214727589 heartbeat IPC: 1.295 cumulative IPC: 1.257 (Simulation time: 00 hr 29 min 28 sec)
Heartbeat CPU 0 instructions: 280000055 cycles: 222757823 heartbeat IPC: 1.245 cumulative IPC: 1.257 (Simulation time: 00 hr 30 min 30 sec)
Heartbeat CPU 0 instructions: 290000059 cycles: 230604346 heartbeat IPC: 1.274 cumulative IPC: 1.258 (Simulation time: 00 hr 31 min 42 sec)
[ERROR_CYCLE] Error added at CPU cycle 232420805, interval 5, pending count: 1
[DRAM_CYCLE_ERROR] Cycle-based error applied! address=0x236c53840 additional_latency=1990500 cycles
Heartbeat CPU 0 instructions: 300000062 cycles: 238490568 heartbeat IPC: 1.268 cumulative IPC: 1.258 (Simulation time: 00 hr 32 min 47 sec)
Heartbeat CPU 0 instructions: 310000062 cycles: 246174515 heartbeat IPC: 1.301 cumulative IPC: 1.259 (Simulation time: 00 hr 33 min 37 sec)
Heartbeat CPU 0 instructions: 320000065 cycles: 253882934 heartbeat IPC: 1.297 cumulative IPC: 1.26 (Simulation time: 00 hr 34 min 42 sec)
Heartbeat CPU 0 instructions: 330000065 cycles: 261653769 heartbeat IPC: 1.287 cumulative IPC: 1.261 (Simulation time: 00 hr 35 min 49 sec)
Heartbeat CPU 0 instructions: 340000066 cycles: 269531908 heartbeat IPC: 1.269 cumulative IPC: 1.261 (Simulation time: 00 hr 37 min 02 sec)
Heartbeat CPU 0 instructions: 350000070 cycles: 277243755 heartbeat IPC: 1.297 cumulative IPC: 1.262 (Simulation time: 00 hr 38 min 13 sec)
[ERROR_CYCLE] Error added at CPU cycle 278904966, interval 6, pending count: 1
[DRAM_CYCLE_ERROR] Cycle-based error applied! address=0x4beb49200 additional_latency=1990500 cycles
Heartbeat CPU 0 instructions: 360000070 cycles: 285018926 heartbeat IPC: 1.286 cumulative IPC: 1.263 (Simulation time: 00 hr 39 min 03 sec)
Heartbeat CPU 0 instructions: 370000071 cycles: 292755621 heartbeat IPC: 1.293 cumulative IPC: 1.264 (Simulation time: 00 hr 39 min 58 sec)
Heartbeat CPU 0 instructions: 380000075 cycles: 300949620 heartbeat IPC: 1.22 cumulative IPC: 1.263 (Simulation time: 00 hr 40 min 54 sec)
Heartbeat CPU 0 instructions: 390000077 cycles: 308704801 heartbeat IPC: 1.289 cumulative IPC: 1.263 (Simulation time: 00 hr 42 min 02 sec)
Heartbeat CPU 0 instructions: 400000078 cycles: 316425442 heartbeat IPC: 1.295 cumulative IPC: 1.264 (Simulation time: 00 hr 43 min 13 sec)
Heartbeat CPU 0 instructions: 410000081 cycles: 324162633 heartbeat IPC: 1.292 cumulative IPC: 1.265 (Simulation time: 00 hr 44 min 24 sec)
[ERROR_CYCLE] Error added at CPU cycle 325389128, interval 7, pending count: 1
[DRAM_CYCLE_ERROR] Cycle-based error applied! address=0x5fc157040 additional_latency=1990500 cycles
Heartbeat CPU 0 instructions: 420000081 cycles: 331948210 heartbeat IPC: 1.284 cumulative IPC: 1.265 (Simulation time: 00 hr 45 min 36 sec)
Heartbeat CPU 0 instructions: 430000085 cycles: 339720609 heartbeat IPC: 1.287 cumulative IPC: 1.266 (Simulation time: 00 hr 46 min 47 sec)
Heartbeat CPU 0 instructions: 440000085 cycles: 347468900 heartbeat IPC: 1.291 cumulative IPC: 1.266 (Simulation time: 00 hr 47 min 59 sec)
Heartbeat CPU 0 instructions: 450000086 cycles: 355119145 heartbeat IPC: 1.307 cumulative IPC: 1.267 (Simulation time: 00 hr 49 min 09 sec)
Heartbeat CPU 0 instructions: 460000087 cycles: 363011857 heartbeat IPC: 1.267 cumulative IPC: 1.267 (Simulation time: 00 hr 50 min 20 sec)
Heartbeat CPU 0 instructions: 470000088 cycles: 370746185 heartbeat IPC: 1.293 cumulative IPC: 1.268 (Simulation time: 00 hr 51 min 31 sec)
[ERROR_CYCLE] Error added at CPU cycle 371873289, interval 8, pending count: 1
[DRAM_CYCLE_ERROR] Cycle-based error applied! address=0x1e21bb100 additional_latency=1990500 cycles
Heartbeat CPU 0 instructions: 480000088 cycles: 378499656 heartbeat IPC: 1.29 cumulative IPC: 1.268 (Simulation time: 00 hr 52 min 43 sec)
Heartbeat CPU 0 instructions: 490000091 cycles: 386334943 heartbeat IPC: 1.276 cumulative IPC: 1.268 (Simulation time: 00 hr 53 min 55 sec)
Heartbeat CPU 0 instructions: 500000092 cycles: 394023683 heartbeat IPC: 1.301 cumulative IPC: 1.269 (Simulation time: 00 hr 55 min 04 sec)
Heartbeat CPU 0 instructions: 510000092 cycles: 402049570 heartbeat IPC: 1.246 cumulative IPC: 1.269 (Simulation time: 00 hr 56 min 17 sec)
Heartbeat CPU 0 instructions: 520000096 cycles: 409953638 heartbeat IPC: 1.265 cumulative IPC: 1.268 (Simulation time: 00 hr 57 min 09 sec)
Heartbeat CPU 0 instructions: 530000100 cycles: 417752954 heartbeat IPC: 1.282 cumulative IPC: 1.269 (Simulation time: 00 hr 58 min 02 sec)
[ERROR_CYCLE] Error added at CPU cycle 418357450, interval 9, pending count: 1
[DRAM_CYCLE_ERROR] Cycle-based error applied! address=0xe5d48f540 additional_latency=1990500 cycles
Heartbeat CPU 0 instructions: 540000102 cycles: 425586524 heartbeat IPC: 1.277 cumulative IPC: 1.269 (Simulation time: 00 hr 58 min 56 sec)
Heartbeat CPU 0 instructions: 550000103 cycles: 433289152 heartbeat IPC: 1.298 cumulative IPC: 1.269 (Simulation time: 00 hr 59 min 45 sec)
Heartbeat CPU 0 instructions: 560000106 cycles: 441064190 heartbeat IPC: 1.286 cumulative IPC: 1.27 (Simulation time: 01 hr 00 min 39 sec)
Heartbeat CPU 0 instructions: 570000107 cycles: 449078205 heartbeat IPC: 1.248 cumulative IPC: 1.269 (Simulation time: 01 hr 01 min 52 sec)
Heartbeat CPU 0 instructions: 580000111 cycles: 456805644 heartbeat IPC: 1.294 cumulative IPC: 1.27 (Simulation time: 01 hr 03 min 04 sec)
Heartbeat CPU 0 instructions: 590000112 cycles: 464810748 heartbeat IPC: 1.249 cumulative IPC: 1.269 (Simulation time: 01 hr 04 min 18 sec)
[ERROR_CYCLE] Error added at CPU cycle 464841611, interval 10, pending count: 1
[DRAM_CYCLE_ERROR] Cycle-based error applied! address=0x8dafa2d40 additional_latency=1990500 cycles
Heartbeat CPU 0 instructions: 600000114 cycles: 472527955 heartbeat IPC: 1.296 cumulative IPC: 1.27 (Simulation time: 01 hr 05 min 28 sec)
Heartbeat CPU 0 instructions: 610000117 cycles: 480496657 heartbeat IPC: 1.255 cumulative IPC: 1.27 (Simulation time: 01 hr 06 min 21 sec)
Heartbeat CPU 0 instructions: 620000118 cycles: 488306460 heartbeat IPC: 1.28 cumulative IPC: 1.27 (Simulation time: 01 hr 07 min 18 sec)
Heartbeat CPU 0 instructions: 630000120 cycles: 496462591 heartbeat IPC: 1.226 cumulative IPC: 1.269 (Simulation time: 01 hr 08 min 21 sec)
Heartbeat CPU 0 instructions: 640000121 cycles: 504517181 heartbeat IPC: 1.242 cumulative IPC: 1.269 (Simulation time: 01 hr 09 min 18 sec)
[ERROR_CYCLE] Error added at CPU cycle 511325771, interval 11, pending count: 1
[DRAM_CYCLE_ERROR] Cycle-based error applied! address=0x99a429440 additional_latency=1990500 cycles
Heartbeat CPU 0 instructions: 650000122 cycles: 512610808 heartbeat IPC: 1.236 cumulative IPC: 1.268 (Simulation time: 01 hr 10 min 20 sec)
Heartbeat CPU 0 instructions: 660000123 cycles: 520280435 heartbeat IPC: 1.304 cumulative IPC: 1.269 (Simulation time: 01 hr 11 min 13 sec)
Heartbeat CPU 0 instructions: 670000127 cycles: 527885823 heartbeat IPC: 1.315 cumulative IPC: 1.269 (Simulation time: 01 hr 12 min 21 sec)
Heartbeat CPU 0 instructions: 680000128 cycles: 535633636 heartbeat IPC: 1.291 cumulative IPC: 1.27 (Simulation time: 01 hr 13 min 31 sec)
Heartbeat CPU 0 instructions: 690000131 cycles: 543742657 heartbeat IPC: 1.233 cumulative IPC: 1.269 (Simulation time: 01 hr 14 min 43 sec)
Heartbeat CPU 0 instructions: 700000133 cycles: 551596052 heartbeat IPC: 1.273 cumulative IPC: 1.269 (Simulation time: 01 hr 15 min 52 sec)
[ERROR_CYCLE] Error added at CPU cycle 557809932, interval 12, pending count: 1
[DRAM_CYCLE_ERROR] Cycle-based error applied! address=0x6f71c3880 additional_latency=1990500 cycles
Heartbeat CPU 0 instructions: 710000134 cycles: 559279681 heartbeat IPC: 1.301 cumulative IPC: 1.269 (Simulation time: 01 hr 17 min 01 sec)
Heartbeat CPU 0 instructions: 720000138 cycles: 566914171 heartbeat IPC: 1.31 cumulative IPC: 1.27 (Simulation time: 01 hr 18 min 09 sec)
Heartbeat CPU 0 instructions: 730000140 cycles: 574613094 heartbeat IPC: 1.299 cumulative IPC: 1.27 (Simulation time: 01 hr 19 min 19 sec)
Heartbeat CPU 0 instructions: 740000140 cycles: 582334188 heartbeat IPC: 1.295 cumulative IPC: 1.271 (Simulation time: 01 hr 20 min 13 sec)
Heartbeat CPU 0 instructions: 750000144 cycles: 590389669 heartbeat IPC: 1.241 cumulative IPC: 1.27 (Simulation time: 01 hr 21 min 01 sec)
Heartbeat CPU 0 instructions: 760000145 cycles: 598314156 heartbeat IPC: 1.262 cumulative IPC: 1.27 (Simulation time: 01 hr 21 min 50 sec)
[ERROR_CYCLE] Error added at CPU cycle 604294093, interval 13, pending count: 1
[DRAM_CYCLE_ERROR] Cycle-based error applied! address=0x4001ae7c0 additional_latency=1990500 cycles
Heartbeat CPU 0 instructions: 770000145 cycles: 606281057 heartbeat IPC: 1.255 cumulative IPC: 1.27 (Simulation time: 01 hr 22 min 58 sec)
Heartbeat CPU 0 instructions: 780000147 cycles: 614443900 heartbeat IPC: 1.225 cumulative IPC: 1.269 (Simulation time: 01 hr 23 min 53 sec)
Heartbeat CPU 0 instructions: 790000148 cycles: 622330867 heartbeat IPC: 1.268 cumulative IPC: 1.269 (Simulation time: 01 hr 24 min 42 sec)
Heartbeat CPU 0 instructions: 800000150 cycles: 630222450 heartbeat IPC: 1.267 cumulative IPC: 1.269 (Simulation time: 01 hr 25 min 52 sec)
Heartbeat CPU 0 instructions: 810000153 cycles: 638363729 heartbeat IPC: 1.228 cumulative IPC: 1.269 (Simulation time: 01 hr 27 min 06 sec)
Heartbeat CPU 0 instructions: 820000154 cycles: 646171300 heartbeat IPC: 1.281 cumulative IPC: 1.269 (Simulation time: 01 hr 28 min 05 sec)
[ERROR_CYCLE] Error added at CPU cycle 650778254, interval 14, pending count: 1
[DRAM_CYCLE_ERROR] Cycle-based error applied! address=0x6036d8100 additional_latency=1990500 cycles
Heartbeat CPU 0 instructions: 830000157 cycles: 654016660 heartbeat IPC: 1.275 cumulative IPC: 1.269 (Simulation time: 01 hr 29 min 12 sec)
Heartbeat CPU 0 instructions: 840000159 cycles: 661894193 heartbeat IPC: 1.269 cumulative IPC: 1.269 (Simulation time: 01 hr 30 min 24 sec)
Heartbeat CPU 0 instructions: 850000162 cycles: 669717905 heartbeat IPC: 1.278 cumulative IPC: 1.269 (Simulation time: 01 hr 31 min 34 sec)
Heartbeat CPU 0 instructions: 860000162 cycles: 677476416 heartbeat IPC: 1.289 cumulative IPC: 1.269 (Simulation time: 01 hr 32 min 43 sec)
Heartbeat CPU 0 instructions: 870000163 cycles: 685147867 heartbeat IPC: 1.304 cumulative IPC: 1.27 (Simulation time: 01 hr 33 min 41 sec)
Heartbeat CPU 0 instructions: 880000164 cycles: 692858195 heartbeat IPC: 1.297 cumulative IPC: 1.27 (Simulation time: 01 hr 34 min 27 sec)
[ERROR_CYCLE] Error added at CPU cycle 697262415, interval 15, pending count: 1
[DRAM_CYCLE_ERROR] Cycle-based error applied! address=0x7451cd340 additional_latency=1990500 cycles
Heartbeat CPU 0 instructions: 890000167 cycles: 700536554 heartbeat IPC: 1.302 cumulative IPC: 1.27 (Simulation time: 01 hr 35 min 23 sec)
Heartbeat CPU 0 instructions: 900000167 cycles: 708188267 heartbeat IPC: 1.307 cumulative IPC: 1.271 (Simulation time: 01 hr 36 min 20 sec)
Heartbeat CPU 0 instructions: 910000170 cycles: 715939052 heartbeat IPC: 1.29 cumulative IPC: 1.271 (Simulation time: 01 hr 37 min 15 sec)
Heartbeat CPU 0 instructions: 920000172 cycles: 723771843 heartbeat IPC: 1.277 cumulative IPC: 1.271 (Simulation time: 01 hr 38 min 14 sec)
Heartbeat CPU 0 instructions: 930000172 cycles: 731724581 heartbeat IPC: 1.257 cumulative IPC: 1.271 (Simulation time: 01 hr 39 min 07 sec)
Heartbeat CPU 0 instructions: 940000173 cycles: 739927702 heartbeat IPC: 1.219 cumulative IPC: 1.27 (Simulation time: 01 hr 40 min 08 sec)
[ERROR_CYCLE] Error added at CPU cycle 743746576, interval 16, pending count: 1
[DRAM_CYCLE_ERROR] Cycle-based error applied! address=0x2dcf7eb40 additional_latency=1990500 cycles
Heartbeat CPU 0 instructions: 950000174 cycles: 748127218 heartbeat IPC: 1.22 cumulative IPC: 1.27 (Simulation time: 01 hr 40 min 58 sec)
Heartbeat CPU 0 instructions: 960000175 cycles: 756143216 heartbeat IPC: 1.248 cumulative IPC: 1.27 (Simulation time: 01 hr 41 min 57 sec)
Heartbeat CPU 0 instructions: 970000177 cycles: 764356869 heartbeat IPC: 1.217 cumulative IPC: 1.269 (Simulation time: 01 hr 42 min 50 sec)
Heartbeat CPU 0 instructions: 980000178 cycles: 772615862 heartbeat IPC: 1.211 cumulative IPC: 1.268 (Simulation time: 01 hr 43 min 51 sec)
Heartbeat CPU 0 instructions: 990000178 cycles: 780514535 heartbeat IPC: 1.266 cumulative IPC: 1.268 (Simulation time: 01 hr 44 min 58 sec)
Heartbeat CPU 0 instructions: 1000000180 cycles: 788600806 heartbeat IPC: 1.237 cumulative IPC: 1.268 (Simulation time: 01 hr 46 min 11 sec)
[ERROR_CYCLE] Error added at CPU cycle 790230737, interval 17, pending count: 1
[DRAM_CYCLE_ERROR] Cycle-based error applied! address=0x8be86e80 additional_latency=1990500 cycles
Heartbeat CPU 0 instructions: 1010000181 cycles: 796381921 heartbeat IPC: 1.285 cumulative IPC: 1.268 (Simulation time: 01 hr 47 min 22 sec)
Heartbeat CPU 0 instructions: 1020000183 cycles: 804279654 heartbeat IPC: 1.266 cumulative IPC: 1.268 (Simulation time: 01 hr 48 min 30 sec)
Heartbeat CPU 0 instructions: 1030000184 cycles: 812658457 heartbeat IPC: 1.193 cumulative IPC: 1.267 (Simulation time: 01 hr 49 min 45 sec)
Heartbeat CPU 0 instructions: 1040000185 cycles: 820352625 heartbeat IPC: 1.3 cumulative IPC: 1.268 (Simulation time: 01 hr 50 min 55 sec)
Heartbeat CPU 0 instructions: 1050000186 cycles: 828359674 heartbeat IPC: 1.249 cumulative IPC: 1.268 (Simulation time: 01 hr 52 min 08 sec)
Heartbeat CPU 0 instructions: 1060000190 cycles: 835996254 heartbeat IPC: 1.309 cumulative IPC: 1.268 (Simulation time: 01 hr 53 min 17 sec)
[ERROR_CYCLE] Error added at CPU cycle 836714899, interval 18, pending count: 1
[DRAM_CYCLE_ERROR] Cycle-based error applied! address=0xb7e5a8f80 additional_latency=1990500 cycles
Heartbeat CPU 0 instructions: 1070000194 cycles: 843684532 heartbeat IPC: 1.301 cumulative IPC: 1.268 (Simulation time: 01 hr 54 min 18 sec)
Heartbeat CPU 0 instructions: 1080000194 cycles: 851347434 heartbeat IPC: 1.305 cumulative IPC: 1.269 (Simulation time: 01 hr 55 min 07 sec)
Heartbeat CPU 0 instructions: 1090000194 cycles: 858975469 heartbeat IPC: 1.311 cumulative IPC: 1.269 (Simulation time: 01 hr 55 min 53 sec)
Heartbeat CPU 0 instructions: 1100000194 cycles: 866678364 heartbeat IPC: 1.298 cumulative IPC: 1.269 (Simulation time: 01 hr 56 min 57 sec)
Heartbeat CPU 0 instructions: 1110000195 cycles: 874383484 heartbeat IPC: 1.298 cumulative IPC: 1.269 (Simulation time: 01 hr 58 min 07 sec)
Heartbeat CPU 0 instructions: 1120000195 cycles: 882314841 heartbeat IPC: 1.261 cumulative IPC: 1.269 (Simulation time: 01 hr 59 min 20 sec)
[ERROR_CYCLE] Error added at CPU cycle 883199060, interval 19, pending count: 1
[DRAM_CYCLE_ERROR] Cycle-based error applied! address=0x544774f00 additional_latency=1990500 cycles
Heartbeat CPU 0 instructions: 1130000196 cycles: 890197959 heartbeat IPC: 1.269 cumulative IPC: 1.269 (Simulation time: 02 hr 00 min 31 sec)
Heartbeat CPU 0 instructions: 1140000199 cycles: 897938064 heartbeat IPC: 1.292 cumulative IPC: 1.27 (Simulation time: 02 hr 01 min 42 sec)
Heartbeat CPU 0 instructions: 1150000199 cycles: 905677257 heartbeat IPC: 1.292 cumulative IPC: 1.27 (Simulation time: 02 hr 02 min 54 sec)
Heartbeat CPU 0 instructions: 1160000201 cycles: 913542459 heartbeat IPC: 1.271 cumulative IPC: 1.27 (Simulation time: 02 hr 04 min 06 sec)
Heartbeat CPU 0 instructions: 1170000201 cycles: 921441202 heartbeat IPC: 1.266 cumulative IPC: 1.27 (Simulation time: 02 hr 05 min 11 sec)
Heartbeat CPU 0 instructions: 1180000204 cycles: 929111427 heartbeat IPC: 1.304 cumulative IPC: 1.27 (Simulation time: 02 hr 06 min 05 sec)
[ERROR_CYCLE] Error added at CPU cycle 929683221, interval 20, pending count: 1
[DRAM_CYCLE_ERROR] Cycle-based error applied! address=0x73d39580 additional_latency=1990500 cycles
Heartbeat CPU 0 instructions: 1190000205 cycles: 936825731 heartbeat IPC: 1.296 cumulative IPC: 1.27 (Simulation time: 02 hr 06 min 51 sec)
Heartbeat CPU 0 instructions: 1200000206 cycles: 944586183 heartbeat IPC: 1.289 cumulative IPC: 1.27 (Simulation time: 02 hr 07 min 40 sec)
Heartbeat CPU 0 instructions: 1210000206 cycles: 952366083 heartbeat IPC: 1.285 cumulative IPC: 1.271 (Simulation time: 02 hr 08 min 41 sec)
Heartbeat CPU 0 instructions: 1220000209 cycles: 960346706 heartbeat IPC: 1.253 cumulative IPC: 1.27 (Simulation time: 02 hr 09 min 51 sec)
Heartbeat CPU 0 instructions: 1230000210 cycles: 968208345 heartbeat IPC: 1.272 cumulative IPC: 1.27 (Simulation time: 02 hr 11 min 01 sec)
Heartbeat CPU 0 instructions: 1240000210 cycles: 976105901 heartbeat IPC: 1.266 cumulative IPC: 1.27 (Simulation time: 02 hr 12 min 11 sec)
[ERROR_CYCLE] Error added at CPU cycle 976167382, interval 21, pending count: 1
[DRAM_CYCLE_ERROR] Cycle-based error applied! address=0xee91a1cc0 additional_latency=1990500 cycles
Heartbeat CPU 0 instructions: 1250000212 cycles: 983802626 heartbeat IPC: 1.299 cumulative IPC: 1.271 (Simulation time: 02 hr 13 min 19 sec)
Heartbeat CPU 0 instructions: 1260000215 cycles: 991745887 heartbeat IPC: 1.259 cumulative IPC: 1.27 (Simulation time: 02 hr 14 min 29 sec)
Heartbeat CPU 0 instructions: 1270000215 cycles: 999807381 heartbeat IPC: 1.24 cumulative IPC: 1.27 (Simulation time: 02 hr 15 min 40 sec)
Heartbeat CPU 0 instructions: 1280000216 cycles: 1007582581 heartbeat IPC: 1.286 cumulative IPC: 1.27 (Simulation time: 02 hr 16 min 31 sec)
Heartbeat CPU 0 instructions: 1290000217 cycles: 1015288458 heartbeat IPC: 1.298 cumulative IPC: 1.271 (Simulation time: 02 hr 17 min 18 sec)
[ERROR_CYCLE] Error added at CPU cycle 1022651542, interval 22, pending count: 1
[DRAM_CYCLE_ERROR] Cycle-based error applied! address=0x27c1f3100 additional_latency=1990500 cycles
Heartbeat CPU 0 instructions: 1300000220 cycles: 1023334111 heartbeat IPC: 1.243 cumulative IPC: 1.27 (Simulation time: 02 hr 18 min 14 sec)
Heartbeat CPU 0 instructions: 1310000224 cycles: 1031247473 heartbeat IPC: 1.264 cumulative IPC: 1.27 (Simulation time: 02 hr 19 min 27 sec)
Heartbeat CPU 0 instructions: 1320000226 cycles: 1039502024 heartbeat IPC: 1.211 cumulative IPC: 1.27 (Simulation time: 02 hr 20 min 42 sec)
Heartbeat CPU 0 instructions: 1330000226 cycles: 1047729347 heartbeat IPC: 1.215 cumulative IPC: 1.269 (Simulation time: 02 hr 21 min 56 sec)
Heartbeat CPU 0 instructions: 1340000226 cycles: 1055933017 heartbeat IPC: 1.219 cumulative IPC: 1.269 (Simulation time: 02 hr 23 min 10 sec)
Heartbeat CPU 0 instructions: 1350000226 cycles: 1064099965 heartbeat IPC: 1.224 cumulative IPC: 1.269 (Simulation time: 02 hr 24 min 23 sec)
[ERROR_CYCLE] Error added at CPU cycle 1069135703, interval 23, pending count: 1
[DRAM_CYCLE_ERROR] Cycle-based error applied! address=0x3142420c0 additional_latency=1990500 cycles
Heartbeat CPU 0 instructions: 1360000227 cycles: 1071862590 heartbeat IPC: 1.288 cumulative IPC: 1.269 (Simulation time: 02 hr 25 min 33 sec)
Heartbeat CPU 0 instructions: 1370000228 cycles: 1079605249 heartbeat IPC: 1.292 cumulative IPC: 1.269 (Simulation time: 02 hr 26 min 37 sec)
Heartbeat CPU 0 instructions: 1380000231 cycles: 1087304916 heartbeat IPC: 1.299 cumulative IPC: 1.269 (Simulation time: 02 hr 27 min 23 sec)
Heartbeat CPU 0 instructions: 1390000231 cycles: 1095032426 heartbeat IPC: 1.294 cumulative IPC: 1.269 (Simulation time: 02 hr 28 min 17 sec)
Heartbeat CPU 0 instructions: 1400000232 cycles: 1103166956 heartbeat IPC: 1.229 cumulative IPC: 1.269 (Simulation time: 02 hr 29 min 09 sec)
Heartbeat CPU 0 instructions: 1410000233 cycles: 1111233117 heartbeat IPC: 1.24 cumulative IPC: 1.269 (Simulation time: 02 hr 30 min 03 sec)
[ERROR_CYCLE] Error added at CPU cycle 1115619864, interval 24, pending count: 1
[DRAM_CYCLE_ERROR] Cycle-based error applied! address=0xd97bf6cc0 additional_latency=1990500 cycles
Heartbeat CPU 0 instructions: 1420000237 cycles: 1119017026 heartbeat IPC: 1.285 cumulative IPC: 1.269 (Simulation time: 02 hr 30 min 53 sec)
Heartbeat CPU 0 instructions: 1430000239 cycles: 1126924898 heartbeat IPC: 1.265 cumulative IPC: 1.269 (Simulation time: 02 hr 31 min 43 sec)
Heartbeat CPU 0 instructions: 1440000242 cycles: 1134744056 heartbeat IPC: 1.279 cumulative IPC: 1.269 (Simulation time: 02 hr 32 min 43 sec)
Heartbeat CPU 0 instructions: 1450000243 cycles: 1142425025 heartbeat IPC: 1.302 cumulative IPC: 1.269 (Simulation time: 02 hr 33 min 48 sec)
Heartbeat CPU 0 instructions: 1460000243 cycles: 1150190572 heartbeat IPC: 1.288 cumulative IPC: 1.269 (Simulation time: 02 hr 35 min 00 sec)
Heartbeat CPU 0 instructions: 1470000245 cycles: 1158119950 heartbeat IPC: 1.261 cumulative IPC: 1.269 (Simulation time: 02 hr 36 min 13 sec)
[ERROR_CYCLE] Error added at CPU cycle 1162104025, interval 25, pending count: 1
[DRAM_CYCLE_ERROR] Cycle-based error applied! address=0x49e71dd40 additional_latency=1990500 cycles
Heartbeat CPU 0 instructions: 1480000245 cycles: 1166221191 heartbeat IPC: 1.234 cumulative IPC: 1.269 (Simulation time: 02 hr 37 min 27 sec)
Heartbeat CPU 0 instructions: 1490000248 cycles: 1174033550 heartbeat IPC: 1.28 cumulative IPC: 1.269 (Simulation time: 02 hr 38 min 39 sec)
Heartbeat CPU 0 instructions: 1500000249 cycles: 1181767807 heartbeat IPC: 1.293 cumulative IPC: 1.269 (Simulation time: 02 hr 39 min 32 sec)
Heartbeat CPU 0 instructions: 1510000252 cycles: 1189767103 heartbeat IPC: 1.25 cumulative IPC: 1.269 (Simulation time: 02 hr 40 min 20 sec)
Heartbeat CPU 0 instructions: 1520000256 cycles: 1197972622 heartbeat IPC: 1.219 cumulative IPC: 1.269 (Simulation time: 02 hr 41 min 20 sec)
Heartbeat CPU 0 instructions: 1530000258 cycles: 1206133429 heartbeat IPC: 1.225 cumulative IPC: 1.269 (Simulation time: 02 hr 42 min 34 sec)
[ERROR_CYCLE] Error added at CPU cycle 1208588186, interval 26, pending count: 1
[DRAM_CYCLE_ERROR] Cycle-based error applied! address=0x10d4d5fc0 additional_latency=1990500 cycles
Heartbeat CPU 0 instructions: 1540000259 cycles: 1214383376 heartbeat IPC: 1.212 cumulative IPC: 1.268 (Simulation time: 02 hr 43 min 48 sec)
Heartbeat CPU 0 instructions: 1550000260 cycles: 1222518376 heartbeat IPC: 1.229 cumulative IPC: 1.268 (Simulation time: 02 hr 45 min 01 sec)
Heartbeat CPU 0 instructions: 1560000263 cycles: 1230409135 heartbeat IPC: 1.267 cumulative IPC: 1.268 (Simulation time: 02 hr 46 min 13 sec)
Heartbeat CPU 0 instructions: 1570000264 cycles: 1238374545 heartbeat IPC: 1.255 cumulative IPC: 1.268 (Simulation time: 02 hr 47 min 25 sec)
Heartbeat CPU 0 instructions: 1580000264 cycles: 1245994131 heartbeat IPC: 1.312 cumulative IPC: 1.268 (Simulation time: 02 hr 48 min 34 sec)
Heartbeat CPU 0 instructions: 1590000267 cycles: 1253789336 heartbeat IPC: 1.283 cumulative IPC: 1.268 (Simulation time: 02 hr 49 min 46 sec)
[ERROR_CYCLE] Error added at CPU cycle 1255072347, interval 27, pending count: 1
[DRAM_CYCLE_ERROR] Cycle-based error applied! address=0x5dcd35640 additional_latency=1990500 cycles
Heartbeat CPU 0 instructions: 1600000268 cycles: 1261617414 heartbeat IPC: 1.277 cumulative IPC: 1.268 (Simulation time: 02 hr 50 min 47 sec)
Heartbeat CPU 0 instructions: 1610000269 cycles: 1269346806 heartbeat IPC: 1.294 cumulative IPC: 1.268 (Simulation time: 02 hr 51 min 50 sec)
Heartbeat CPU 0 instructions: 1620000270 cycles: 1277013676 heartbeat IPC: 1.304 cumulative IPC: 1.269 (Simulation time: 02 hr 53 min 00 sec)
Heartbeat CPU 0 instructions: 1630000271 cycles: 1285058750 heartbeat IPC: 1.243 cumulative IPC: 1.268 (Simulation time: 02 hr 54 min 13 sec)
Heartbeat CPU 0 instructions: 1640000271 cycles: 1293114977 heartbeat IPC: 1.241 cumulative IPC: 1.268 (Simulation time: 02 hr 55 min 26 sec)
Heartbeat CPU 0 instructions: 1650000274 cycles: 1300854055 heartbeat IPC: 1.292 cumulative IPC: 1.268 (Simulation time: 02 hr 56 min 37 sec)
[ERROR_CYCLE] Error added at CPU cycle 1301556508, interval 28, pending count: 1
[DRAM_CYCLE_ERROR] Cycle-based error applied! address=0x90ba5afc0 additional_latency=1990500 cycles
Heartbeat CPU 0 instructions: 1660000275 cycles: 1308621377 heartbeat IPC: 1.287 cumulative IPC: 1.269 (Simulation time: 02 hr 57 min 47 sec)
Heartbeat CPU 0 instructions: 1670000278 cycles: 1316592446 heartbeat IPC: 1.255 cumulative IPC: 1.268 (Simulation time: 02 hr 59 min 00 sec)
Heartbeat CPU 0 instructions: 1680000280 cycles: 1324381474 heartbeat IPC: 1.284 cumulative IPC: 1.269 (Simulation time: 03 hr 00 min 11 sec)
Heartbeat CPU 0 instructions: 1690000284 cycles: 1332269840 heartbeat IPC: 1.268 cumulative IPC: 1.269 (Simulation time: 03 hr 01 min 23 sec)
Heartbeat CPU 0 instructions: 1700000285 cycles: 1340009281 heartbeat IPC: 1.292 cumulative IPC: 1.269 (Simulation time: 03 hr 02 min 34 sec)
[ERROR_CYCLE] Error added at CPU cycle 1348040670, interval 29, pending count: 1
[DRAM_CYCLE_ERROR] Cycle-based error applied! address=0x6caf57a40 additional_latency=1990500 cycles
Heartbeat CPU 0 instructions: 1710000286 cycles: 1348234561 heartbeat IPC: 1.216 cumulative IPC: 1.268 (Simulation time: 03 hr 03 min 48 sec)
Heartbeat CPU 0 instructions: 1720000287 cycles: 1356015401 heartbeat IPC: 1.285 cumulative IPC: 1.268 (Simulation time: 03 hr 04 min 59 sec)
Heartbeat CPU 0 instructions: 1730000288 cycles: 1363953346 heartbeat IPC: 1.26 cumulative IPC: 1.268 (Simulation time: 03 hr 06 min 11 sec)
Heartbeat CPU 0 instructions: 1740000292 cycles: 1371776788 heartbeat IPC: 1.278 cumulative IPC: 1.268 (Simulation time: 03 hr 07 min 02 sec)
Heartbeat CPU 0 instructions: 1750000296 cycles: 1379797347 heartbeat IPC: 1.247 cumulative IPC: 1.268 (Simulation time: 03 hr 08 min 13 sec)
Heartbeat CPU 0 instructions: 1760000299 cycles: 1387809146 heartbeat IPC: 1.248 cumulative IPC: 1.268 (Simulation time: 03 hr 09 min 17 sec)
[ERROR_CYCLE] Error added at CPU cycle 1394524831, interval 30, pending count: 1
[DRAM_CYCLE_ERROR] Cycle-based error applied! address=0xc0430d840 additional_latency=1990500 cycles
Heartbeat CPU 0 instructions: 1770000303 cycles: 1396048201 heartbeat IPC: 1.214 cumulative IPC: 1.268 (Simulation time: 03 hr 10 min 05 sec)
Heartbeat CPU 0 instructions: 1780000307 cycles: 1404146784 heartbeat IPC: 1.235 cumulative IPC: 1.268 (Simulation time: 03 hr 10 min 54 sec)
Heartbeat CPU 0 instructions: 1790000311 cycles: 1412050428 heartbeat IPC: 1.265 cumulative IPC: 1.268 (Simulation time: 03 hr 11 min 41 sec)
Heartbeat CPU 0 instructions: 1800000313 cycles: 1419800325 heartbeat IPC: 1.29 cumulative IPC: 1.268 (Simulation time: 03 hr 12 min 36 sec)
Heartbeat CPU 0 instructions: 1810000314 cycles: 1427548829 heartbeat IPC: 1.291 cumulative IPC: 1.268 (Simulation time: 03 hr 13 min 42 sec)
Heartbeat CPU 0 instructions: 1820000314 cycles: 1435341753 heartbeat IPC: 1.283 cumulative IPC: 1.268 (Simulation time: 03 hr 14 min 53 sec)
[ERROR_CYCLE] Error added at CPU cycle 1441008992, interval 31, pending count: 1
[DRAM_CYCLE_ERROR] Cycle-based error applied! address=0xfd5a03180 additional_latency=1990500 cycles
Heartbeat CPU 0 instructions: 1830000315 cycles: 1443078008 heartbeat IPC: 1.293 cumulative IPC: 1.268 (Simulation time: 03 hr 15 min 58 sec)
Heartbeat CPU 0 instructions: 1840000319 cycles: 1451266048 heartbeat IPC: 1.221 cumulative IPC: 1.268 (Simulation time: 03 hr 16 min 55 sec)
Heartbeat CPU 0 instructions: 1850000320 cycles: 1459005386 heartbeat IPC: 1.292 cumulative IPC: 1.268 (Simulation time: 03 hr 17 min 49 sec)
Heartbeat CPU 0 instructions: 1860000323 cycles: 1466852053 heartbeat IPC: 1.274 cumulative IPC: 1.268 (Simulation time: 03 hr 18 min 53 sec)
Heartbeat CPU 0 instructions: 1870000324 cycles: 1474631510 heartbeat IPC: 1.285 cumulative IPC: 1.268 (Simulation time: 03 hr 20 min 03 sec)
Heartbeat CPU 0 instructions: 1880000326 cycles: 1482283403 heartbeat IPC: 1.307 cumulative IPC: 1.268 (Simulation time: 03 hr 21 min 13 sec)
[ERROR_CYCLE] Error added at CPU cycle 1487493153, interval 32, pending count: 1
[DRAM_CYCLE_ERROR] Cycle-based error applied! address=0xe1c2f4f00 additional_latency=1990500 cycles
Heartbeat CPU 0 instructions: 1890000329 cycles: 1489951885 heartbeat IPC: 1.304 cumulative IPC: 1.268 (Simulation time: 03 hr 22 min 24 sec)
Heartbeat CPU 0 instructions: 1900000329 cycles: 1497637297 heartbeat IPC: 1.301 cumulative IPC: 1.269 (Simulation time: 03 hr 23 min 29 sec)
Heartbeat CPU 0 instructions: 1910000332 cycles: 1505443210 heartbeat IPC: 1.281 cumulative IPC: 1.269 (Simulation time: 03 hr 24 min 42 sec)
Heartbeat CPU 0 instructions: 1920000333 cycles: 1513331823 heartbeat IPC: 1.268 cumulative IPC: 1.269 (Simulation time: 03 hr 25 min 55 sec)
Heartbeat CPU 0 instructions: 1930000334 cycles: 1521003271 heartbeat IPC: 1.304 cumulative IPC: 1.269 (Simulation time: 03 hr 27 min 07 sec)
Heartbeat CPU 0 instructions: 1940000334 cycles: 1529210535 heartbeat IPC: 1.218 cumulative IPC: 1.269 (Simulation time: 03 hr 28 min 22 sec)
[ERROR_CYCLE] Error added at CPU cycle 1533977313, interval 33, pending count: 1
[DRAM_CYCLE_ERROR] Cycle-based error applied! address=0x1dfc49380 additional_latency=1990500 cycles
Heartbeat CPU 0 instructions: 1950000334 cycles: 1536949928 heartbeat IPC: 1.292 cumulative IPC: 1.269 (Simulation time: 03 hr 29 min 33 sec)
Heartbeat CPU 0 instructions: 1960000335 cycles: 1544667416 heartbeat IPC: 1.296 cumulative IPC: 1.269 (Simulation time: 03 hr 30 min 45 sec)
Heartbeat CPU 0 instructions: 1970000339 cycles: 1552443018 heartbeat IPC: 1.286 cumulative IPC: 1.269 (Simulation time: 03 hr 31 min 57 sec)
Heartbeat CPU 0 instructions: 1980000340 cycles: 1560248627 heartbeat IPC: 1.281 cumulative IPC: 1.269 (Simulation time: 03 hr 33 min 08 sec)
Heartbeat CPU 0 instructions: 1990000341 cycles: 1568061977 heartbeat IPC: 1.28 cumulative IPC: 1.269 (Simulation time: 03 hr 34 min 20 sec)

=== ERROR PAGE STATISTICS ===
Mode: CYCLE
Error Cycle Interval: 46484161 CPU cycles
Total Error Accesses: 33
==============================
Simulation finished CPU 0 instructions: 1999999656 cycles: 1575829548 cumulative IPC: 1.269 (Simulation time: 03 hr 35 min 31 sec)
Simulation complete CPU 0 instructions: 1999999656 cycles: 1575829548 cumulative IPC: 1.269 (Simulation time: 03 hr 35 min 31 sec)

ChampSim completed all CPUs

=== Simulation ===
CPU 0 runs test_traces/603.bwaves_s-2931B.champsimtrace.xz

Region of Interest Statistics

CPU 0 cumulative IPC: 1.269 instructions: 1999999656 cycles: 1575829548
CPU 0 Branch Prediction Accuracy: 80.62% MPKI: 1.636 Average ROB Occupancy at Mispredict: 300.1
Branch type MPKI
BRANCH_DIRECT_JUMP: 0
BRANCH_INDIRECT: 0
BRANCH_CONDITIONAL: 1.636
BRANCH_DIRECT_CALL: 0
BRANCH_INDIRECT_CALL: 0
BRANCH_RETURN: 0

cpu0->cpu0_STLB TOTAL        ACCESS:        759 HIT:          8 MISS:        751 MSHR_MERGE:          0
cpu0->cpu0_STLB LOAD         ACCESS:        759 HIT:          8 MISS:        751 MSHR_MERGE:          0
cpu0->cpu0_STLB RFO          ACCESS:          0 HIT:          0 MISS:          0 MSHR_MERGE:          0
cpu0->cpu0_STLB PREFETCH     ACCESS:          0 HIT:          0 MISS:          0 MSHR_MERGE:          0
cpu0->cpu0_STLB WRITE        ACCESS:          0 HIT:          0 MISS:          0 MSHR_MERGE:          0
cpu0->cpu0_STLB TRANSLATION  ACCESS:          0 HIT:          0 MISS:          0 MSHR_MERGE:          0
cpu0->cpu0_STLB PREFETCH REQUESTED:          0 ISSUED:          0 USEFUL:          0 USELESS:          0
cpu0->cpu0_STLB AVERAGE MISS LATENCY: 8771 cycles
cpu0->cpu0_L2C TOTAL        ACCESS:   46484745 HIT:   16695730 MISS:   29789015 MSHR_MERGE:          0
cpu0->cpu0_L2C LOAD         ACCESS:   20690019 HIT:    2808865 MISS:   17881154 MSHR_MERGE:          0
cpu0->cpu0_L2C RFO          ACCESS:   12820323 HIT:     912630 MISS:   11907693 MSHR_MERGE:          0
cpu0->cpu0_L2C PREFETCH     ACCESS:          0 HIT:          0 MISS:          0 MSHR_MERGE:          0
cpu0->cpu0_L2C WRITE        ACCESS:   12974403 HIT:   12974235 MISS:        168 MSHR_MERGE:          0
cpu0->cpu0_L2C TRANSLATION  ACCESS:          0 HIT:          0 MISS:          0 MSHR_MERGE:          0
cpu0->cpu0_L2C PREFETCH REQUESTED:          0 ISSUED:          0 USEFUL:          0 USELESS:          0
cpu0->cpu0_L2C AVERAGE MISS LATENCY: 119.2 cycles
cpu0->cpu0_L1I TOTAL        ACCESS:  226268358 HIT:  226268285 MISS:         73 MSHR_MERGE:         24
cpu0->cpu0_L1I LOAD         ACCESS:  226268358 HIT:  226268285 MISS:         73 MSHR_MERGE:         24
cpu0->cpu0_L1I RFO          ACCESS:          0 HIT:          0 MISS:          0 MSHR_MERGE:          0
cpu0->cpu0_L1I PREFETCH     ACCESS:          0 HIT:          0 MISS:          0 MSHR_MERGE:          0
cpu0->cpu0_L1I WRITE        ACCESS:          0 HIT:          0 MISS:          0 MSHR_MERGE:          0
cpu0->cpu0_L1I TRANSLATION  ACCESS:          0 HIT:          0 MISS:          0 MSHR_MERGE:          0
cpu0->cpu0_L1I PREFETCH REQUESTED:          0 ISSUED:          0 USEFUL:          0 USELESS:          0
cpu0->cpu0_L1I AVERAGE MISS LATENCY: 161.3 cycles
cpu0->cpu0_L1D TOTAL        ACCESS:  657148068 HIT:  605074306 MISS:   52073762 MSHR_MERGE:   18548890
cpu0->cpu0_L1D LOAD         ACCESS:  291209800 HIT:  270265533 MISS:   20944267 MSHR_MERGE:     253930
cpu0->cpu0_L1D RFO          ACCESS:          0 HIT:          0 MISS:          0 MSHR_MERGE:          0
cpu0->cpu0_L1D PREFETCH     ACCESS:          0 HIT:          0 MISS:          0 MSHR_MERGE:          0
cpu0->cpu0_L1D WRITE        ACCESS:  365938268 HIT:  334808773 MISS:   31129495 MSHR_MERGE:   18294960
cpu0->cpu0_L1D TRANSLATION  ACCESS:          0 HIT:          0 MISS:          0 MSHR_MERGE:          0
cpu0->cpu0_L1D PREFETCH REQUESTED:          0 ISSUED:          0 USEFUL:          0 USELESS:          0
cpu0->cpu0_L1D AVERAGE MISS LATENCY: 115 cycles
cpu0->cpu0_ITLB TOTAL        ACCESS:  180616140 HIT:  180616133 MISS:          7 MSHR_MERGE:          6
cpu0->cpu0_ITLB LOAD         ACCESS:  180616140 HIT:  180616133 MISS:          7 MSHR_MERGE:          6
cpu0->cpu0_ITLB RFO          ACCESS:          0 HIT:          0 MISS:          0 MSHR_MERGE:          0
cpu0->cpu0_ITLB PREFETCH     ACCESS:          0 HIT:          0 MISS:          0 MSHR_MERGE:          0
cpu0->cpu0_ITLB WRITE        ACCESS:          0 HIT:          0 MISS:          0 MSHR_MERGE:          0
cpu0->cpu0_ITLB TRANSLATION  ACCESS:          0 HIT:          0 MISS:          0 MSHR_MERGE:          0
cpu0->cpu0_ITLB PREFETCH REQUESTED:          0 ISSUED:          0 USEFUL:          0 USELESS:          0
cpu0->cpu0_ITLB AVERAGE MISS LATENCY: 1.722e+04 cycles
cpu0->cpu0_DTLB TOTAL        ACCESS:  552028547 HIT:  552022306 MISS:       6241 MSHR_MERGE:       5483
cpu0->cpu0_DTLB LOAD         ACCESS:  552028547 HIT:  552022306 MISS:       6241 MSHR_MERGE:       5483
cpu0->cpu0_DTLB RFO          ACCESS:          0 HIT:          0 MISS:          0 MSHR_MERGE:          0
cpu0->cpu0_DTLB PREFETCH     ACCESS:          0 HIT:          0 MISS:          0 MSHR_MERGE:          0
cpu0->cpu0_DTLB WRITE        ACCESS:          0 HIT:          0 MISS:          0 MSHR_MERGE:          0
cpu0->cpu0_DTLB TRANSLATION  ACCESS:          0 HIT:          0 MISS:          0 MSHR_MERGE:          0
cpu0->cpu0_DTLB PREFETCH REQUESTED:          0 ISSUED:          0 USEFUL:          0 USELESS:          0
cpu0->cpu0_DTLB AVERAGE MISS LATENCY: 8674 cycles
cpu0->LLC TOTAL        ACCESS:   41694236 HIT:   14435089 MISS:   27259147 MSHR_MERGE:          0
cpu0->LLC LOAD         ACCESS:   17881154 HIT:    2529933 MISS:   15351221 MSHR_MERGE:          0
cpu0->LLC RFO          ACCESS:   11907693 HIT:          0 MISS:   11907693 MSHR_MERGE:          0
cpu0->LLC PREFETCH     ACCESS:          0 HIT:          0 MISS:          0 MSHR_MERGE:          0
cpu0->LLC WRITE        ACCESS:   11905389 HIT:   11905156 MISS:        233 MSHR_MERGE:          0
cpu0->LLC TRANSLATION  ACCESS:          0 HIT:          0 MISS:          0 MSHR_MERGE:          0
cpu0->LLC PREFETCH REQUESTED:          0 ISSUED:          0 USEFUL:          0 USELESS:          0
cpu0->LLC AVERAGE MISS LATENCY: 112.8 cycles

DRAM Statistics

Channel 0 RQ ROW_BUFFER_HIT:     285780
  ROW_BUFFER_MISS:   13344555
  AVG DBUS CONGESTED CYCLE: 10.86
Channel 0 WQ ROW_BUFFER_HIT:    2649684
  ROW_BUFFER_MISS:    3297428
  FULL:          0
Channel 0 REFRESHES ISSUED:     131310

Channel 1 RQ ROW_BUFFER_HIT:     281160
  ROW_BUFFER_MISS:   13348928
  AVG DBUS CONGESTED CYCLE: 10.86
Channel 1 WQ ROW_BUFFER_HIT:    2652784
  ROW_BUFFER_MISS:    3294248
  FULL:          0
Channel 1 REFRESHES ISSUED:     131310
