
*** ChampSim Multicore Out-of-Order Simulator ***
Warmup Instructions: 0
Simulation Instructions: 9223372036854775807
Number of CPUs: 1
Page size: 1048576

Off-chip DRAM Size: 32 GiB Channels: 2 Width: 32-bit Data Rate: 4807 MT/s
[ERROR_PAGE_MANAGER] Error latency: 2459910500 
[ERROR_PAGE_MANAGER] Random seed: 54321 (fixed for preload reproducibility)
[ERROR_PAGE_MANAGER] Cycle-based error modeling enabled
[ERROR_PAGE_MANAGER] Errors per interval: 1
[ERROR_PAGE_MANAGER] Error cycle interval: 705324015 cycles

=== ERROR PAGE STATISTICS ===
Mode: CYCLE
Error Cycle Interval: 705324015 CPU cycles
Total Error Accesses: 0
==============================
Warmup finished CPU 0 instructions: 0 cycles: 1 cumulative IPC: 0 (Simulation time: 00 hr 00 min 00 sec)
Warmup complete CPU 0 instructions: 0 cycles: 1 cumulative IPC: 0 (Simulation time: 00 hr 00 min 00 sec)
Simulation CPU 0 panic: IPC 0 < 0.01
Simulation CPU 0 panic: IPC 1e-07 < 0.01
Simulation CPU 0 panic: IPC 0 < 0.01
Simulation CPU 0 panic: IPC 2e-07 < 0.01
Simulation CPU 0 panic: IPC 6e-07 < 0.01
Simulation CPU 0 panic: IPC 1.07e-05 < 0.01
Simulation CPU 0 panic: IPC 0.0061264 < 0.01
Simulation CPU 0 panic: IPC 1.4e-06 < 0.01
Simulation CPU 0 panic: IPC 0 < 0.01
Heartbeat CPU 0 instructions: 10000000 cycles: 119900097 heartbeat IPC: 0.0834 cumulative IPC: 0.0834 (Simulation time: 00 hr 11 min 19 sec)
Heartbeat CPU 0 instructions: 20000000 cycles: 138155263 heartbeat IPC: 0.5478 cumulative IPC: 0.1448 (Simulation time: 00 hr 13 min 33 sec)
Heartbeat CPU 0 instructions: 30000000 cycles: 156414130 heartbeat IPC: 0.5477 cumulative IPC: 0.1918 (Simulation time: 00 hr 15 min 48 sec)
Heartbeat CPU 0 instructions: 40000001 cycles: 174672054 heartbeat IPC: 0.5477 cumulative IPC: 0.229 (Simulation time: 00 hr 17 min 48 sec)
Simulation CPU 0 panic: IPC 4.15e-05 < 0.01
Simulation CPU 0 panic: IPC 2e-07 < 0.01
Simulation CPU 0 panic: IPC 1.6e-06 < 0.01
Simulation CPU 0 panic: IPC 5.75e-05 < 0.01
Simulation CPU 0 panic: IPC 0.0013368 < 0.01
Simulation CPU 0 panic: IPC 0.0019924 < 0.01
Simulation CPU 0 warning: IPC 0.045785 < 0.05
Simulation CPU 0 critical: IPC 0.011859 < 0.02
Simulation CPU 0 warning: IPC 0.021961 < 0.05
Simulation CPU 0 panic: IPC 0.0084677 < 0.01
Simulation CPU 0 warning: IPC 0.020324 < 0.05
Simulation CPU 0 warning: IPC 0.045785 < 0.05
Simulation CPU 0 critical: IPC 0.011859 < 0.02
Simulation CPU 0 warning: IPC 0.021961 < 0.05
Simulation CPU 0 warning: IPC 0.027887 < 0.05
Simulation CPU 0 warning: IPC 0.046547 < 0.05
Simulation CPU 0 critical: IPC 0.012002 < 0.02
Simulation CPU 0 critical: IPC 0.019373 < 0.02
Simulation CPU 0 panic: IPC 0.0025871 < 0.01
Simulation CPU 0 panic: IPC 0.006774 < 0.01
Simulation CPU 0 warning: IPC 0.020324 < 0.05
Simulation CPU 0 warning: IPC 0.046069 < 0.05
Simulation CPU 0 critical: IPC 0.012661 < 0.02
Simulation CPU 0 warning: IPC 0.022568 < 0.05
Simulation CPU 0 panic: IPC 4.77e-05 < 0.01
Simulation CPU 0 panic: IPC 0.0067263 < 0.01
Simulation CPU 0 critical: IPC 0.015004 < 0.02
Simulation CPU 0 panic: IPC 0.0053204 < 0.01
Simulation CPU 0 warning: IPC 0.045787 < 0.05
Simulation CPU 0 critical: IPC 0.01185 < 0.02
Simulation CPU 0 warning: IPC 0.02261 < 0.05
Simulation CPU 0 panic: IPC 0.0078242 < 0.01
Simulation CPU 0 warning: IPC 0.020324 < 0.05
Simulation CPU 0 warning: IPC 0.045787 < 0.05
Simulation CPU 0 critical: IPC 0.01185 < 0.02
Simulation CPU 0 warning: IPC 0.021967 < 0.05
Heartbeat CPU 0 instructions: 50000005 cycles: 540267419 heartbeat IPC: 0.02735 cumulative IPC: 0.09255 (Simulation time: 01 hr 00 min 17 sec)
Simulation CPU 0 warning: IPC 0.028792 < 0.05
Simulation CPU 0 warning: IPC 0.045787 < 0.05
Simulation CPU 0 critical: IPC 0.01185 < 0.02
Simulation CPU 0 critical: IPC 0.016055 < 0.02
Simulation CPU 0 panic: IPC 0.005912 < 0.01
Simulation CPU 0 panic: IPC 0.0082425 < 0.01
Simulation CPU 0 warning: IPC 0.020087 < 0.05
Simulation CPU 0 warning: IPC 0.04625 < 0.05
Simulation CPU 0 critical: IPC 0.01185 < 0.02
Simulation CPU 0 critical: IPC 0.018687 < 0.02
Simulation CPU 0 panic: IPC 0.0032803 < 0.01
Simulation CPU 0 warning: IPC 0.027099 < 0.05
Simulation CPU 0 panic: IPC 1e-07 < 0.01
Simulation CPU 0 panic: IPC 0.0045275 < 0.01
Simulation CPU 0 panic: IPC 0.0074089 < 0.01
Simulation CPU 0 critical: IPC 0.018933 < 0.02
[ERROR_CYCLE] Error added at CPU cycle 705324016, interval 1, pending count: 1
[DRAM_CYCLE_ERROR] Cycle-based error applied! address=0x146f024e8 additional_latency=2459910500 cycles
Simulation CPU 0 panic: IPC 0 < 0.01
Simulation CPU 0 panic: IPC 0.0074089 < 0.01
Simulation CPU 0 critical: IPC 0.018913 < 0.02
Simulation CPU 0 panic: IPC 0.0073801 < 0.01
Simulation CPU 0 critical: IPC 0.018655 < 0.02
Simulation CPU 0 panic: IPC 0.0073801 < 0.01
Simulation CPU 0 critical: IPC 0.018878 < 0.02
Simulation CPU 0 panic: IPC 0.0074089 < 0.01
Simulation CPU 0 critical: IPC 0.018933 < 0.02
Simulation CPU 0 panic: IPC 0.0074089 < 0.01
Simulation CPU 0 critical: IPC 0.018933 < 0.02
Simulation CPU 0 panic: IPC 0.0074089 < 0.01
Simulation CPU 0 critical: IPC 0.018933 < 0.02
Simulation CPU 0 panic: IPC 0.0074089 < 0.01
Simulation CPU 0 critical: IPC 0.014883 < 0.02
Simulation CPU 0 warning: IPC 0.049833 < 0.05
Heartbeat CPU 0 instructions: 60000005 cycles: 868189506 heartbeat IPC: 0.0305 cumulative IPC: 0.06911 (Simulation time: 01 hr 35 min 45 sec)
Heartbeat CPU 0 instructions: 70000008 cycles: 877217175 heartbeat IPC: 1.108 cumulative IPC: 0.0798 (Simulation time: 01 hr 36 min 52 sec)
Heartbeat CPU 0 instructions: 80000011 cycles: 886232889 heartbeat IPC: 1.109 cumulative IPC: 0.09027 (Simulation time: 01 hr 37 min 59 sec)
Heartbeat CPU 0 instructions: 90000011 cycles: 895231467 heartbeat IPC: 1.111 cumulative IPC: 0.1005 (Simulation time: 01 hr 39 min 06 sec)
Heartbeat CPU 0 instructions: 100000014 cycles: 904223734 heartbeat IPC: 1.112 cumulative IPC: 0.1106 (Simulation time: 01 hr 40 min 08 sec)
Heartbeat CPU 0 instructions: 110000014 cycles: 913221311 heartbeat IPC: 1.111 cumulative IPC: 0.1205 (Simulation time: 01 hr 41 min 04 sec)
Simulation CPU 0 warning: IPC 0.04368 < 0.05
Simulation CPU 0 warning: IPC 0.043416 < 0.05
Simulation CPU 0 warning: IPC 0.030929 < 0.05
Heartbeat CPU 0 instructions: 120000018 cycles: 970626036 heartbeat IPC: 0.1742 cumulative IPC: 0.1236 (Simulation time: 01 hr 47 min 40 sec)
Simulation CPU 0 critical: IPC 0.011851 < 0.02
Simulation CPU 0 warning: IPC 0.04059 < 0.05
Simulation CPU 0 warning: IPC 0.0316 < 0.05
Simulation CPU 0 critical: IPC 0.011851 < 0.02
Simulation CPU 0 critical: IPC 0.012378 < 0.02
Simulation CPU 0 critical: IPC 0.012571 < 0.02
Simulation CPU 0 panic: IPC 0.0036026 < 0.01
Simulation CPU 0 critical: IPC 0.011859 < 0.02
Simulation CPU 0 warning: IPC 0.02618 < 0.05
Simulation CPU 0 warning: IPC 0.026342 < 0.05
Simulation CPU 0 warning: IPC 0.026342 < 0.05
Simulation CPU 0 warning: IPC 0.026342 < 0.05
Simulation CPU 0 warning: IPC 0.0262 < 0.05
Simulation CPU 0 warning: IPC 0.026073 < 0.05
Simulation CPU 0 warning: IPC 0.028143 < 0.05
Heartbeat CPU 0 instructions: 130000019 cycles: 1181998924 heartbeat IPC: 0.04731 cumulative IPC: 0.11 (Simulation time: 02 hr 11 min 09 sec)
Heartbeat CPU 0 instructions: 140000019 cycles: 1191031860 heartbeat IPC: 1.107 cumulative IPC: 0.1175 (Simulation time: 02 hr 12 min 16 sec)
Heartbeat CPU 0 instructions: 150000019 cycles: 1200047606 heartbeat IPC: 1.109 cumulative IPC: 0.125 (Simulation time: 02 hr 13 min 23 sec)
Heartbeat CPU 0 instructions: 160000020 cycles: 1209053320 heartbeat IPC: 1.11 cumulative IPC: 0.1323 (Simulation time: 02 hr 14 min 29 sec)
Heartbeat CPU 0 instructions: 170000020 cycles: 1218044090 heartbeat IPC: 1.112 cumulative IPC: 0.1396 (Simulation time: 02 hr 15 min 35 sec)
Heartbeat CPU 0 instructions: 180000023 cycles: 1227042771 heartbeat IPC: 1.111 cumulative IPC: 0.1467 (Simulation time: 02 hr 16 min 42 sec)
Heartbeat CPU 0 instructions: 190000026 cycles: 1236040339 heartbeat IPC: 1.111 cumulative IPC: 0.1537 (Simulation time: 02 hr 17 min 29 sec)
Simulation CPU 0 critical: IPC 0.011851 < 0.02
Simulation CPU 0 critical: IPC 0.011851 < 0.02
Simulation CPU 0 panic: IPC 0.0061422 < 0.01
Simulation CPU 0 panic: IPC 0.0057881 < 0.01
Simulation CPU 0 critical: IPC 0.012659 < 0.02
Simulation CPU 0 critical: IPC 0.011859 < 0.02
Simulation CPU 0 critical: IPC 0.011859 < 0.02
Simulation CPU 0 panic: IPC 0.0027398 < 0.01
Simulation CPU 0 panic: IPC 0.0091194 < 0.01
Simulation CPU 0 critical: IPC 0.011859 < 0.02
[ERROR_CYCLE] Error added at CPU cycle 1410648031, interval 2, pending count: 1
[DRAM_CYCLE_ERROR] Cycle-based error applied! address=0x537c8eb20 additional_latency=2459910500 cycles
Simulation CPU 0 panic: IPC 0 < 0.01
Heartbeat CPU 0 instructions: 200000027 cycles: 1438111526 heartbeat IPC: 0.04949 cumulative IPC: 0.1391 (Simulation time: 02 hr 38 min 51 sec)
Simulation CPU 0 warning: IPC 0.026342 < 0.05
Simulation CPU 0 warning: IPC 0.026308 < 0.05
Simulation CPU 0 warning: IPC 0.026035 < 0.05
Simulation CPU 0 warning: IPC 0.026273 < 0.05
Simulation CPU 0 warning: IPC 0.026342 < 0.05
Simulation CPU 0 warning: IPC 0.026342 < 0.05
Simulation CPU 0 warning: IPC 0.026342 < 0.05
Heartbeat CPU 0 instructions: 210000029 cycles: 1514687002 heartbeat IPC: 0.1306 cumulative IPC: 0.1386 (Simulation time: 02 hr 46 min 20 sec)
Heartbeat CPU 0 instructions: 220000033 cycles: 1523706225 heartbeat IPC: 1.109 cumulative IPC: 0.1444 (Simulation time: 02 hr 47 min 13 sec)
Heartbeat CPU 0 instructions: 230000036 cycles: 1532719858 heartbeat IPC: 1.109 cumulative IPC: 0.1501 (Simulation time: 02 hr 48 min 12 sec)
Heartbeat CPU 0 instructions: 240000039 cycles: 1541712510 heartbeat IPC: 1.112 cumulative IPC: 0.1557 (Simulation time: 02 hr 48 min 59 sec)
Heartbeat CPU 0 instructions: 250000039 cycles: 1550710794 heartbeat IPC: 1.111 cumulative IPC: 0.1612 (Simulation time: 02 hr 49 min 47 sec)
Heartbeat CPU 0 instructions: 260000039 cycles: 1559711197 heartbeat IPC: 1.111 cumulative IPC: 0.1667 (Simulation time: 02 hr 50 min 54 sec)
Simulation CPU 0 critical: IPC 0.012658 < 0.02
Simulation CPU 0 critical: IPC 0.012183 < 0.02
Simulation CPU 0 panic: IPC 0.0056663 < 0.01
Simulation CPU 0 critical: IPC 0.011859 < 0.02
Simulation CPU 0 critical: IPC 0.011859 < 0.02
Simulation CPU 0 critical: IPC 0.011859 < 0.02
Heartbeat CPU 0 instructions: 270000040 cycles: 1674768246 heartbeat IPC: 0.08691 cumulative IPC: 0.1612 (Simulation time: 03 hr 03 min 19 sec)
Simulation CPU 0 critical: IPC 0.012319 < 0.02
Simulation CPU 0 panic: IPC 0.0089976 < 0.01
Simulation CPU 0 critical: IPC 0.012622 < 0.02
Simulation CPU 0 critical: IPC 0.011856 < 0.02
Simulation CPU 0 warning: IPC 0.026166 < 0.05
Simulation CPU 0 warning: IPC 0.026342 < 0.05
Simulation CPU 0 warning: IPC 0.026342 < 0.05
Simulation CPU 0 warning: IPC 0.026342 < 0.05
Simulation CPU 0 warning: IPC 0.026215 < 0.05
Simulation CPU 0 warning: IPC 0.026058 < 0.05
Heartbeat CPU 0 instructions: 280000044 cycles: 1819218859 heartbeat IPC: 0.06923 cumulative IPC: 0.1539 (Simulation time: 03 hr 20 min 19 sec)
Heartbeat CPU 0 instructions: 290000047 cycles: 1828249656 heartbeat IPC: 1.107 cumulative IPC: 0.1586 (Simulation time: 03 hr 21 min 14 sec)
Heartbeat CPU 0 instructions: 300000048 cycles: 1837264503 heartbeat IPC: 1.109 cumulative IPC: 0.1633 (Simulation time: 03 hr 21 min 59 sec)
Heartbeat CPU 0 instructions: 310000050 cycles: 1846263369 heartbeat IPC: 1.111 cumulative IPC: 0.1679 (Simulation time: 03 hr 22 min 46 sec)
Heartbeat CPU 0 instructions: 320000054 cycles: 1855252877 heartbeat IPC: 1.112 cumulative IPC: 0.1725 (Simulation time: 03 hr 23 min 30 sec)
Heartbeat CPU 0 instructions: 330000056 cycles: 1864251611 heartbeat IPC: 1.111 cumulative IPC: 0.177 (Simulation time: 03 hr 24 min 29 sec)
Simulation CPU 0 critical: IPC 0.011859 < 0.02
Simulation CPU 0 critical: IPC 0.011859 < 0.02
Heartbeat CPU 0 instructions: 340000056 cycles: 1911416796 heartbeat IPC: 0.212 cumulative IPC: 0.1779 (Simulation time: 03 hr 29 min 57 sec)
Simulation CPU 0 critical: IPC 0.019087 < 0.02
Simulation CPU 0 critical: IPC 0.011872 < 0.02
Simulation CPU 0 critical: IPC 0.012664 < 0.02
Simulation CPU 0 critical: IPC 0.011856 < 0.02
Simulation CPU 0 critical: IPC 0.011856 < 0.02
Simulation CPU 0 warning: IPC 0.022431 < 0.05
Simulation CPU 0 critical: IPC 0.011854 < 0.02
Simulation CPU 0 critical: IPC 0.011856 < 0.02
Heartbeat CPU 0 instructions: 350000056 cycles: 2058832110 heartbeat IPC: 0.06784 cumulative IPC: 0.17 (Simulation time: 03 hr 47 min 30 sec)
Heartbeat CPU 0 instructions: 360000056 cycles: 2069141264 heartbeat IPC: 0.97 cumulative IPC: 0.174 (Simulation time: 03 hr 48 min 40 sec)
Heartbeat CPU 0 instructions: 370000058 cycles: 2079420646 heartbeat IPC: 0.9728 cumulative IPC: 0.1779 (Simulation time: 03 hr 49 min 49 sec)
Heartbeat CPU 0 instructions: 380000062 cycles: 2089673253 heartbeat IPC: 0.9754 cumulative IPC: 0.1818 (Simulation time: 03 hr 50 min 46 sec)
Simulation CPU 0 critical: IPC 0.012668 < 0.02
[ERROR_CYCLE] Error added at CPU cycle 2115972045, interval 3, pending count: 1
[DRAM_CYCLE_ERROR] Cycle-based error applied! address=0x5a0f6f180 additional_latency=2459910500 cycles
Simulation CPU 0 panic: IPC 0.0065375 < 0.01
Simulation CPU 0 critical: IPC 0.012244 < 0.02
Simulation CPU 0 warning: IPC 0.030838 < 0.05
Simulation CPU 0 critical: IPC 0.011856 < 0.02
Heartbeat CPU 0 instructions: 390000062 cycles: 2176557795 heartbeat IPC: 0.1151 cumulative IPC: 0.1792 (Simulation time: 04 hr 01 min 01 sec)
Simulation CPU 0 critical: IPC 0.011856 < 0.02
Simulation CPU 0 critical: IPC 0.011856 < 0.02
Simulation CPU 0 critical: IPC 0.012263 < 0.02
Simulation CPU 0 warning: IPC 0.034185 < 0.05
Simulation CPU 0 critical: IPC 0.012667 < 0.02
Simulation CPU 0 critical: IPC 0.011858 < 0.02
Simulation CPU 0 panic: IPC 4.68e-05 < 0.01
Simulation CPU 0 panic: IPC 0.0001208 < 0.01
Simulation CPU 0 panic: IPC 0 < 0.01
Simulation CPU 0 panic: IPC 0.0031304 < 0.01
Simulation CPU 0 panic: IPC 0.0031304 < 0.01
Simulation CPU 0 panic: IPC 2.3e-06 < 0.01
Simulation CPU 0 panic: IPC 0.0031281 < 0.01
Simulation CPU 0 panic: IPC 0.0031304 < 0.01
Simulation CPU 0 panic: IPC 0.0031304 < 0.01
Simulation CPU 0 panic: IPC 0.0031304 < 0.01
Simulation CPU 0 panic: IPC 0.0062608 < 0.01
Simulation CPU 0 panic: IPC 0.0031304 < 0.01
Simulation CPU 0 panic: IPC 0.0031304 < 0.01
Simulation CPU 0 panic: IPC 0.0031304 < 0.01
Simulation CPU 0 panic: IPC 0.0031304 < 0.01
Simulation CPU 0 panic: IPC 0.0031304 < 0.01
Simulation CPU 0 panic: IPC 0.0031304 < 0.01
Simulation CPU 0 panic: IPC 0.0031304 < 0.01
Simulation CPU 0 panic: IPC 0.0031304 < 0.01
Simulation CPU 0 panic: IPC 0.0031304 < 0.01
Simulation CPU 0 panic: IPC 0.0031304 < 0.01
Simulation CPU 0 panic: IPC 0.0031304 < 0.01
Simulation CPU 0 panic: IPC 0.0062608 < 0.01
Simulation CPU 0 panic: IPC 0.0031304 < 0.01
Simulation CPU 0 panic: IPC 0.0031304 < 0.01
Simulation CPU 0 panic: IPC 0.0031304 < 0.01
Simulation CPU 0 panic: IPC 0.0031304 < 0.01
Simulation CPU 0 panic: IPC 0.0031304 < 0.01
Simulation CPU 0 panic: IPC 1.3e-06 < 0.01
Simulation CPU 0 panic: IPC 0.0062595 < 0.01
Simulation CPU 0 panic: IPC 0.0031304 < 0.01
Simulation CPU 0 panic: IPC 0.0031304 < 0.01
Simulation CPU 0 panic: IPC 0.0031304 < 0.01
Simulation CPU 0 panic: IPC 0.0031304 < 0.01
Simulation CPU 0 panic: IPC 0.0031304 < 0.01
Simulation CPU 0 panic: IPC 0.0031304 < 0.01
Simulation CPU 0 panic: IPC 0.0031304 < 0.01
Simulation CPU 0 panic: IPC 0.0031304 < 0.01
Simulation CPU 0 panic: IPC 0.0031304 < 0.01
Simulation CPU 0 panic: IPC 0.0031304 < 0.01
Simulation CPU 0 warning: IPC 0.041394 < 0.05
Simulation CPU 0 panic: IPC 0.0038988 < 0.01
Simulation CPU 0 panic: IPC 4.09e-05 < 0.01
Simulation CPU 0 panic: IPC 4.09e-05 < 0.01
Simulation CPU 0 panic: IPC 4.09e-05 < 0.01
Simulation CPU 0 panic: IPC 4.09e-05 < 0.01
Simulation CPU 0 panic: IPC 4.09e-05 < 0.01
Simulation CPU 0 panic: IPC 4.09e-05 < 0.01
Simulation CPU 0 panic: IPC 4.09e-05 < 0.01
Simulation CPU 0 panic: IPC 4.09e-05 < 0.01
Simulation CPU 0 panic: IPC 4.09e-05 < 0.01
Simulation CPU 0 panic: IPC 4.09e-05 < 0.01
Simulation CPU 0 panic: IPC 4.09e-05 < 0.01
[ERROR_CYCLE] Error added at CPU cycle 2821296060, interval 4, pending count: 1
[DRAM_CYCLE_ERROR] Cycle-based error applied! address=0x3d599f330 additional_latency=2459910500 cycles
Simulation CPU 0 panic: IPC 4.09e-05 < 0.01
Simulation CPU 0 panic: IPC 0 < 0.01
Simulation CPU 0 panic: IPC 8.18e-05 < 0.01
Simulation CPU 0 panic: IPC 4.09e-05 < 0.01
Simulation CPU 0 panic: IPC 4.09e-05 < 0.01
Simulation CPU 0 panic: IPC 4.09e-05 < 0.01
Simulation CPU 0 panic: IPC 4.09e-05 < 0.01
Simulation CPU 0 panic: IPC 4.09e-05 < 0.01
Simulation CPU 0 panic: IPC 4.09e-05 < 0.01
Simulation CPU 0 panic: IPC 4.09e-05 < 0.01
Simulation CPU 0 panic: IPC 4.09e-05 < 0.01
Simulation CPU 0 panic: IPC 4.09e-05 < 0.01
Simulation CPU 0 panic: IPC 4.09e-05 < 0.01
Simulation CPU 0 panic: IPC 4.09e-05 < 0.01
Simulation CPU 0 panic: IPC 8.18e-05 < 0.01
Simulation CPU 0 panic: IPC 4.09e-05 < 0.01
Simulation CPU 0 panic: IPC 4.09e-05 < 0.01
Simulation CPU 0 panic: IPC 4.09e-05 < 0.01
Simulation CPU 0 panic: IPC 4.09e-05 < 0.01
Simulation CPU 0 panic: IPC 4.09e-05 < 0.01
Simulation CPU 0 panic: IPC 4.09e-05 < 0.01
Simulation CPU 0 panic: IPC 4.09e-05 < 0.01
Simulation CPU 0 panic: IPC 4.09e-05 < 0.01
Simulation CPU 0 panic: IPC 4.09e-05 < 0.01
Simulation CPU 0 panic: IPC 4.09e-05 < 0.01
Simulation CPU 0 panic: IPC 4.09e-05 < 0.01
Heartbeat CPU 0 instructions: 400000062 cycles: 3091144574 heartbeat IPC: 0.01093 cumulative IPC: 0.1294 (Simulation time: 05 hr 37 min 12 sec)
Simulation CPU 0 warning: IPC 0.032731 < 0.05
Simulation CPU 0 panic: IPC 3.8e-05 < 0.01
Heartbeat CPU 0 instructions: 410000062 cycles: 3144052319 heartbeat IPC: 0.189 cumulative IPC: 0.1304 (Simulation time: 05 hr 43 min 42 sec)
Simulation CPU 0 warning: IPC 0.034305 < 0.05
Heartbeat CPU 0 instructions: 420000065 cycles: 3178830374 heartbeat IPC: 0.2875 cumulative IPC: 0.1321 (Simulation time: 05 hr 47 min 51 sec)
Simulation CPU 0 warning: IPC 0.045619 < 0.05
Simulation CPU 0 warning: IPC 0.026382 < 0.05
Heartbeat CPU 0 instructions: 430000067 cycles: 3233461765 heartbeat IPC: 0.183 cumulative IPC: 0.133 (Simulation time: 05 hr 54 min 05 sec)
Simulation CPU 0 panic: IPC 9.6e-06 < 0.01
Simulation CPU 0 critical: IPC 0.01132 < 0.02
Simulation CPU 0 panic: IPC 9.6e-06 < 0.01
Simulation CPU 0 critical: IPC 0.011756 < 0.02
Simulation CPU 0 warning: IPC 0.034433 < 0.05
Simulation CPU 0 warning: IPC 0.045832 < 0.05
Simulation CPU 0 critical: IPC 0.012519 < 0.02
Heartbeat CPU 0 instructions: 440000067 cycles: 3353102295 heartbeat IPC: 0.08358 cumulative IPC: 0.1312 (Simulation time: 06 hr 07 min 00 sec)
Simulation CPU 0 critical: IPC 0.012519 < 0.02
Simulation CPU 0 panic: IPC 9.6e-06 < 0.01
Heartbeat CPU 0 instructions: 450000067 cycles: 3426182984 heartbeat IPC: 0.1368 cumulative IPC: 0.1313 (Simulation time: 06 hr 14 min 14 sec)
Simulation CPU 0 panic: IPC 0.000352 < 0.01
Simulation CPU 0 warning: IPC 0.032841 < 0.05
Simulation CPU 0 panic: IPC 9.6e-06 < 0.01
Simulation CPU 0 warning: IPC 0.034415 < 0.05
Heartbeat CPU 0 instructions: 460000069 cycles: 3517793639 heartbeat IPC: 0.1092 cumulative IPC: 0.1308 (Simulation time: 06 hr 24 min 45 sec)
[ERROR_CYCLE] Error added at CPU cycle 3526620075, interval 5, pending count: 1
[DRAM_CYCLE_ERROR] Cycle-based error applied! address=0x520d02488 additional_latency=2459910500 cycles
Simulation CPU 0 panic: IPC 0 < 0.01
Simulation CPU 0 warning: IPC 0.04551 < 0.05
Simulation CPU 0 warning: IPC 0.026491 < 0.05
Heartbeat CPU 0 instructions: 470000073 cycles: 3582289812 heartbeat IPC: 0.155 cumulative IPC: 0.1312 (Simulation time: 06 hr 31 min 31 sec)
Simulation CPU 0 warning: IPC 0.045492 < 0.05
Simulation CPU 0 panic: IPC 9.6e-06 < 0.01
Simulation CPU 0 panic: IPC 9.6e-06 < 0.01
Simulation CPU 0 critical: IPC 0.011866 < 0.02
Simulation CPU 0 warning: IPC 0.034433 < 0.05
Simulation CPU 0 warning: IPC 0.045723 < 0.05
Simulation CPU 0 warning: IPC 0.032855 < 0.05
Heartbeat CPU 0 instructions: 480000074 cycles: 3701695923 heartbeat IPC: 0.08375 cumulative IPC: 0.1297 (Simulation time: 06 hr 43 min 36 sec)
Simulation CPU 0 critical: IPC 0.012519 < 0.02
Simulation CPU 0 critical: IPC 0.012519 < 0.02
Heartbeat CPU 0 instructions: 490000074 cycles: 3784275770 heartbeat IPC: 0.1211 cumulative IPC: 0.1295 (Simulation time: 06 hr 50 min 39 sec)
Simulation CPU 0 panic: IPC 9.6e-06 < 0.01
Simulation CPU 0 warning: IPC 0.032951 < 0.05
Simulation CPU 0 warning: IPC 0.048571 < 0.05
Simulation CPU 0 panic: IPC 9.6e-06 < 0.01
Simulation CPU 0 warning: IPC 0.034433 < 0.05
Heartbeat CPU 0 instructions: 500000076 cycles: 3894293520 heartbeat IPC: 0.09089 cumulative IPC: 0.1284 (Simulation time: 07 hr 03 min 12 sec)
Simulation CPU 0 warning: IPC 0.0454 < 0.05
Simulation CPU 0 warning: IPC 0.026601 < 0.05
Heartbeat CPU 0 instructions: 510000079 cycles: 3948954528 heartbeat IPC: 0.1829 cumulative IPC: 0.1291 (Simulation time: 07 hr 08 min 26 sec)
Simulation CPU 0 panic: IPC 9.6e-06 < 0.01
Simulation CPU 0 warning: IPC 0.032915 < 0.05
Simulation CPU 0 critical: IPC 0.011976 < 0.02
Simulation CPU 0 warning: IPC 0.034433 < 0.05
Simulation CPU 0 warning: IPC 0.045613 < 0.05
Heartbeat CPU 0 instructions: 520000083 cycles: 4059065222 heartbeat IPC: 0.09082 cumulative IPC: 0.1281 (Simulation time: 07 hr 20 min 48 sec)
Simulation CPU 0 critical: IPC 0.012519 < 0.02
Simulation CPU 0 critical: IPC 0.012519 < 0.02
Heartbeat CPU 0 instructions: 530000087 cycles: 4132413513 heartbeat IPC: 0.1363 cumulative IPC: 0.1283 (Simulation time: 07 hr 28 min 06 sec)
Simulation CPU 0 panic: IPC 9.6e-06 < 0.01
Simulation CPU 0 warning: IPC 0.033061 < 0.05
Simulation CPU 0 panic: IPC 9.6e-06 < 0.01
[ERROR_CYCLE] Error added at CPU cycle 4231944091, interval 6, pending count: 1
[DRAM_CYCLE_ERROR] Cycle-based error applied! address=0x686300108 additional_latency=2459910500 cycles
Simulation CPU 0 panic: IPC 0 < 0.01
Simulation CPU 0 warning: IPC 0.034433 < 0.05
Heartbeat CPU 0 instructions: 540000087 cycles: 4261574769 heartbeat IPC: 0.07742 cumulative IPC: 0.1267 (Simulation time: 07 hr 41 min 25 sec)
Simulation CPU 0 warning: IPC 0.025137 < 0.05
Simulation CPU 0 warning: IPC 0.026711 < 0.05
Heartbeat CPU 0 instructions: 550000089 cycles: 4325463677 heartbeat IPC: 0.1565 cumulative IPC: 0.1272 (Simulation time: 07 hr 47 min 38 sec)
Simulation CPU 0 panic: IPC 9.6e-06 < 0.01
Simulation CPU 0 panic: IPC 9.6e-06 < 0.01
Simulation CPU 0 critical: IPC 0.012086 < 0.02
Simulation CPU 0 warning: IPC 0.034433 < 0.05
Simulation CPU 0 warning: IPC 0.045503 < 0.05
Simulation CPU 0 panic: IPC 9.6e-06 < 0.01
Heartbeat CPU 0 instructions: 560000093 cycles: 4444807738 heartbeat IPC: 0.08379 cumulative IPC: 0.126 (Simulation time: 08 hr 01 min 14 sec)
Simulation CPU 0 critical: IPC 0.012519 < 0.02
Simulation CPU 0 critical: IPC 0.012519 < 0.02
Heartbeat CPU 0 instructions: 570000097 cycles: 4508757850 heartbeat IPC: 0.1564 cumulative IPC: 0.1264 (Simulation time: 08 hr 07 min 40 sec)
Simulation CPU 0 panic: IPC 9.6e-06 < 0.01
Simulation CPU 0 warning: IPC 0.046326 < 0.05
Simulation CPU 0 panic: IPC 9.6e-06 < 0.01
Simulation CPU 0 warning: IPC 0.034433 < 0.05
Heartbeat CPU 0 instructions: 580000100 cycles: 4619134420 heartbeat IPC: 0.0906 cumulative IPC: 0.1256 (Simulation time: 08 hr 20 min 53 sec)
Simulation CPU 0 panic: IPC 9.6e-06 < 0.01
Simulation CPU 0 warning: IPC 0.026821 < 0.05
Heartbeat CPU 0 instructions: 590000101 cycles: 4701384783 heartbeat IPC: 0.1216 cumulative IPC: 0.1255 (Simulation time: 08 hr 29 min 47 sec)
Simulation CPU 0 panic: IPC 9.6e-06 < 0.01
Simulation CPU 0 warning: IPC 0.029887 < 0.05
Simulation CPU 0 panic: IPC 9.6e-06 < 0.01
Simulation CPU 0 warning: IPC 0.034433 < 0.05
Simulation CPU 0 warning: IPC 0.045393 < 0.05
Simulation CPU 0 panic: IPC 9.6e-06 < 0.01
Heartbeat CPU 0 instructions: 600000105 cycles: 4820734048 heartbeat IPC: 0.08379 cumulative IPC: 0.1245 (Simulation time: 08 hr 43 min 13 sec)
Simulation CPU 0 critical: IPC 0.012519 < 0.02
Heartbeat CPU 0 instructions: 610000107 cycles: 4846107826 heartbeat IPC: 0.3941 cumulative IPC: 0.1259 (Simulation time: 08 hr 46 min 33 sec)
Simulation CPU 0 critical: IPC 0.012519 < 0.02
Heartbeat CPU 0 instructions: 620000108 cycles: 4880511324 heartbeat IPC: 0.2907 cumulative IPC: 0.127 (Simulation time: 08 hr 50 min 56 sec)
Simulation CPU 0 panic: IPC 3.8e-05 < 0.01
Heartbeat CPU 0 instructions: 630000109 cycles: 4914902127 heartbeat IPC: 0.2908 cumulative IPC: 0.1282 (Simulation time: 08 hr 55 min 24 sec)
Simulation CPU 0 warning: IPC 0.03328 < 0.05
[ERROR_CYCLE] Error added at CPU cycle 4937268106, interval 7, pending count: 1
[DRAM_CYCLE_ERROR] Cycle-based error applied! address=0x3c2ba2760 additional_latency=2459910500 cycles
Simulation CPU 0 panic: IPC 0 < 0.01
Simulation CPU 0 panic: IPC 3.8e-05 < 0.01
Heartbeat CPU 0 instructions: 640000109 cycles: 4977618150 heartbeat IPC: 0.1594 cumulative IPC: 0.1286 (Simulation time: 09 hr 03 min 02 sec)
Simulation CPU 0 warning: IPC 0.034433 < 0.05
Simulation CPU 0 panic: IPC 4e-05 < 0.01
Heartbeat CPU 0 instructions: 650000113 cycles: 5021081018 heartbeat IPC: 0.2301 cumulative IPC: 0.1295 (Simulation time: 09 hr 07 min 54 sec)
Simulation CPU 0 warning: IPC 0.025357 < 0.05
Heartbeat CPU 0 instructions: 660000113 cycles: 5055249699 heartbeat IPC: 0.2927 cumulative IPC: 0.1306 (Simulation time: 09 hr 11 min 05 sec)
Simulation CPU 0 warning: IPC 0.026931 < 0.05
Heartbeat CPU 0 instructions: 670000114 cycles: 5080193103 heartbeat IPC: 0.4009 cumulative IPC: 0.1319 (Simulation time: 09 hr 13 min 55 sec)
Simulation CPU 0 panic: IPC 9.6e-06 < 0.01
Simulation CPU 0 panic: IPC 9.6e-06 < 0.01
Heartbeat CPU 0 instructions: 680000114 cycles: 5152148170 heartbeat IPC: 0.139 cumulative IPC: 0.132 (Simulation time: 09 hr 22 min 24 sec)
Simulation CPU 0 warning: IPC 0.037686 < 0.05
Simulation CPU 0 panic: IPC 9.6e-06 < 0.01
Simulation CPU 0 critical: IPC 0.012519 < 0.02
Heartbeat CPU 0 instructions: 690000115 cycles: 5215009408 heartbeat IPC: 0.1591 cumulative IPC: 0.1323 (Simulation time: 09 hr 30 min 03 sec)
Simulation CPU 0 critical: IPC 0.012519 < 0.02
Heartbeat CPU 0 instructions: 700000115 cycles: 5249164272 heartbeat IPC: 0.2928 cumulative IPC: 0.1334 (Simulation time: 09 hr 33 min 44 sec)
Simulation CPU 0 warning: IPC 0.045713 < 0.05
Simulation CPU 0 panic: IPC 9.6e-06 < 0.01
Heartbeat CPU 0 instructions: 710000117 cycles: 5302420950 heartbeat IPC: 0.1878 cumulative IPC: 0.1339 (Simulation time: 09 hr 39 min 43 sec)
Simulation CPU 0 warning: IPC 0.030259 < 0.05
Simulation CPU 0 panic: IPC 9.6e-06 < 0.01
Simulation CPU 0 warning: IPC 0.034433 < 0.05
Simulation CPU 0 panic: IPC 9.6e-06 < 0.01
Simulation CPU 0 warning: IPC 0.025467 < 0.05
Heartbeat CPU 0 instructions: 720000119 cycles: 5422029197 heartbeat IPC: 0.08361 cumulative IPC: 0.1328 (Simulation time: 09 hr 53 min 45 sec)
Simulation CPU 0 warning: IPC 0.034433 < 0.05
Simulation CPU 0 warning: IPC 0.02704 < 0.05
Simulation CPU 0 warning: IPC 0.045527 < 0.05
Simulation CPU 0 panic: IPC 9.6e-06 < 0.01
Heartbeat CPU 0 instructions: 730000120 cycles: 5504377745 heartbeat IPC: 0.1214 cumulative IPC: 0.1326 (Simulation time: 10 hr 02 min 40 sec)
Simulation CPU 0 panic: IPC 9.6e-06 < 0.01
Simulation CPU 0 panic: IPC 9.6e-06 < 0.01
Simulation CPU 0 critical: IPC 0.012519 < 0.02
Heartbeat CPU 0 instructions: 740000123 cycles: 5586755628 heartbeat IPC: 0.1214 cumulative IPC: 0.1325 (Simulation time: 10 hr 10 min 18 sec)
Simulation CPU 0 critical: IPC 0.012519 < 0.02
[ERROR_CYCLE] Error added at CPU cycle 5642592121, interval 8, pending count: 1
[DRAM_CYCLE_ERROR] Cycle-based error applied! address=0x3c2be4750 additional_latency=2459910500 cycles
Simulation CPU 0 panic: IPC 0 < 0.01
Simulation CPU 0 panic: IPC 9.6e-06 < 0.01
Simulation CPU 0 warning: IPC 0.020012 < 0.05
Heartbeat CPU 0 instructions: 750000124 cycles: 5678981417 heartbeat IPC: 0.1084 cumulative IPC: 0.1321 (Simulation time: 10 hr 19 min 41 sec)
Simulation CPU 0 panic: IPC 9.6e-06 < 0.01
Heartbeat CPU 0 instructions: 760000124 cycles: 5779895650 heartbeat IPC: 0.09909 cumulative IPC: 0.1315 (Simulation time: 10 hr 30 min 38 sec)
Simulation CPU 0 warning: IPC 0.02715 < 0.05
Simulation CPU 0 warning: IPC 0.045418 < 0.05
Heartbeat CPU 0 instructions: 770000125 cycles: 5853293512 heartbeat IPC: 0.1362 cumulative IPC: 0.1315 (Simulation time: 10 hr 38 min 25 sec)
Simulation CPU 0 panic: IPC 9.6e-06 < 0.01
Simulation CPU 0 panic: IPC 9.6e-06 < 0.01
Simulation CPU 0 critical: IPC 0.012519 < 0.02
Heartbeat CPU 0 instructions: 780000128 cycles: 5935527075 heartbeat IPC: 0.1216 cumulative IPC: 0.1314 (Simulation time: 10 hr 46 min 39 sec)
Simulation CPU 0 critical: IPC 0.012519 < 0.02
Simulation CPU 0 warning: IPC 0.046247 < 0.05
Heartbeat CPU 0 instructions: 790000129 cycles: 5990201923 heartbeat IPC: 0.1829 cumulative IPC: 0.1319 (Simulation time: 10 hr 51 min 14 sec)
Simulation CPU 0 warning: IPC 0.039174 < 0.05
Simulation CPU 0 warning: IPC 0.034433 < 0.05
Simulation CPU 0 warning: IPC 0.037106 < 0.05
Heartbeat CPU 0 instructions: 800000129 cycles: 6081853829 heartbeat IPC: 0.1091 cumulative IPC: 0.1315 (Simulation time: 11 hr 00 min 52 sec)
Simulation CPU 0 warning: IPC 0.046882 < 0.05
Simulation CPU 0 panic: IPC 0.0094627 < 0.01
Simulation CPU 0 warning: IPC 0.034433 < 0.05
Simulation CPU 0 critical: IPC 0.011036 < 0.02
Heartbeat CPU 0 instructions: 810000131 cycles: 6173645627 heartbeat IPC: 0.1089 cumulative IPC: 0.1312 (Simulation time: 11 hr 11 min 41 sec)
Simulation CPU 0 warning: IPC 0.048453 < 0.05
Simulation CPU 0 panic: IPC 9.6e-06 < 0.01
Simulation CPU 0 panic: IPC 9.6e-06 < 0.01
Simulation CPU 0 critical: IPC 0.012519 < 0.02
Heartbeat CPU 0 instructions: 820000134 cycles: 6292973883 heartbeat IPC: 0.0838 cumulative IPC: 0.1303 (Simulation time: 11 hr 24 min 45 sec)
Simulation CPU 0 critical: IPC 0.012519 < 0.02
Simulation CPU 0 warning: IPC 0.046137 < 0.05
Heartbeat CPU 0 instructions: 830000138 cycles: 6347634734 heartbeat IPC: 0.1829 cumulative IPC: 0.1308 (Simulation time: 11 hr 30 min 58 sec)
[ERROR_CYCLE] Error added at CPU cycle 6347916135, interval 9, pending count: 1
[DRAM_CYCLE_ERROR] Cycle-based error applied! address=0x3a87e4d00 additional_latency=2459910500 cycles
Simulation CPU 0 panic: IPC 9.6e-06 < 0.01
Simulation CPU 0 warning: IPC 0.034433 < 0.05
Simulation CPU 0 warning: IPC 0.048571 < 0.05
Simulation CPU 0 panic: IPC 9.6e-06 < 0.01
Heartbeat CPU 0 instructions: 840000141 cycles: 6449088113 heartbeat IPC: 0.09857 cumulative IPC: 0.1303 (Simulation time: 11 hr 43 min 00 sec)
Simulation CPU 0 warning: IPC 0.046772 < 0.05
Simulation CPU 0 panic: IPC 0.0095725 < 0.01
Simulation CPU 0 warning: IPC 0.034433 < 0.05
Simulation CPU 0 critical: IPC 0.017737 < 0.02
Heartbeat CPU 0 instructions: 850000141 cycles: 6540699522 heartbeat IPC: 0.1092 cumulative IPC: 0.13 (Simulation time: 11 hr 53 min 49 sec)
Simulation CPU 0 panic: IPC 9.6e-06 < 0.01
Simulation CPU 0 panic: IPC 9.6e-06 < 0.01
Simulation CPU 0 critical: IPC 0.012519 < 0.02
Heartbeat CPU 0 instructions: 860000145 cycles: 6651111850 heartbeat IPC: 0.09057 cumulative IPC: 0.1293 (Simulation time: 12 hr 04 min 55 sec)
Simulation CPU 0 critical: IPC 0.012519 < 0.02
Simulation CPU 0 warning: IPC 0.046028 < 0.05
Heartbeat CPU 0 instructions: 870000148 cycles: 6724097079 heartbeat IPC: 0.137 cumulative IPC: 0.1294 (Simulation time: 12 hr 11 min 00 sec)
Simulation CPU 0 panic: IPC 9.6e-06 < 0.01
Simulation CPU 0 warning: IPC 0.034433 < 0.05
Simulation CPU 0 panic: IPC 9.6e-06 < 0.01
Heartbeat CPU 0 instructions: 880000152 cycles: 6815711107 heartbeat IPC: 0.1092 cumulative IPC: 0.1291 (Simulation time: 12 hr 20 min 17 sec)
Simulation CPU 0 warning: IPC 0.046662 < 0.05
Simulation CPU 0 panic: IPC 0.0096823 < 0.01
Simulation CPU 0 warning: IPC 0.034433 < 0.05
Simulation CPU 0 critical: IPC 0.011256 < 0.02
Heartbeat CPU 0 instructions: 890000155 cycles: 6898074759 heartbeat IPC: 0.1214 cumulative IPC: 0.129 (Simulation time: 12 hr 29 min 01 sec)
Simulation CPU 0 panic: IPC 9.6e-06 < 0.01
Simulation CPU 0 panic: IPC 9.6e-06 < 0.01
Simulation CPU 0 critical: IPC 0.012519 < 0.02
Heartbeat CPU 0 instructions: 900000156 cycles: 6999060933 heartbeat IPC: 0.09902 cumulative IPC: 0.1286 (Simulation time: 12 hr 41 min 13 sec)
Simulation CPU 0 panic: IPC 9.6e-06 < 0.01
Simulation CPU 0 warning: IPC 0.049772 < 0.05
Simulation CPU 0 warning: IPC 0.045918 < 0.05
[ERROR_CYCLE] Error added at CPU cycle 7053240150, interval 10, pending count: 1
[DRAM_CYCLE_ERROR] Cycle-based error applied! address=0x30f16c1b8 additional_latency=2459910500 cycles
Simulation CPU 0 panic: IPC 0 < 0.01
Heartbeat CPU 0 instructions: 910000156 cycles: 7091332941 heartbeat IPC: 0.1084 cumulative IPC: 0.1283 (Simulation time: 12 hr 52 min 28 sec)
Simulation CPU 0 panic: IPC 9.6e-06 < 0.01
Simulation CPU 0 warning: IPC 0.034433 < 0.05
Simulation CPU 0 panic: IPC 9.6e-06 < 0.01
Heartbeat CPU 0 instructions: 920000159 cycles: 7182944315 heartbeat IPC: 0.1092 cumulative IPC: 0.1281 (Simulation time: 13 hr 03 min 42 sec)
Simulation CPU 0 warning: IPC 0.043422 < 0.05
Simulation CPU 0 panic: IPC 0.0097921 < 0.01
Simulation CPU 0 warning: IPC 0.034433 < 0.05
Simulation CPU 0 panic: IPC 9.6e-06 < 0.01
Simulation CPU 0 critical: IPC 0.011366 < 0.02
Heartbeat CPU 0 instructions: 930000159 cycles: 7283808345 heartbeat IPC: 0.09914 cumulative IPC: 0.1277 (Simulation time: 13 hr 15 min 17 sec)
Simulation CPU 0 panic: IPC 9.6e-06 < 0.01
Simulation CPU 0 panic: IPC 9.6e-06 < 0.01
Heartbeat CPU 0 instructions: 940000161 cycles: 7366181524 heartbeat IPC: 0.1214 cumulative IPC: 0.1276 (Simulation time: 13 hr 23 min 29 sec)
Simulation CPU 0 panic: IPC 9.6e-06 < 0.01
Simulation CPU 0 critical: IPC 0.012519 < 0.02
Simulation CPU 0 warning: IPC 0.045808 < 0.05
Heartbeat CPU 0 instructions: 950000161 cycles: 7458114740 heartbeat IPC: 0.1088 cumulative IPC: 0.1274 (Simulation time: 13 hr 33 min 25 sec)
Simulation CPU 0 panic: IPC 9.6e-06 < 0.01
Simulation CPU 0 warning: IPC 0.034433 < 0.05
Simulation CPU 0 panic: IPC 9.6e-06 < 0.01
Heartbeat CPU 0 instructions: 960000163 cycles: 7540397986 heartbeat IPC: 0.1215 cumulative IPC: 0.1273 (Simulation time: 13 hr 42 min 19 sec)
Simulation CPU 0 panic: IPC 0.0099019 < 0.01
Simulation CPU 0 warning: IPC 0.034433 < 0.05
Simulation CPU 0 panic: IPC 9.6e-06 < 0.01
Simulation CPU 0 critical: IPC 0.011476 < 0.02
Heartbeat CPU 0 instructions: 970000164 cycles: 7622793432 heartbeat IPC: 0.1214 cumulative IPC: 0.1272 (Simulation time: 13 hr 51 min 03 sec)
Simulation CPU 0 panic: IPC 9.6e-06 < 0.01
Simulation CPU 0 panic: IPC 9.6e-06 < 0.01
Heartbeat CPU 0 instructions: 980000164 cycles: 7705206707 heartbeat IPC: 0.1213 cumulative IPC: 0.1272 (Simulation time: 14 hr 00 min 56 sec)
Simulation CPU 0 panic: IPC 9.6e-06 < 0.01
[ERROR_CYCLE] Error added at CPU cycle 7758564165, interval 11, pending count: 1
Simulation CPU 0 critical: IPC 0.012519 < 0.02
[DRAM_CYCLE_ERROR] Cycle-based error applied! address=0x30f1b0d30 additional_latency=2459910500 cycles
Simulation CPU 0 panic: IPC 0 < 0.01
Simulation CPU 0 warning: IPC 0.045698 < 0.05
Heartbeat CPU 0 instructions: 990000166 cycles: 7797541605 heartbeat IPC: 0.1083 cumulative IPC: 0.127 (Simulation time: 14 hr 11 min 52 sec)
Simulation CPU 0 warning: IPC 0.024243 < 0.05
Heartbeat CPU 0 instructions: 1000000170 cycles: 7880074616 heartbeat IPC: 0.1212 cumulative IPC: 0.1269 (Simulation time: 14 hr 21 min 42 sec)
Simulation CPU 0 warning: IPC 0.037249 < 0.05
Simulation CPU 0 warning: IPC 0.023527 < 0.05
Simulation CPU 0 warning: IPC 0.043419 < 0.05
Simulation CPU 0 warning: IPC 0.043812 < 0.05
Heartbeat CPU 0 instructions: 1010000170 cycles: 7990124529 heartbeat IPC: 0.09087 cumulative IPC: 0.1264 (Simulation time: 14 hr 34 min 26 sec)
Simulation CPU 0 panic: IPC 9.6e-06 < 0.01
Simulation CPU 0 panic: IPC 9.6e-06 < 0.01
Heartbeat CPU 0 instructions: 1020000170 cycles: 8072527704 heartbeat IPC: 0.1214 cumulative IPC: 0.1264 (Simulation time: 14 hr 43 min 55 sec)
Simulation CPU 0 panic: IPC 9.6e-06 < 0.01
Simulation CPU 0 critical: IPC 0.012519 < 0.02
Simulation CPU 0 warning: IPC 0.045588 < 0.05
Simulation CPU 0 warning: IPC 0.03267 < 0.05
Heartbeat CPU 0 instructions: 1030000174 cycles: 8154913799 heartbeat IPC: 0.1214 cumulative IPC: 0.1263 (Simulation time: 14 hr 53 min 48 sec)
Simulation CPU 0 panic: IPC 9.6e-06 < 0.01
Heartbeat CPU 0 instructions: 1040000176 cycles: 8237580666 heartbeat IPC: 0.121 cumulative IPC: 0.1263 (Simulation time: 15 hr 03 min 43 sec)
Simulation CPU 0 panic: IPC 9.6e-06 < 0.01
Simulation CPU 0 critical: IPC 0.010122 < 0.02
Simulation CPU 0 warning: IPC 0.034433 < 0.05
Simulation CPU 0 panic: IPC 9.6e-06 < 0.01
Simulation CPU 0 critical: IPC 0.011695 < 0.02
Simulation CPU 0 warning: IPC 0.034433 < 0.05
Heartbeat CPU 0 instructions: 1050000178 cycles: 8338411420 heartbeat IPC: 0.09918 cumulative IPC: 0.1259 (Simulation time: 15 hr 14 min 51 sec)
Simulation CPU 0 panic: IPC 9.6e-06 < 0.01
Heartbeat CPU 0 instructions: 1060000182 cycles: 8402334205 heartbeat IPC: 0.1564 cumulative IPC: 0.1262 (Simulation time: 15 hr 21 min 36 sec)
Simulation CPU 0 panic: IPC 9.6e-06 < 0.01
Simulation CPU 0 critical: IPC 0.012519 < 0.02
Simulation CPU 0 warning: IPC 0.045479 < 0.05
[ERROR_CYCLE] Error added at CPU cycle 8463888181, interval 12, pending count: 1
[DRAM_CYCLE_ERROR] Cycle-based error applied! address=0x481e2dd40 additional_latency=2459910500 cycles
Simulation CPU 0 critical: IPC 0.013395 < 0.02
Simulation CPU 0 critical: IPC 0.019385 < 0.02
Heartbeat CPU 0 instructions: 1070000184 cycles: 8485321799 heartbeat IPC: 0.1205 cumulative IPC: 0.1261 (Simulation time: 15 hr 30 min 51 sec)
Heartbeat CPU 0 instructions: 1080000186 cycles: 8540047002 heartbeat IPC: 0.1827 cumulative IPC: 0.1265 (Simulation time: 15 hr 36 min 21 sec)
Simulation CPU 0 warning: IPC 0.040534 < 0.05
Simulation CPU 0 critical: IPC 0.010231 < 0.02
Simulation CPU 0 warning: IPC 0.034433 < 0.05
Simulation CPU 0 panic: IPC 9.6e-06 < 0.01
Simulation CPU 0 warning: IPC 0.048968 < 0.05
Simulation CPU 0 warning: IPC 0.034433 < 0.05
Heartbeat CPU 0 instructions: 1090000187 cycles: 8668868535 heartbeat IPC: 0.07763 cumulative IPC: 0.1257 (Simulation time: 15 hr 50 min 43 sec)
Simulation CPU 0 critical: IPC 0.012519 < 0.02
Simulation CPU 0 panic: IPC 9.6e-06 < 0.01
Heartbeat CPU 0 instructions: 1100000189 cycles: 8741892759 heartbeat IPC: 0.1369 cumulative IPC: 0.1258 (Simulation time: 15 hr 59 min 35 sec)
Simulation CPU 0 warning: IPC 0.031316 < 0.05
Simulation CPU 0 warning: IPC 0.045428 < 0.05
Simulation CPU 0 panic: IPC 9.6e-06 < 0.01
Simulation CPU 0 warning: IPC 0.03289 < 0.05
Heartbeat CPU 0 instructions: 1110000190 cycles: 8833514777 heartbeat IPC: 0.1091 cumulative IPC: 0.1257 (Simulation time: 16 hr 08 min 44 sec)
Heartbeat CPU 0 instructions: 1120000190 cycles: 8878970615 heartbeat IPC: 0.22 cumulative IPC: 0.1261 (Simulation time: 16 hr 13 min 26 sec)
Simulation CPU 0 warning: IPC 0.045461 < 0.05
Simulation CPU 0 warning: IPC 0.04711 < 0.05
Simulation CPU 0 panic: IPC 9.6e-06 < 0.01
Simulation CPU 0 critical: IPC 0.010341 < 0.02
Simulation CPU 0 warning: IPC 0.034433 < 0.05
Simulation CPU 0 panic: IPC 9.6e-06 < 0.01
Simulation CPU 0 critical: IPC 0.011915 < 0.02
Heartbeat CPU 0 instructions: 1130000190 cycles: 9007750233 heartbeat IPC: 0.07765 cumulative IPC: 0.1254 (Simulation time: 16 hr 27 min 03 sec)
Simulation CPU 0 warning: IPC 0.034433 < 0.05
Simulation CPU 0 warning: IPC 0.041774 < 0.05
Heartbeat CPU 0 instructions: 1140000194 cycles: 9099384223 heartbeat IPC: 0.1091 cumulative IPC: 0.1253 (Simulation time: 16 hr 36 min 29 sec)
Simulation CPU 0 warning: IPC 0.031426 < 0.05
[ERROR_CYCLE] Error added at CPU cycle 9169212196, interval 13, pending count: 1
[DRAM_CYCLE_ERROR] Cycle-based error applied! address=0x6d7200000 additional_latency=2459910500 cycles
Simulation CPU 0 panic: IPC 0 < 0.01
Simulation CPU 0 warning: IPC 0.033 < 0.05
Heartbeat CPU 0 instructions: 1150000194 cycles: 9200863996 heartbeat IPC: 0.09854 cumulative IPC: 0.125 (Simulation time: 16 hr 47 min 48 sec)
Simulation CPU 0 warning: IPC 0.046925 < 0.05
Simulation CPU 0 warning: IPC 0.025076 < 0.05
Heartbeat CPU 0 instructions: 1160000195 cycles: 9255563527 heartbeat IPC: 0.1828 cumulative IPC: 0.1253 (Simulation time: 16 hr 52 min 42 sec)
Simulation CPU 0 panic: IPC 9.6e-06 < 0.01
Simulation CPU 0 critical: IPC 0.010451 < 0.02
Simulation CPU 0 warning: IPC 0.034433 < 0.05
Simulation CPU 0 panic: IPC 9.6e-06 < 0.01
Heartbeat CPU 0 instructions: 1170000199 cycles: 9356492410 heartbeat IPC: 0.09908 cumulative IPC: 0.125 (Simulation time: 17 hr 02 min 40 sec)
Simulation CPU 0 critical: IPC 0.012025 < 0.02
Simulation CPU 0 warning: IPC 0.034433 < 0.05
Simulation CPU 0 critical: IPC 0.012519 < 0.02
Heartbeat CPU 0 instructions: 1180000199 cycles: 9439202027 heartbeat IPC: 0.1209 cumulative IPC: 0.125 (Simulation time: 17 hr 10 min 14 sec)
Simulation CPU 0 panic: IPC 9.6e-06 < 0.01
Simulation CPU 0 panic: IPC 9.6e-06 < 0.01
Simulation CPU 0 warning: IPC 0.044855 < 0.05
Simulation CPU 0 panic: IPC 9.6e-06 < 0.01
Simulation CPU 0 panic: IPC 0.0038386 < 0.01
Heartbeat CPU 0 instructions: 1190000199 cycles: 9567672743 heartbeat IPC: 0.07784 cumulative IPC: 0.1244 (Simulation time: 17 hr 23 min 45 sec)
Simulation CPU 0 warning: IPC 0.046815 < 0.05
Simulation CPU 0 warning: IPC 0.025186 < 0.05
Heartbeat CPU 0 instructions: 1200000202 cycles: 9622360473 heartbeat IPC: 0.1829 cumulative IPC: 0.1247 (Simulation time: 17 hr 29 min 14 sec)
Simulation CPU 0 panic: IPC 9.6e-06 < 0.01
Simulation CPU 0 panic: IPC 0.0074301 < 0.01
Simulation CPU 0 warning: IPC 0.034433 < 0.05
Simulation CPU 0 panic: IPC 9.6e-06 < 0.01
Simulation CPU 0 panic: IPC 9.6e-06 < 0.01
Heartbeat CPU 0 instructions: 1210000203 cycles: 9732474313 heartbeat IPC: 0.09082 cumulative IPC: 0.1243 (Simulation time: 17 hr 40 min 29 sec)
Simulation CPU 0 critical: IPC 0.012134 < 0.02
Simulation CPU 0 warning: IPC 0.034433 < 0.05
Simulation CPU 0 critical: IPC 0.012519 < 0.02
Heartbeat CPU 0 instructions: 1220000207 cycles: 9815009149 heartbeat IPC: 0.1212 cumulative IPC: 0.1243 (Simulation time: 17 hr 49 min 10 sec)
Simulation CPU 0 panic: IPC 9.6e-06 < 0.01
Simulation CPU 0 warning: IPC 0.031645 < 0.05
[ERROR_CYCLE] Error added at CPU cycle 9874536211, interval 14, pending count: 1
[DRAM_CYCLE_ERROR] Cycle-based error applied! address=0x3d1c00ab8 additional_latency=2459910500 cycles
Simulation CPU 0 panic: IPC 0 < 0.01
Simulation CPU 0 panic: IPC 9.6e-06 < 0.01
Simulation CPU 0 warning: IPC 0.033219 < 0.05
Heartbeat CPU 0 instructions: 1230000208 cycles: 9916530035 heartbeat IPC: 0.0985 cumulative IPC: 0.124 (Simulation time: 18 hr 00 min 41 sec)
Simulation CPU 0 panic: IPC 9.6e-06 < 0.01
Simulation CPU 0 warning: IPC 0.046705 < 0.05
Simulation CPU 0 warning: IPC 0.025296 < 0.05
Heartbeat CPU 0 instructions: 1240000209 cycles: 9989670286 heartbeat IPC: 0.1367 cumulative IPC: 0.1241 (Simulation time: 18 hr 08 min 43 sec)
Simulation CPU 0 warning: IPC 0.035531 < 0.05
Simulation CPU 0 warning: IPC 0.034433 < 0.05
Simulation CPU 0 warning: IPC 0.046918 < 0.05
Simulation CPU 0 warning: IPC 0.033585 < 0.05
Heartbeat CPU 0 instructions: 1250000210 cycles: 10081300613 heartbeat IPC: 0.1091 cumulative IPC: 0.124 (Simulation time: 18 hr 18 min 48 sec)
Simulation CPU 0 panic: IPC 0.0056094 < 0.01
Simulation CPU 0 critical: IPC 0.012519 < 0.02
Heartbeat CPU 0 instructions: 1260000214 cycles: 10154442811 heartbeat IPC: 0.1367 cumulative IPC: 0.1241 (Simulation time: 18 hr 27 min 24 sec)
Simulation CPU 0 panic: IPC 9.6e-06 < 0.01
Simulation CPU 0 warning: IPC 0.031755 < 0.05
Simulation CPU 0 panic: IPC 9.6e-06 < 0.01
Simulation CPU 0 warning: IPC 0.033329 < 0.05
Heartbeat CPU 0 instructions: 1270000214 cycles: 10255605617 heartbeat IPC: 0.09885 cumulative IPC: 0.1238 (Simulation time: 18 hr 38 min 43 sec)
Simulation CPU 0 panic: IPC 9.6e-06 < 0.01
Simulation CPU 0 warning: IPC 0.046595 < 0.05
Simulation CPU 0 warning: IPC 0.025406 < 0.05
Heartbeat CPU 0 instructions: 1280000218 cycles: 10328651696 heartbeat IPC: 0.1369 cumulative IPC: 0.1239 (Simulation time: 18 hr 46 min 55 sec)
Simulation CPU 0 warning: IPC 0.026979 < 0.05
Simulation CPU 0 warning: IPC 0.045723 < 0.05
Simulation CPU 0 warning: IPC 0.031302 < 0.05
Simulation CPU 0 warning: IPC 0.048215 < 0.05
Heartbeat CPU 0 instructions: 1290000218 cycles: 10420259181 heartbeat IPC: 0.1092 cumulative IPC: 0.1238 (Simulation time: 18 hr 57 min 07 sec)
Simulation CPU 0 critical: IPC 0.014474 < 0.02
Simulation CPU 0 critical: IPC 0.012354 < 0.02
Simulation CPU 0 critical: IPC 0.012519 < 0.02
Heartbeat CPU 0 instructions: 1300000218 cycles: 10521119431 heartbeat IPC: 0.09915 cumulative IPC: 0.1236 (Simulation time: 19 hr 08 min 51 sec)
Simulation CPU 0 warning: IPC 0.048856 < 0.05
Simulation CPU 0 panic: IPC 0.000593 < 0.01
[ERROR_CYCLE] Error added at CPU cycle 10579860225, interval 15, pending count: 1
[DRAM_CYCLE_ERROR] Cycle-based error applied! address=0x471901a38 additional_latency=2459910500 cycles
Simulation CPU 0 panic: IPC 0 < 0.01
Simulation CPU 0 panic: IPC 9.6e-06 < 0.01
Heartbeat CPU 0 instructions: 1310000218 cycles: 10631910061 heartbeat IPC: 0.09026 cumulative IPC: 0.1232 (Simulation time: 19 hr 20 min 11 sec)
Simulation CPU 0 warning: IPC 0.033439 < 0.05
Simulation CPU 0 panic: IPC 9.6e-06 < 0.01
Simulation CPU 0 warning: IPC 0.034433 < 0.05
Simulation CPU 0 warning: IPC 0.043355 < 0.05
Simulation CPU 0 warning: IPC 0.025515 < 0.05
Heartbeat CPU 0 instructions: 1320000222 cycles: 10723664000 heartbeat IPC: 0.109 cumulative IPC: 0.1231 (Simulation time: 19 hr 30 min 11 sec)
Simulation CPU 0 warning: IPC 0.027089 < 0.05
Simulation CPU 0 panic: IPC 9.6e-06 < 0.01
Simulation CPU 0 warning: IPC 0.046699 < 0.05
Simulation CPU 0 panic: IPC 9.6e-06 < 0.01
Heartbeat CPU 0 instructions: 1330000224 cycles: 10806003718 heartbeat IPC: 0.1214 cumulative IPC: 0.1231 (Simulation time: 19 hr 38 min 40 sec)
Simulation CPU 0 panic: IPC 9.6e-06 < 0.01
Simulation CPU 0 critical: IPC 0.012464 < 0.02
Simulation CPU 0 critical: IPC 0.012519 < 0.02
Heartbeat CPU 0 instructions: 1340000225 cycles: 10879160623 heartbeat IPC: 0.1367 cumulative IPC: 0.1232 (Simulation time: 19 hr 47 min 05 sec)
Simulation CPU 0 panic: IPC 9.6e-06 < 0.01
Heartbeat CPU 0 instructions: 1350000227 cycles: 10961528162 heartbeat IPC: 0.1214 cumulative IPC: 0.1232 (Simulation time: 19 hr 55 min 33 sec)
Simulation CPU 0 warning: IPC 0.033549 < 0.05
Simulation CPU 0 panic: IPC 9.6e-06 < 0.01
Simulation CPU 0 warning: IPC 0.034433 < 0.05
Simulation CPU 0 warning: IPC 0.025625 < 0.05
Heartbeat CPU 0 instructions: 1360000231 cycles: 11053426400 heartbeat IPC: 0.1088 cumulative IPC: 0.123 (Simulation time: 20 hr 06 min 19 sec)
Simulation CPU 0 warning: IPC 0.046943 < 0.05
Simulation CPU 0 panic: IPC 0.0094017 < 0.01
Simulation CPU 0 warning: IPC 0.041819 < 0.05
Simulation CPU 0 warning: IPC 0.046589 < 0.05
Simulation CPU 0 panic: IPC 9.6e-06 < 0.01
Heartbeat CPU 0 instructions: 1370000231 cycles: 11145006874 heartbeat IPC: 0.1092 cumulative IPC: 0.1229 (Simulation time: 20 hr 17 min 06 sec)
Simulation CPU 0 panic: IPC 9.6e-06 < 0.01
Simulation CPU 0 critical: IPC 0.012519 < 0.02
Simulation CPU 0 critical: IPC 0.012519 < 0.02
Heartbeat CPU 0 instructions: 1380000232 cycles: 11218160073 heartbeat IPC: 0.1367 cumulative IPC: 0.123 (Simulation time: 20 hr 25 min 17 sec)
Simulation CPU 0 critical: IPC 0.012519 < 0.02
[ERROR_CYCLE] Error added at CPU cycle 11285184240, interval 16, pending count: 1
[DRAM_CYCLE_ERROR] Cycle-based error applied! address=0x565300cf8 additional_latency=2459910500 cycles
Simulation CPU 0 panic: IPC 9.6e-06 < 0.01
Heartbeat CPU 0 instructions: 1390000232 cycles: 11301149862 heartbeat IPC: 0.1205 cumulative IPC: 0.123 (Simulation time: 20 hr 34 min 57 sec)
Simulation CPU 0 warning: IPC 0.033658 < 0.05
Simulation CPU 0 warning: IPC 0.045428 < 0.05
Simulation CPU 0 warning: IPC 0.034433 < 0.05
Heartbeat CPU 0 instructions: 1400000232 cycles: 11402087669 heartbeat IPC: 0.09907 cumulative IPC: 0.1228 (Simulation time: 20 hr 45 min 34 sec)
Simulation CPU 0 warning: IPC 0.025735 < 0.05
Simulation CPU 0 warning: IPC 0.046833 < 0.05
Simulation CPU 0 panic: IPC 0.0095115 < 0.01
Simulation CPU 0 critical: IPC 0.010641 < 0.02
Simulation CPU 0 warning: IPC 0.046479 < 0.05
Heartbeat CPU 0 instructions: 1410000234 cycles: 11493969564 heartbeat IPC: 0.1088 cumulative IPC: 0.1227 (Simulation time: 20 hr 55 min 03 sec)
Simulation CPU 0 warning: IPC 0.048746 < 0.05
Simulation CPU 0 panic: IPC 9.6e-06 < 0.01
Simulation CPU 0 panic: IPC 9.6e-06 < 0.01
Simulation CPU 0 critical: IPC 0.012519 < 0.02
Simulation CPU 0 critical: IPC 0.016514 < 0.02
Simulation CPU 0 critical: IPC 0.012519 < 0.02
Heartbeat CPU 0 instructions: 1420000234 cycles: 11603983191 heartbeat IPC: 0.0909 cumulative IPC: 0.1224 (Simulation time: 21 hr 06 min 58 sec)
Simulation CPU 0 critical: IPC 0.012519 < 0.02
Simulation CPU 0 panic: IPC 9.6e-06 < 0.01
Heartbeat CPU 0 instructions: 1430000235 cycles: 11677133044 heartbeat IPC: 0.1367 cumulative IPC: 0.1225 (Simulation time: 21 hr 15 min 50 sec)
Simulation CPU 0 warning: IPC 0.033768 < 0.05
Simulation CPU 0 panic: IPC 9.6e-06 < 0.01
Simulation CPU 0 warning: IPC 0.034433 < 0.05
Heartbeat CPU 0 instructions: 1440000238 cycles: 11768787188 heartbeat IPC: 0.1091 cumulative IPC: 0.1224 (Simulation time: 21 hr 26 min 50 sec)
Simulation CPU 0 warning: IPC 0.025845 < 0.05
Simulation CPU 0 warning: IPC 0.046723 < 0.05
Simulation CPU 0 panic: IPC 0.0096213 < 0.01
Heartbeat CPU 0 instructions: 1450000241 cycles: 11812127928 heartbeat IPC: 0.2307 cumulative IPC: 0.1228 (Simulation time: 21 hr 32 min 09 sec)
Heartbeat CPU 0 instructions: 1460000242 cycles: 11827782115 heartbeat IPC: 0.6388 cumulative IPC: 0.1234 (Simulation time: 21 hr 34 min 19 sec)
Simulation CPU 0 warning: IPC 0.046369 < 0.05
Simulation CPU 0 panic: IPC 4e-05 < 0.01
Simulation CPU 0 panic: IPC 4e-05 < 0.01
Heartbeat CPU 0 instructions: 1470000245 cycles: 11898868566 heartbeat IPC: 0.1407 cumulative IPC: 0.1235 (Simulation time: 21 hr 42 min 58 sec)
Heartbeat CPU 0 instructions: 1480000245 cycles: 11942236098 heartbeat IPC: 0.2306 cumulative IPC: 0.1239 (Simulation time: 21 hr 48 min 22 sec)
Simulation CPU 0 critical: IPC 0.012519 < 0.02
Heartbeat CPU 0 instructions: 1490000249 cycles: 11976374213 heartbeat IPC: 0.2929 cumulative IPC: 0.1244 (Simulation time: 21 hr 52 min 43 sec)
[ERROR_CYCLE] Error added at CPU cycle 11990508255, interval 17, pending count: 1
[DRAM_CYCLE_ERROR] Cycle-based error applied! address=0x6799472c8 additional_latency=2459910500 cycles
Simulation CPU 0 panic: IPC 0 < 0.01
Simulation CPU 0 critical: IPC 0.012519 < 0.02
Heartbeat CPU 0 instructions: 1500000249 cycles: 12020343404 heartbeat IPC: 0.2274 cumulative IPC: 0.1248 (Simulation time: 21 hr 58 min 10 sec)
Simulation CPU 0 panic: IPC 4e-05 < 0.01
Heartbeat CPU 0 instructions: 1510000250 cycles: 12072976422 heartbeat IPC: 0.19 cumulative IPC: 0.1251 (Simulation time: 22 hr 04 min 43 sec)
Simulation CPU 0 warning: IPC 0.033878 < 0.05
Simulation CPU 0 panic: IPC 4e-05 < 0.01
Heartbeat CPU 0 instructions: 1520000253 cycles: 12125581118 heartbeat IPC: 0.1901 cumulative IPC: 0.1254 (Simulation time: 22 hr 11 min 07 sec)
Simulation CPU 0 warning: IPC 0.034433 < 0.05
Simulation CPU 0 panic: IPC 4e-05 < 0.01
Heartbeat CPU 0 instructions: 1530000253 cycles: 12178203053 heartbeat IPC: 0.19 cumulative IPC: 0.1256 (Simulation time: 22 hr 17 min 40 sec)
Simulation CPU 0 warning: IPC 0.025955 < 0.05
Simulation CPU 0 warning: IPC 0.046613 < 0.05
Simulation CPU 0 panic: IPC 0.0097311 < 0.01
Heartbeat CPU 0 instructions: 1540000253 cycles: 12221572302 heartbeat IPC: 0.2306 cumulative IPC: 0.126 (Simulation time: 22 hr 23 min 01 sec)
Heartbeat CPU 0 instructions: 1550000256 cycles: 12237244293 heartbeat IPC: 0.6381 cumulative IPC: 0.1267 (Simulation time: 22 hr 25 min 12 sec)
Simulation CPU 0 warning: IPC 0.04626 < 0.05
Heartbeat CPU 0 instructions: 1560000257 cycles: 12289836341 heartbeat IPC: 0.1901 cumulative IPC: 0.1269 (Simulation time: 22 hr 30 min 50 sec)
Simulation CPU 0 warning: IPC 0.033349 < 0.05
Simulation CPU 0 panic: IPC 4e-05 < 0.01
Simulation CPU 0 panic: IPC 0.0093882 < 0.01
Heartbeat CPU 0 instructions: 1570000261 cycles: 12342376873 heartbeat IPC: 0.1903 cumulative IPC: 0.1272 (Simulation time: 22 hr 36 min 20 sec)
Simulation CPU 0 panic: IPC 4e-05 < 0.01
Heartbeat CPU 0 instructions: 1580000263 cycles: 12366852162 heartbeat IPC: 0.4086 cumulative IPC: 0.1278 (Simulation time: 22 hr 38 min 43 sec)
Simulation CPU 0 critical: IPC 0.012519 < 0.02
Heartbeat CPU 0 instructions: 1590000263 cycles: 12391648888 heartbeat IPC: 0.4033 cumulative IPC: 0.1283 (Simulation time: 22 hr 41 min 54 sec)
Simulation CPU 0 critical: IPC 0.012519 < 0.02
Heartbeat CPU 0 instructions: 1600000263 cycles: 12425780682 heartbeat IPC: 0.293 cumulative IPC: 0.1288 (Simulation time: 22 hr 46 min 01 sec)
Simulation CPU 0 panic: IPC 4e-05 < 0.01
Heartbeat CPU 0 instructions: 1610000265 cycles: 12478394514 heartbeat IPC: 0.1901 cumulative IPC: 0.129 (Simulation time: 22 hr 51 min 59 sec)
Simulation CPU 0 warning: IPC 0.033988 < 0.05
Simulation CPU 0 panic: IPC 4e-05 < 0.01
Heartbeat CPU 0 instructions: 1620000266 cycles: 12540239563 heartbeat IPC: 0.1617 cumulative IPC: 0.1292 (Simulation time: 22 hr 58 min 29 sec)
Simulation CPU 0 warning: IPC 0.034433 < 0.05
Simulation CPU 0 panic: IPC 4e-05 < 0.01
Heartbeat CPU 0 instructions: 1630000267 cycles: 12583625082 heartbeat IPC: 0.2305 cumulative IPC: 0.1295 (Simulation time: 23 hr 03 min 48 sec)
Simulation CPU 0 warning: IPC 0.026064 < 0.05
Simulation CPU 0 warning: IPC 0.046504 < 0.05
Simulation CPU 0 panic: IPC 0.0098409 < 0.01
Heartbeat CPU 0 instructions: 1640000271 cycles: 12636261446 heartbeat IPC: 0.19 cumulative IPC: 0.1298 (Simulation time: 23 hr 09 min 18 sec)
Heartbeat CPU 0 instructions: 1650000273 cycles: 12651917403 heartbeat IPC: 0.6387 cumulative IPC: 0.1304 (Simulation time: 23 hr 11 min 07 sec)
Simulation CPU 0 panic: IPC 4e-05 < 0.01
Heartbeat CPU 0 instructions: 1660000274 cycles: 12695304904 heartbeat IPC: 0.2305 cumulative IPC: 0.1308 (Simulation time: 23 hr 15 min 12 sec)
[ERROR_CYCLE] Error added at CPU cycle 12695832271, interval 18, pending count: 1
[DRAM_CYCLE_ERROR] Cycle-based error applied! address=0x5ac02a380 additional_latency=2459910500 cycles
Simulation CPU 0 panic: IPC 4e-05 < 0.01
Simulation CPU 0 panic: IPC 4e-05 < 0.01
Heartbeat CPU 0 instructions: 1670000278 cycles: 12766927432 heartbeat IPC: 0.1396 cumulative IPC: 0.1308 (Simulation time: 23 hr 23 min 57 sec)
Simulation CPU 0 warning: IPC 0.043329 < 0.05
Heartbeat CPU 0 instructions: 1680000279 cycles: 12791839831 heartbeat IPC: 0.4014 cumulative IPC: 0.1313 (Simulation time: 23 hr 27 min 01 sec)
Simulation CPU 0 critical: IPC 0.012519 < 0.02
Heartbeat CPU 0 instructions: 1690000280 cycles: 12825981727 heartbeat IPC: 0.2929 cumulative IPC: 0.1318 (Simulation time: 23 hr 31 min 10 sec)
Simulation CPU 0 warning: IPC 0.023999 < 0.05
Heartbeat CPU 0 instructions: 1700000280 cycles: 12860151719 heartbeat IPC: 0.2927 cumulative IPC: 0.1322 (Simulation time: 23 hr 34 min 36 sec)
Simulation CPU 0 warning: IPC 0.034098 < 0.05
Heartbeat CPU 0 instructions: 1710000280 cycles: 12894294249 heartbeat IPC: 0.2929 cumulative IPC: 0.1326 (Simulation time: 23 hr 38 min 50 sec)
Simulation CPU 0 panic: IPC 4e-05 < 0.01
Heartbeat CPU 0 instructions: 1720000280 cycles: 12928200012 heartbeat IPC: 0.2949 cumulative IPC: 0.133 (Simulation time: 23 hr 42 min 38 sec)
Simulation CPU 0 warning: IPC 0.034433 < 0.05
Simulation CPU 0 panic: IPC 4e-05 < 0.01
Heartbeat CPU 0 instructions: 1730000280 cycles: 12961945474 heartbeat IPC: 0.2963 cumulative IPC: 0.1335 (Simulation time: 23 hr 46 min 38 sec)
Simulation CPU 0 warning: IPC 0.026174 < 0.05
Simulation CPU 0 warning: IPC 0.046394 < 0.05
Simulation CPU 0 critical: IPC 0.016591 < 0.02
Heartbeat CPU 0 instructions: 1740000280 cycles: 13014573393 heartbeat IPC: 0.19 cumulative IPC: 0.1337 (Simulation time: 23 hr 52 min 26 sec)
Heartbeat CPU 0 instructions: 1750000283 cycles: 13039448473 heartbeat IPC: 0.402 cumulative IPC: 0.1342 (Simulation time: 23 hr 55 min 27 sec)
Simulation CPU 0 panic: IPC 4e-05 < 0.01
Heartbeat CPU 0 instructions: 1760000284 cycles: 13101293149 heartbeat IPC: 0.1617 cumulative IPC: 0.1343 (Simulation time: 00 hr 03 min 02 sec)
Simulation CPU 0 panic: IPC 0.0068769 < 0.01
Simulation CPU 0 panic: IPC 4e-05 < 0.01
Heartbeat CPU 0 instructions: 1770000288 cycles: 13153901832 heartbeat IPC: 0.1901 cumulative IPC: 0.1346 (Simulation time: 00 hr 08 min 49 sec)
Simulation CPU 0 critical: IPC 0.012519 < 0.02
Heartbeat CPU 0 instructions: 1780000291 cycles: 13188030498 heartbeat IPC: 0.293 cumulative IPC: 0.135 (Simulation time: 00 hr 12 min 49 sec)
Simulation CPU 0 warning: IPC 0.03435 < 0.05
Heartbeat CPU 0 instructions: 1790000291 cycles: 13222153343 heartbeat IPC: 0.2931 cumulative IPC: 0.1354 (Simulation time: 00 hr 16 min 32 sec)
Simulation CPU 0 panic: IPC 4e-05 < 0.01
Heartbeat CPU 0 instructions: 1800000291 cycles: 13265521280 heartbeat IPC: 0.2306 cumulative IPC: 0.1357 (Simulation time: 00 hr 21 min 55 sec)
Simulation CPU 0 panic: IPC 4e-05 < 0.01
Heartbeat CPU 0 instructions: 1810000291 cycles: 13308891380 heartbeat IPC: 0.2306 cumulative IPC: 0.136 (Simulation time: 00 hr 26 min 05 sec)
Simulation CPU 0 warning: IPC 0.034433 < 0.05
Simulation CPU 0 panic: IPC 4e-05 < 0.01
Heartbeat CPU 0 instructions: 1820000294 cycles: 13352252104 heartbeat IPC: 0.2306 cumulative IPC: 0.1363 (Simulation time: 00 hr 31 min 08 sec)
Simulation CPU 0 warning: IPC 0.023153 < 0.05
Simulation CPU 0 warning: IPC 0.046284 < 0.05
Simulation CPU 0 critical: IPC 0.01006 < 0.02
Simulation CPU 0 warning: IPC 0.034433 < 0.05
[ERROR_CYCLE] Error added at CPU cycle 13401156286, interval 19, pending count: 1
[DRAM_CYCLE_ERROR] Cycle-based error applied! address=0x1be402528 additional_latency=2459910500 cycles
Simulation CPU 0 panic: IPC 0 < 0.01
Heartbeat CPU 0 instructions: 1830000297 cycles: 13414706551 heartbeat IPC: 0.1601 cumulative IPC: 0.1364 (Simulation time: 00 hr 37 min 50 sec)
Heartbeat CPU 0 instructions: 1840000298 cycles: 13439584458 heartbeat IPC: 0.402 cumulative IPC: 0.1369 (Simulation time: 00 hr 40 min 49 sec)
Simulation CPU 0 panic: IPC 4e-05 < 0.01
Heartbeat CPU 0 instructions: 1850000300 cycles: 13482973933 heartbeat IPC: 0.2305 cumulative IPC: 0.1372 (Simulation time: 00 hr 46 min 19 sec)
Simulation CPU 0 panic: IPC 4e-05 < 0.01
Heartbeat CPU 0 instructions: 1860000300 cycles: 13517124852 heartbeat IPC: 0.2928 cumulative IPC: 0.1376 (Simulation time: 00 hr 50 min 10 sec)
Simulation CPU 0 panic: IPC 4e-05 < 0.01
Heartbeat CPU 0 instructions: 1870000300 cycles: 13569338272 heartbeat IPC: 0.1915 cumulative IPC: 0.1378 (Simulation time: 00 hr 55 min 55 sec)
Heartbeat CPU 0 instructions: 1880000300 cycles: 13584772400 heartbeat IPC: 0.6479 cumulative IPC: 0.1384 (Simulation time: 00 hr 57 min 24 sec)
Simulation CPU 0 critical: IPC 0.012519 < 0.02
Heartbeat CPU 0 instructions: 1890000302 cycles: 13609657722 heartbeat IPC: 0.4018 cumulative IPC: 0.1389 (Simulation time: 00 hr 59 min 57 sec)
Heartbeat CPU 0 instructions: 1900000302 cycles: 13643775420 heartbeat IPC: 0.2931 cumulative IPC: 0.1393 (Simulation time: 01 hr 03 min 40 sec)
Simulation CPU 0 panic: IPC 4e-05 < 0.01
Heartbeat CPU 0 instructions: 1910000302 cycles: 13687126810 heartbeat IPC: 0.2307 cumulative IPC: 0.1395 (Simulation time: 01 hr 09 min 08 sec)
Simulation CPU 0 warning: IPC 0.034433 < 0.05
Simulation CPU 0 panic: IPC 4e-05 < 0.01
Heartbeat CPU 0 instructions: 1920000303 cycles: 13730488806 heartbeat IPC: 0.2306 cumulative IPC: 0.1398 (Simulation time: 01 hr 13 min 33 sec)
Simulation CPU 0 warning: IPC 0.046174 < 0.05
Simulation CPU 0 critical: IPC 0.01017 < 0.02
Simulation CPU 0 warning: IPC 0.034433 < 0.05
Heartbeat CPU 0 instructions: 1930000307 cycles: 13773856251 heartbeat IPC: 0.2306 cumulative IPC: 0.1401 (Simulation time: 01 hr 18 min 58 sec)
Simulation CPU 0 critical: IPC 0.011744 < 0.02
Heartbeat CPU 0 instructions: 1940000308 cycles: 13808000032 heartbeat IPC: 0.2929 cumulative IPC: 0.1405 (Simulation time: 01 hr 23 min 19 sec)
Heartbeat CPU 0 instructions: 1950000308 cycles: 13832895549 heartbeat IPC: 0.4017 cumulative IPC: 0.141 (Simulation time: 01 hr 26 min 38 sec)
Simulation CPU 0 panic: IPC 4e-05 < 0.01
Simulation CPU 0 panic: IPC 4e-05 < 0.01
Heartbeat CPU 0 instructions: 1960000310 cycles: 13894751027 heartbeat IPC: 0.1617 cumulative IPC: 0.1411 (Simulation time: 01 hr 32 min 36 sec)
Simulation CPU 0 warning: IPC 0.039107 < 0.05
Simulation CPU 0 critical: IPC 0.012519 < 0.02
Heartbeat CPU 0 instructions: 1970000311 cycles: 13938112813 heartbeat IPC: 0.2306 cumulative IPC: 0.1413 (Simulation time: 01 hr 37 min 14 sec)
Simulation CPU 0 critical: IPC 0.012519 < 0.02
Simulation CPU 0 warning: IPC 0.04543 < 0.05
Heartbeat CPU 0 instructions: 1980000312 cycles: 13972257070 heartbeat IPC: 0.2929 cumulative IPC: 0.1417 (Simulation time: 01 hr 40 min 55 sec)
Heartbeat CPU 0 instructions: 1990000313 cycles: 13997139356 heartbeat IPC: 0.4019 cumulative IPC: 0.1422 (Simulation time: 01 hr 44 min 12 sec)

=== ERROR PAGE STATISTICS ===
Mode: CYCLE
Error Cycle Interval: 705324015 CPU cycles
Total Error Accesses: 19
==============================
Simulation finished CPU 0 instructions: 1999999509 cycles: 14022041533 cumulative IPC: 0.1426 (Simulation time: 01 hr 46 min 56 sec)
Simulation complete CPU 0 instructions: 1999999509 cycles: 14022041533 cumulative IPC: 0.1426 (Simulation time: 01 hr 46 min 56 sec)

ChampSim completed all CPUs

=== Simulation ===
CPU 0 runs test_traces/654.roms_s-1007B.champsimtrace.xz

Region of Interest Statistics

CPU 0 cumulative IPC: 0.1426 instructions: 1999999509 cycles: 14022041533
CPU 0 Branch Prediction Accuracy: 95.85% MPKI: 3.086 Average ROB Occupancy at Mispredict: 45.57
Branch type MPKI
BRANCH_DIRECT_JUMP: 9.8e-05
BRANCH_INDIRECT: 6e-06
BRANCH_CONDITIONAL: 1.593
BRANCH_DIRECT_CALL: 3.65e-05
BRANCH_INDIRECT_CALL: 0
BRANCH_RETURN: 1.493

cpu0->cpu0_STLB TOTAL        ACCESS:   39121383 HIT:   39119859 MISS:       1524 MSHR_MERGE:          0
cpu0->cpu0_STLB LOAD         ACCESS:   39121383 HIT:   39119859 MISS:       1524 MSHR_MERGE:          0
cpu0->cpu0_STLB RFO          ACCESS:          0 HIT:          0 MISS:          0 MSHR_MERGE:          0
cpu0->cpu0_STLB PREFETCH     ACCESS:          0 HIT:          0 MISS:          0 MSHR_MERGE:          0
cpu0->cpu0_STLB WRITE        ACCESS:          0 HIT:          0 MISS:          0 MSHR_MERGE:          0
cpu0->cpu0_STLB TRANSLATION  ACCESS:          0 HIT:          0 MISS:          0 MSHR_MERGE:          0
cpu0->cpu0_STLB PREFETCH REQUESTED:          0 ISSUED:          0 USEFUL:          0 USELESS:          0
cpu0->cpu0_STLB AVERAGE MISS LATENCY: 9.282e+06 cycles
cpu0->cpu0_L2C TOTAL        ACCESS:   35188212 HIT:   15859253 MISS:   19328959 MSHR_MERGE:          0
cpu0->cpu0_L2C LOAD         ACCESS:   22564043 HIT:    7672732 MISS:   14891311 MSHR_MERGE:          0
cpu0->cpu0_L2C RFO          ACCESS:    5289527 HIT:     857698 MISS:    4431829 MSHR_MERGE:          0
cpu0->cpu0_L2C PREFETCH     ACCESS:          0 HIT:          0 MISS:          0 MSHR_MERGE:          0
cpu0->cpu0_L2C WRITE        ACCESS:    7334642 HIT:    7328823 MISS:       5819 MSHR_MERGE:          0
cpu0->cpu0_L2C TRANSLATION  ACCESS:          0 HIT:          0 MISS:          0 MSHR_MERGE:          0
cpu0->cpu0_L2C PREFETCH REQUESTED:          0 ISSUED:          0 USEFUL:          0 USELESS:          0
cpu0->cpu0_L2C AVERAGE MISS LATENCY: 65.87 cycles
cpu0->cpu0_L1I TOTAL        ACCESS:  419235396 HIT:  419234796 MISS:        600 MSHR_MERGE:        187
cpu0->cpu0_L1I LOAD         ACCESS:  419235396 HIT:  419234796 MISS:        600 MSHR_MERGE:        187
cpu0->cpu0_L1I RFO          ACCESS:          0 HIT:          0 MISS:          0 MSHR_MERGE:          0
cpu0->cpu0_L1I PREFETCH     ACCESS:          0 HIT:          0 MISS:          0 MSHR_MERGE:          0
cpu0->cpu0_L1I WRITE        ACCESS:          0 HIT:          0 MISS:          0 MSHR_MERGE:          0
cpu0->cpu0_L1I TRANSLATION  ACCESS:          0 HIT:          0 MISS:          0 MSHR_MERGE:          0
cpu0->cpu0_L1I PREFETCH REQUESTED:          0 ISSUED:          0 USEFUL:          0 USELESS:          0
cpu0->cpu0_L1I AVERAGE MISS LATENCY: 117.1 cycles
cpu0->cpu0_L1D TOTAL        ACCESS:  768637712 HIT:  729886388 MISS:   38751324 MSHR_MERGE:   10897655
cpu0->cpu0_L1D LOAD         ACCESS:  587558548 HIT:  557807539 MISS:   29751009 MSHR_MERGE:    7187370
cpu0->cpu0_L1D RFO          ACCESS:          0 HIT:          0 MISS:          0 MSHR_MERGE:          0
cpu0->cpu0_L1D PREFETCH     ACCESS:          0 HIT:          0 MISS:          0 MSHR_MERGE:          0
cpu0->cpu0_L1D WRITE        ACCESS:  181079164 HIT:  172078849 MISS:    9000315 MSHR_MERGE:    3710285
cpu0->cpu0_L1D TRANSLATION  ACCESS:          0 HIT:          0 MISS:          0 MSHR_MERGE:          0
cpu0->cpu0_L1D PREFETCH REQUESTED:          0 ISSUED:          0 USEFUL:          0 USELESS:          0
cpu0->cpu0_L1D AVERAGE MISS LATENCY: 54.45 cycles
cpu0->cpu0_ITLB TOTAL        ACCESS:  364552217 HIT:  364552215 MISS:          2 MSHR_MERGE:          0
cpu0->cpu0_ITLB LOAD         ACCESS:  364552217 HIT:  364552215 MISS:          2 MSHR_MERGE:          0
cpu0->cpu0_ITLB RFO          ACCESS:          0 HIT:          0 MISS:          0 MSHR_MERGE:          0
cpu0->cpu0_ITLB PREFETCH     ACCESS:          0 HIT:          0 MISS:          0 MSHR_MERGE:          0
cpu0->cpu0_ITLB WRITE        ACCESS:          0 HIT:          0 MISS:          0 MSHR_MERGE:          0
cpu0->cpu0_ITLB TRANSLATION  ACCESS:          0 HIT:          0 MISS:          0 MSHR_MERGE:          0
cpu0->cpu0_ITLB PREFETCH REQUESTED:          0 ISSUED:          0 USEFUL:          0 USELESS:          0
cpu0->cpu0_ITLB AVERAGE MISS LATENCY: 1.386e+07 cycles
cpu0->cpu0_DTLB TOTAL        ACCESS:  653176254 HIT:  614042510 MISS:   39133744 MSHR_MERGE:      12363
cpu0->cpu0_DTLB LOAD         ACCESS:  653176254 HIT:  614042510 MISS:   39133744 MSHR_MERGE:      12363
cpu0->cpu0_DTLB RFO          ACCESS:          0 HIT:          0 MISS:          0 MSHR_MERGE:          0
cpu0->cpu0_DTLB PREFETCH     ACCESS:          0 HIT:          0 MISS:          0 MSHR_MERGE:          0
cpu0->cpu0_DTLB WRITE        ACCESS:          0 HIT:          0 MISS:          0 MSHR_MERGE:          0
cpu0->cpu0_DTLB TRANSLATION  ACCESS:          0 HIT:          0 MISS:          0 MSHR_MERGE:          0
cpu0->cpu0_DTLB PREFETCH REQUESTED:          0 ISSUED:          0 USEFUL:          0 USELESS:          0
cpu0->cpu0_DTLB AVERAGE MISS LATENCY: 365.9 cycles
cpu0->LLC TOTAL        ACCESS:   25251982 HIT:   16383796 MISS:    8868186 MSHR_MERGE:          0
cpu0->LLC LOAD         ACCESS:   14891311 HIT:    7671957 MISS:    7219354 MSHR_MERGE:          0
cpu0->LLC RFO          ACCESS:    4431829 HIT:    2788319 MISS:    1643510 MSHR_MERGE:          0
cpu0->LLC PREFETCH     ACCESS:          0 HIT:          0 MISS:          0 MSHR_MERGE:          0
cpu0->LLC WRITE        ACCESS:    5928842 HIT:    5923520 MISS:       5322 MSHR_MERGE:          0
cpu0->LLC TRANSLATION  ACCESS:          0 HIT:          0 MISS:          0 MSHR_MERGE:          0
cpu0->LLC PREFETCH REQUESTED:          0 ISSUED:          0 USEFUL:          0 USELESS:          0
cpu0->LLC AVERAGE MISS LATENCY: 109.9 cycles

DRAM Statistics

Channel 0 RQ ROW_BUFFER_HIT:      78296
  ROW_BUFFER_MISS:    4354719
  AVG DBUS CONGESTED CYCLE: 11.43
Channel 0 WQ ROW_BUFFER_HIT:     180844
  ROW_BUFFER_MISS:     677597
  FULL:          0
Channel 0 REFRESHES ISSUED:    1168428

Channel 1 RQ ROW_BUFFER_HIT:      78664
  ROW_BUFFER_MISS:    4354094
  AVG DBUS CONGESTED CYCLE: 11.44
Channel 1 WQ ROW_BUFFER_HIT:     180300
  ROW_BUFFER_MISS:     677724
  FULL:          0
Channel 1 REFRESHES ISSUED:    1168428
