
*** ChampSim Multicore Out-of-Order Simulator ***
Warmup Instructions: 0
Simulation Instructions: 9223372036854775807
Number of CPUs: 1
Page size: 1048576

Off-chip DRAM Size: 64 GiB Channels: 2 Width: 32-bit Data Rate: 4807 MT/s
[ERROR_PAGE_MANAGER] Error latency: 0 
[ERROR_PAGE_MANAGER] Random seed: 54321 (fixed for preload reproducibility)
[ERROR_PAGE_MANAGER] Error pages off

=== ERROR PAGE STATISTICS ===
Mode: OFF
Total Error Accesses: 0
==============================
Warmup finished CPU 0 instructions: 0 cycles: 1 cumulative IPC: 0 (Simulation time: 00 hr 00 min 00 sec)
Warmup complete CPU 0 instructions: 0 cycles: 1 cumulative IPC: 0 (Simulation time: 00 hr 00 min 00 sec)
Simulation CPU 0 panic: IPC 0 < 0.01
Simulation CPU 0 panic: IPC 2e-07 < 0.01
Simulation CPU 0 panic: IPC 0 < 0.01
Simulation CPU 0 panic: IPC 8.5e-06 < 0.01
Simulation CPU 0 panic: IPC 5.64e-05 < 0.01
Simulation CPU 0 panic: IPC 7e-07 < 0.01
Simulation CPU 0 panic: IPC 0 < 0.01
Simulation CPU 0 panic: IPC 0.0002751 < 0.01
Simulation CPU 0 panic: IPC 0 < 0.01
Simulation CPU 0 panic: IPC 3.3e-06 < 0.01
Simulation CPU 0 panic: IPC 1e-07 < 0.01
Simulation CPU 0 panic: IPC 0 < 0.01
Simulation CPU 0 panic: IPC 0 < 0.01
Simulation CPU 0 panic: IPC 2e-06 < 0.01
Simulation CPU 0 panic: IPC 3.3e-06 < 0.01
Simulation CPU 0 panic: IPC 3.82e-05 < 0.01
Simulation CPU 0 panic: IPC 2.12e-05 < 0.01
Simulation CPU 0 panic: IPC 1.04e-05 < 0.01
Simulation CPU 0 panic: IPC 3.11e-05 < 0.01
Simulation CPU 0 panic: IPC 2.18e-05 < 0.01
Simulation CPU 0 panic: IPC 1.01e-05 < 0.01
Simulation CPU 0 panic: IPC 2.12e-05 < 0.01
Simulation CPU 0 panic: IPC 2.89e-05 < 0.01
Heartbeat CPU 0 instructions: 10000002 cycles: 235767029 heartbeat IPC: 0.04241 cumulative IPC: 0.04241 (Simulation time: 00 hr 24 min 43 sec)
Heartbeat CPU 0 instructions: 20000002 cycles: 249907567 heartbeat IPC: 0.7072 cumulative IPC: 0.08003 (Simulation time: 00 hr 26 min 35 sec)
Heartbeat CPU 0 instructions: 30000006 cycles: 273232196 heartbeat IPC: 0.4287 cumulative IPC: 0.1098 (Simulation time: 00 hr 29 min 16 sec)
Heartbeat CPU 0 instructions: 40000007 cycles: 296542483 heartbeat IPC: 0.429 cumulative IPC: 0.1349 (Simulation time: 00 hr 31 min 40 sec)
Heartbeat CPU 0 instructions: 50000007 cycles: 310668221 heartbeat IPC: 0.7079 cumulative IPC: 0.1609 (Simulation time: 00 hr 33 min 04 sec)
Simulation CPU 0 critical: IPC 0.011888 < 0.02
Simulation CPU 0 panic: IPC 3.1e-06 < 0.01
Simulation CPU 0 panic: IPC 2.1e-06 < 0.01
Simulation CPU 0 panic: IPC 9.2e-06 < 0.01
Simulation CPU 0 panic: IPC 1.1e-05 < 0.01
Simulation CPU 0 panic: IPC 9.2e-06 < 0.01
Simulation CPU 0 panic: IPC 8.8e-06 < 0.01
Simulation CPU 0 panic: IPC 6.8e-06 < 0.01
Simulation CPU 0 panic: IPC 8.4e-06 < 0.01
Simulation CPU 0 panic: IPC 1.08e-05 < 0.01
Simulation CPU 0 panic: IPC 1e-05 < 0.01
Simulation CPU 0 panic: IPC 7.9e-06 < 0.01
Simulation CPU 0 panic: IPC 7.8e-06 < 0.01
Simulation CPU 0 panic: IPC 1.75e-05 < 0.01
Simulation CPU 0 panic: IPC 7.4e-06 < 0.01
Simulation CPU 0 panic: IPC 9.5e-06 < 0.01
Simulation CPU 0 panic: IPC 7.3e-06 < 0.01
Simulation CPU 0 panic: IPC 9.5e-06 < 0.01
Simulation CPU 0 panic: IPC 7.3e-06 < 0.01
Simulation CPU 0 panic: IPC 9.5e-06 < 0.01
Simulation CPU 0 panic: IPC 7.3e-06 < 0.01
Simulation CPU 0 panic: IPC 9.5e-06 < 0.01
Simulation CPU 0 panic: IPC 8e-06 < 0.01
Simulation CPU 0 panic: IPC 7.5e-06 < 0.01
Simulation CPU 0 panic: IPC 9.1e-06 < 0.01
Simulation CPU 0 panic: IPC 1.68e-05 < 0.01
Simulation CPU 0 panic: IPC 7.5e-06 < 0.01
Heartbeat CPU 0 instructions: 60000008 cycles: 612560068 heartbeat IPC: 0.03312 cumulative IPC: 0.09795 (Simulation time: 01 hr 06 min 27 sec)
Heartbeat CPU 0 instructions: 70000012 cycles: 618933070 heartbeat IPC: 1.569 cumulative IPC: 0.1131 (Simulation time: 01 hr 07 min 20 sec)
Heartbeat CPU 0 instructions: 80000013 cycles: 634552626 heartbeat IPC: 0.6402 cumulative IPC: 0.1261 (Simulation time: 01 hr 09 min 22 sec)
Heartbeat CPU 0 instructions: 90000014 cycles: 668659257 heartbeat IPC: 0.2932 cumulative IPC: 0.1346 (Simulation time: 01 hr 13 min 17 sec)
Heartbeat CPU 0 instructions: 100000018 cycles: 684283676 heartbeat IPC: 0.64 cumulative IPC: 0.1461 (Simulation time: 01 hr 15 min 19 sec)
Heartbeat CPU 0 instructions: 110000019 cycles: 699914457 heartbeat IPC: 0.6398 cumulative IPC: 0.1572 (Simulation time: 01 hr 17 min 34 sec)
Heartbeat CPU 0 instructions: 120000019 cycles: 724761087 heartbeat IPC: 0.4025 cumulative IPC: 0.1656 (Simulation time: 01 hr 20 min 56 sec)
Heartbeat CPU 0 instructions: 130000020 cycles: 740386816 heartbeat IPC: 0.64 cumulative IPC: 0.1756 (Simulation time: 01 hr 22 min 57 sec)
Heartbeat CPU 0 instructions: 140000022 cycles: 765197199 heartbeat IPC: 0.4031 cumulative IPC: 0.183 (Simulation time: 01 hr 26 min 18 sec)
Heartbeat CPU 0 instructions: 150000024 cycles: 780834149 heartbeat IPC: 0.6395 cumulative IPC: 0.1921 (Simulation time: 01 hr 28 min 34 sec)
Heartbeat CPU 0 instructions: 160000025 cycles: 805690427 heartbeat IPC: 0.4023 cumulative IPC: 0.1986 (Simulation time: 01 hr 31 min 54 sec)
Heartbeat CPU 0 instructions: 170000027 cycles: 821338349 heartbeat IPC: 0.6391 cumulative IPC: 0.207 (Simulation time: 01 hr 34 min 12 sec)
Heartbeat CPU 0 instructions: 180000028 cycles: 846224579 heartbeat IPC: 0.4018 cumulative IPC: 0.2127 (Simulation time: 01 hr 37 min 03 sec)
Heartbeat CPU 0 instructions: 190000032 cycles: 861872284 heartbeat IPC: 0.6391 cumulative IPC: 0.2205 (Simulation time: 01 hr 39 min 06 sec)
Heartbeat CPU 0 instructions: 200000034 cycles: 868282650 heartbeat IPC: 1.56 cumulative IPC: 0.2303 (Simulation time: 01 hr 40 min 05 sec)
Heartbeat CPU 0 instructions: 210000034 cycles: 893186421 heartbeat IPC: 0.4015 cumulative IPC: 0.2351 (Simulation time: 01 hr 43 min 20 sec)
Heartbeat CPU 0 instructions: 220000037 cycles: 899631950 heartbeat IPC: 1.551 cumulative IPC: 0.2445 (Simulation time: 01 hr 44 min 12 sec)
Heartbeat CPU 0 instructions: 230000039 cycles: 915321782 heartbeat IPC: 0.6374 cumulative IPC: 0.2513 (Simulation time: 01 hr 45 min 53 sec)
Heartbeat CPU 0 instructions: 240000043 cycles: 940303529 heartbeat IPC: 0.4003 cumulative IPC: 0.2552 (Simulation time: 01 hr 48 min 09 sec)
Heartbeat CPU 0 instructions: 250000045 cycles: 955953586 heartbeat IPC: 0.639 cumulative IPC: 0.2615 (Simulation time: 01 hr 50 min 17 sec)
Heartbeat CPU 0 instructions: 260000048 cycles: 971632425 heartbeat IPC: 0.6378 cumulative IPC: 0.2676 (Simulation time: 01 hr 52 min 34 sec)
Heartbeat CPU 0 instructions: 270000051 cycles: 978062639 heartbeat IPC: 1.555 cumulative IPC: 0.2761 (Simulation time: 01 hr 53 min 45 sec)
Heartbeat CPU 0 instructions: 280000053 cycles: 1002978275 heartbeat IPC: 0.4014 cumulative IPC: 0.2792 (Simulation time: 01 hr 57 min 06 sec)
Heartbeat CPU 0 instructions: 290000054 cycles: 1018663829 heartbeat IPC: 0.6375 cumulative IPC: 0.2847 (Simulation time: 01 hr 59 min 20 sec)
Heartbeat CPU 0 instructions: 300000056 cycles: 1034366164 heartbeat IPC: 0.6368 cumulative IPC: 0.29 (Simulation time: 02 hr 01 min 32 sec)
Heartbeat CPU 0 instructions: 310000059 cycles: 1068516133 heartbeat IPC: 0.2928 cumulative IPC: 0.2901 (Simulation time: 02 hr 05 min 53 sec)
Heartbeat CPU 0 instructions: 320000063 cycles: 1084159429 heartbeat IPC: 0.6393 cumulative IPC: 0.2952 (Simulation time: 02 hr 08 min 08 sec)
Heartbeat CPU 0 instructions: 330000067 cycles: 1090589134 heartbeat IPC: 1.555 cumulative IPC: 0.3026 (Simulation time: 02 hr 09 min 17 sec)
Heartbeat CPU 0 instructions: 340000070 cycles: 1124776673 heartbeat IPC: 0.2925 cumulative IPC: 0.3023 (Simulation time: 02 hr 13 min 38 sec)
Heartbeat CPU 0 instructions: 350000074 cycles: 1131170650 heartbeat IPC: 1.564 cumulative IPC: 0.3094 (Simulation time: 02 hr 14 min 46 sec)
Heartbeat CPU 0 instructions: 360000076 cycles: 1156025169 heartbeat IPC: 0.4023 cumulative IPC: 0.3114 (Simulation time: 02 hr 17 min 44 sec)
Heartbeat CPU 0 instructions: 370000077 cycles: 1162395809 heartbeat IPC: 1.57 cumulative IPC: 0.3183 (Simulation time: 02 hr 18 min 51 sec)
Heartbeat CPU 0 instructions: 380000081 cycles: 1196465752 heartbeat IPC: 0.2935 cumulative IPC: 0.3176 (Simulation time: 02 hr 23 min 07 sec)
Heartbeat CPU 0 instructions: 390000081 cycles: 1202850463 heartbeat IPC: 1.566 cumulative IPC: 0.3242 (Simulation time: 02 hr 24 min 18 sec)
Heartbeat CPU 0 instructions: 400000082 cycles: 1218494889 heartbeat IPC: 0.6392 cumulative IPC: 0.3283 (Simulation time: 02 hr 26 min 14 sec)
Heartbeat CPU 0 instructions: 410000082 cycles: 1234155639 heartbeat IPC: 0.6385 cumulative IPC: 0.3322 (Simulation time: 02 hr 28 min 29 sec)
Heartbeat CPU 0 instructions: 420000085 cycles: 1240590147 heartbeat IPC: 1.554 cumulative IPC: 0.3385 (Simulation time: 02 hr 29 min 31 sec)
Heartbeat CPU 0 instructions: 430000089 cycles: 1265596548 heartbeat IPC: 0.3999 cumulative IPC: 0.3398 (Simulation time: 02 hr 32 min 04 sec)
Heartbeat CPU 0 instructions: 440000091 cycles: 1272072400 heartbeat IPC: 1.544 cumulative IPC: 0.3459 (Simulation time: 02 hr 33 min 00 sec)
Heartbeat CPU 0 instructions: 450000094 cycles: 1297006981 heartbeat IPC: 0.401 cumulative IPC: 0.347 (Simulation time: 02 hr 35 min 55 sec)
Heartbeat CPU 0 instructions: 460000097 cycles: 1312688780 heartbeat IPC: 0.6377 cumulative IPC: 0.3504 (Simulation time: 02 hr 37 min 31 sec)
Heartbeat CPU 0 instructions: 470000101 cycles: 1328359253 heartbeat IPC: 0.6381 cumulative IPC: 0.3538 (Simulation time: 02 hr 39 min 26 sec)
Heartbeat CPU 0 instructions: 480000101 cycles: 1344038892 heartbeat IPC: 0.6378 cumulative IPC: 0.3571 (Simulation time: 02 hr 41 min 35 sec)
Heartbeat CPU 0 instructions: 490000104 cycles: 1359734202 heartbeat IPC: 0.6371 cumulative IPC: 0.3604 (Simulation time: 02 hr 43 min 26 sec)
Heartbeat CPU 0 instructions: 500000105 cycles: 1375437305 heartbeat IPC: 0.6368 cumulative IPC: 0.3635 (Simulation time: 02 hr 45 min 18 sec)
Heartbeat CPU 0 instructions: 510000106 cycles: 1400387132 heartbeat IPC: 0.4008 cumulative IPC: 0.3642 (Simulation time: 02 hr 48 min 23 sec)
Heartbeat CPU 0 instructions: 520000108 cycles: 1425404677 heartbeat IPC: 0.3997 cumulative IPC: 0.3648 (Simulation time: 02 hr 51 min 30 sec)
Heartbeat CPU 0 instructions: 530000109 cycles: 1450352709 heartbeat IPC: 0.4008 cumulative IPC: 0.3654 (Simulation time: 02 hr 54 min 41 sec)
Heartbeat CPU 0 instructions: 540000109 cycles: 1466051110 heartbeat IPC: 0.637 cumulative IPC: 0.3683 (Simulation time: 02 hr 56 min 44 sec)
Heartbeat CPU 0 instructions: 550000113 cycles: 1490945040 heartbeat IPC: 0.4017 cumulative IPC: 0.3689 (Simulation time: 02 hr 59 min 31 sec)
Heartbeat CPU 0 instructions: 560000114 cycles: 1506591005 heartbeat IPC: 0.6391 cumulative IPC: 0.3717 (Simulation time: 03 hr 01 min 39 sec)
Heartbeat CPU 0 instructions: 570000115 cycles: 1512995919 heartbeat IPC: 1.561 cumulative IPC: 0.3767 (Simulation time: 03 hr 02 min 49 sec)
Heartbeat CPU 0 instructions: 580000115 cycles: 1547135236 heartbeat IPC: 0.2929 cumulative IPC: 0.3749 (Simulation time: 03 hr 06 min 20 sec)
Heartbeat CPU 0 instructions: 590000119 cycles: 1553573705 heartbeat IPC: 1.553 cumulative IPC: 0.3798 (Simulation time: 03 hr 07 min 14 sec)
Heartbeat CPU 0 instructions: 600000119 cycles: 1587739631 heartbeat IPC: 0.2927 cumulative IPC: 0.3779 (Simulation time: 03 hr 11 min 19 sec)
Heartbeat CPU 0 instructions: 610000121 cycles: 1594198162 heartbeat IPC: 1.548 cumulative IPC: 0.3826 (Simulation time: 03 hr 12 min 30 sec)
Heartbeat CPU 0 instructions: 620000121 cycles: 1619170095 heartbeat IPC: 0.4004 cumulative IPC: 0.3829 (Simulation time: 03 hr 15 min 53 sec)
Heartbeat CPU 0 instructions: 630000123 cycles: 1625631748 heartbeat IPC: 1.548 cumulative IPC: 0.3875 (Simulation time: 03 hr 17 min 05 sec)
Heartbeat CPU 0 instructions: 640000125 cycles: 1641311894 heartbeat IPC: 0.6377 cumulative IPC: 0.3899 (Simulation time: 03 hr 19 min 11 sec)
Heartbeat CPU 0 instructions: 650000128 cycles: 1666236562 heartbeat IPC: 0.4012 cumulative IPC: 0.3901 (Simulation time: 03 hr 22 min 28 sec)
Heartbeat CPU 0 instructions: 660000130 cycles: 1672665452 heartbeat IPC: 1.555 cumulative IPC: 0.3946 (Simulation time: 03 hr 23 min 37 sec)
Heartbeat CPU 0 instructions: 670000132 cycles: 1688331346 heartbeat IPC: 0.6383 cumulative IPC: 0.3968 (Simulation time: 03 hr 25 min 30 sec)
Heartbeat CPU 0 instructions: 680000135 cycles: 1704001001 heartbeat IPC: 0.6382 cumulative IPC: 0.3991 (Simulation time: 03 hr 27 min 25 sec)
Heartbeat CPU 0 instructions: 690000136 cycles: 1719666058 heartbeat IPC: 0.6384 cumulative IPC: 0.4012 (Simulation time: 03 hr 29 min 36 sec)
Heartbeat CPU 0 instructions: 700000139 cycles: 1735341156 heartbeat IPC: 0.638 cumulative IPC: 0.4034 (Simulation time: 03 hr 31 min 48 sec)
Heartbeat CPU 0 instructions: 710000140 cycles: 1760298497 heartbeat IPC: 0.4007 cumulative IPC: 0.4033 (Simulation time: 03 hr 35 min 07 sec)
Heartbeat CPU 0 instructions: 720000140 cycles: 1785196823 heartbeat IPC: 0.4016 cumulative IPC: 0.4033 (Simulation time: 03 hr 38 min 04 sec)
Heartbeat CPU 0 instructions: 730000143 cycles: 1810101635 heartbeat IPC: 0.4015 cumulative IPC: 0.4033 (Simulation time: 03 hr 41 min 27 sec)
Heartbeat CPU 0 instructions: 740000144 cycles: 1816537936 heartbeat IPC: 1.554 cumulative IPC: 0.4074 (Simulation time: 03 hr 42 min 40 sec)
Heartbeat CPU 0 instructions: 750000147 cycles: 1841418029 heartbeat IPC: 0.4019 cumulative IPC: 0.4073 (Simulation time: 03 hr 46 min 05 sec)
Heartbeat CPU 0 instructions: 760000147 cycles: 1857061442 heartbeat IPC: 0.6392 cumulative IPC: 0.4092 (Simulation time: 03 hr 47 min 45 sec)
Heartbeat CPU 0 instructions: 770000149 cycles: 1881897923 heartbeat IPC: 0.4026 cumulative IPC: 0.4092 (Simulation time: 03 hr 50 min 30 sec)
Heartbeat CPU 0 instructions: 780000149 cycles: 1888263572 heartbeat IPC: 1.571 cumulative IPC: 0.4131 (Simulation time: 03 hr 51 min 18 sec)
Heartbeat CPU 0 instructions: 790000149 cycles: 1903879359 heartbeat IPC: 0.6404 cumulative IPC: 0.4149 (Simulation time: 03 hr 53 min 04 sec)
Heartbeat CPU 0 instructions: 800000150 cycles: 1928781081 heartbeat IPC: 0.4016 cumulative IPC: 0.4148 (Simulation time: 03 hr 55 min 35 sec)
Heartbeat CPU 0 instructions: 810000152 cycles: 1935161640 heartbeat IPC: 1.567 cumulative IPC: 0.4186 (Simulation time: 03 hr 56 min 21 sec)
Heartbeat CPU 0 instructions: 820000156 cycles: 1960038494 heartbeat IPC: 0.402 cumulative IPC: 0.4184 (Simulation time: 03 hr 59 min 31 sec)
Heartbeat CPU 0 instructions: 830000160 cycles: 1966451815 heartbeat IPC: 1.559 cumulative IPC: 0.4221 (Simulation time: 04 hr 00 min 42 sec)
Heartbeat CPU 0 instructions: 840000161 cycles: 1991380986 heartbeat IPC: 0.4011 cumulative IPC: 0.4218 (Simulation time: 04 hr 04 min 02 sec)
Heartbeat CPU 0 instructions: 850000162 cycles: 1997852409 heartbeat IPC: 1.545 cumulative IPC: 0.4255 (Simulation time: 04 hr 05 min 05 sec)
Heartbeat CPU 0 instructions: 860000163 cycles: 2013538565 heartbeat IPC: 0.6375 cumulative IPC: 0.4271 (Simulation time: 04 hr 06 min 44 sec)
Heartbeat CPU 0 instructions: 870000164 cycles: 2038425585 heartbeat IPC: 0.4018 cumulative IPC: 0.4268 (Simulation time: 04 hr 09 min 55 sec)
Heartbeat CPU 0 instructions: 880000167 cycles: 2044815331 heartbeat IPC: 1.565 cumulative IPC: 0.4304 (Simulation time: 04 hr 10 min 57 sec)
Heartbeat CPU 0 instructions: 890000168 cycles: 2060416417 heartbeat IPC: 0.641 cumulative IPC: 0.432 (Simulation time: 04 hr 12 min 26 sec)
Heartbeat CPU 0 instructions: 900000168 cycles: 2076117871 heartbeat IPC: 0.6369 cumulative IPC: 0.4335 (Simulation time: 04 hr 14 min 08 sec)
Heartbeat CPU 0 instructions: 910000169 cycles: 2091775256 heartbeat IPC: 0.6387 cumulative IPC: 0.435 (Simulation time: 04 hr 16 min 03 sec)
Heartbeat CPU 0 instructions: 920000171 cycles: 2125910407 heartbeat IPC: 0.293 cumulative IPC: 0.4328 (Simulation time: 04 hr 20 min 11 sec)
Heartbeat CPU 0 instructions: 930000175 cycles: 2141573321 heartbeat IPC: 0.6385 cumulative IPC: 0.4343 (Simulation time: 04 hr 22 min 23 sec)
Heartbeat CPU 0 instructions: 940000178 cycles: 2175726877 heartbeat IPC: 0.2928 cumulative IPC: 0.432 (Simulation time: 04 hr 26 min 25 sec)
Heartbeat CPU 0 instructions: 950000178 cycles: 2191381672 heartbeat IPC: 0.6388 cumulative IPC: 0.4335 (Simulation time: 04 hr 28 min 36 sec)
Heartbeat CPU 0 instructions: 960000182 cycles: 2197829591 heartbeat IPC: 1.551 cumulative IPC: 0.4368 (Simulation time: 04 hr 29 min 45 sec)
Heartbeat CPU 0 instructions: 970000182 cycles: 2222702319 heartbeat IPC: 0.402 cumulative IPC: 0.4364 (Simulation time: 04 hr 32 min 49 sec)
Heartbeat CPU 0 instructions: 980000183 cycles: 2238333164 heartbeat IPC: 0.6398 cumulative IPC: 0.4378 (Simulation time: 04 hr 34 min 43 sec)
Simulation CPU 0 warning: IPC 0.025452 < 0.05
Heartbeat CPU 0 instructions: 990000183 cycles: 2272516001 heartbeat IPC: 0.2925 cumulative IPC: 0.4356 (Simulation time: 04 hr 38 min 37 sec)
Heartbeat CPU 0 instructions: 1000000183 cycles: 2278940075 heartbeat IPC: 1.557 cumulative IPC: 0.4388 (Simulation time: 04 hr 39 min 48 sec)
Heartbeat CPU 0 instructions: 1010000183 cycles: 2303840261 heartbeat IPC: 0.4016 cumulative IPC: 0.4384 (Simulation time: 04 hr 43 min 03 sec)
Heartbeat CPU 0 instructions: 1020000187 cycles: 2319513532 heartbeat IPC: 0.638 cumulative IPC: 0.4397 (Simulation time: 04 hr 45 min 24 sec)
Heartbeat CPU 0 instructions: 1030000187 cycles: 2325941513 heartbeat IPC: 1.556 cumulative IPC: 0.4428 (Simulation time: 04 hr 46 min 27 sec)
Heartbeat CPU 0 instructions: 1040000189 cycles: 2350859870 heartbeat IPC: 0.4013 cumulative IPC: 0.4424 (Simulation time: 04 hr 49 min 20 sec)
Heartbeat CPU 0 instructions: 1050000189 cycles: 2357304720 heartbeat IPC: 1.552 cumulative IPC: 0.4454 (Simulation time: 04 hr 50 min 07 sec)
Heartbeat CPU 0 instructions: 1060000189 cycles: 2382234650 heartbeat IPC: 0.4011 cumulative IPC: 0.445 (Simulation time: 04 hr 52 min 43 sec)
Heartbeat CPU 0 instructions: 1070000192 cycles: 2397924899 heartbeat IPC: 0.6373 cumulative IPC: 0.4462 (Simulation time: 04 hr 54 min 46 sec)
Heartbeat CPU 0 instructions: 1080000192 cycles: 2413647573 heartbeat IPC: 0.636 cumulative IPC: 0.4475 (Simulation time: 04 hr 56 min 53 sec)
Heartbeat CPU 0 instructions: 1090000195 cycles: 2429329129 heartbeat IPC: 0.6377 cumulative IPC: 0.4487 (Simulation time: 04 hr 58 min 30 sec)
Heartbeat CPU 0 instructions: 1100000199 cycles: 2445003543 heartbeat IPC: 0.638 cumulative IPC: 0.4499 (Simulation time: 05 hr 00 min 13 sec)
Heartbeat CPU 0 instructions: 1110000203 cycles: 2460698265 heartbeat IPC: 0.6372 cumulative IPC: 0.4511 (Simulation time: 05 hr 02 min 15 sec)
Heartbeat CPU 0 instructions: 1120000205 cycles: 2476392877 heartbeat IPC: 0.6372 cumulative IPC: 0.4523 (Simulation time: 05 hr 04 min 01 sec)
Heartbeat CPU 0 instructions: 1130000205 cycles: 2501324414 heartbeat IPC: 0.4011 cumulative IPC: 0.4518 (Simulation time: 05 hr 06 min 31 sec)
Heartbeat CPU 0 instructions: 1140000208 cycles: 2526191892 heartbeat IPC: 0.4021 cumulative IPC: 0.4513 (Simulation time: 05 hr 09 min 16 sec)
Heartbeat CPU 0 instructions: 1150000208 cycles: 2541858040 heartbeat IPC: 0.6383 cumulative IPC: 0.4524 (Simulation time: 05 hr 11 min 02 sec)
Heartbeat CPU 0 instructions: 1160000210 cycles: 2566792455 heartbeat IPC: 0.4011 cumulative IPC: 0.4519 (Simulation time: 05 hr 14 min 11 sec)
Heartbeat CPU 0 instructions: 1170000214 cycles: 2582450473 heartbeat IPC: 0.6387 cumulative IPC: 0.4531 (Simulation time: 05 hr 16 min 11 sec)
Heartbeat CPU 0 instructions: 1180000218 cycles: 2607371411 heartbeat IPC: 0.4013 cumulative IPC: 0.4526 (Simulation time: 05 hr 18 min 50 sec)
Heartbeat CPU 0 instructions: 1190000219 cycles: 2613742472 heartbeat IPC: 1.57 cumulative IPC: 0.4553 (Simulation time: 05 hr 20 min 00 sec)
Heartbeat CPU 0 instructions: 1200000223 cycles: 2620133850 heartbeat IPC: 1.565 cumulative IPC: 0.458 (Simulation time: 05 hr 21 min 07 sec)
Heartbeat CPU 0 instructions: 1210000225 cycles: 2654252498 heartbeat IPC: 0.2931 cumulative IPC: 0.4559 (Simulation time: 05 hr 25 min 25 sec)
Heartbeat CPU 0 instructions: 1220000226 cycles: 2660660815 heartbeat IPC: 1.56 cumulative IPC: 0.4585 (Simulation time: 05 hr 26 min 21 sec)
Heartbeat CPU 0 instructions: 1230000226 cycles: 2685509085 heartbeat IPC: 0.4024 cumulative IPC: 0.458 (Simulation time: 05 hr 29 min 24 sec)
Heartbeat CPU 0 instructions: 1240000229 cycles: 2691899458 heartbeat IPC: 1.565 cumulative IPC: 0.4606 (Simulation time: 05 hr 30 min 34 sec)
Heartbeat CPU 0 instructions: 1250000229 cycles: 2707568750 heartbeat IPC: 0.6382 cumulative IPC: 0.4617 (Simulation time: 05 hr 32 min 33 sec)
Heartbeat CPU 0 instructions: 1260000231 cycles: 2723274383 heartbeat IPC: 0.6367 cumulative IPC: 0.4627 (Simulation time: 05 hr 34 min 21 sec)
Heartbeat CPU 0 instructions: 1270000235 cycles: 2739022515 heartbeat IPC: 0.635 cumulative IPC: 0.4637 (Simulation time: 05 hr 36 min 22 sec)
Heartbeat CPU 0 instructions: 1280000236 cycles: 2763909501 heartbeat IPC: 0.4018 cumulative IPC: 0.4631 (Simulation time: 05 hr 39 min 45 sec)
Heartbeat CPU 0 instructions: 1290000236 cycles: 2770305218 heartbeat IPC: 1.564 cumulative IPC: 0.4657 (Simulation time: 05 hr 40 min 36 sec)
Heartbeat CPU 0 instructions: 1300000236 cycles: 2785913849 heartbeat IPC: 0.6407 cumulative IPC: 0.4666 (Simulation time: 05 hr 42 min 36 sec)
Heartbeat CPU 0 instructions: 1310000239 cycles: 2801531467 heartbeat IPC: 0.6403 cumulative IPC: 0.4676 (Simulation time: 05 hr 44 min 19 sec)
Heartbeat CPU 0 instructions: 1320000240 cycles: 2817151071 heartbeat IPC: 0.6402 cumulative IPC: 0.4686 (Simulation time: 05 hr 46 min 11 sec)
Heartbeat CPU 0 instructions: 1330000244 cycles: 2832797589 heartbeat IPC: 0.6391 cumulative IPC: 0.4695 (Simulation time: 05 hr 47 min 55 sec)
Heartbeat CPU 0 instructions: 1340000245 cycles: 2866924538 heartbeat IPC: 0.293 cumulative IPC: 0.4674 (Simulation time: 05 hr 52 min 10 sec)
Heartbeat CPU 0 instructions: 1350000246 cycles: 2882578452 heartbeat IPC: 0.6388 cumulative IPC: 0.4683 (Simulation time: 05 hr 54 min 10 sec)
Heartbeat CPU 0 instructions: 1360000246 cycles: 2916748402 heartbeat IPC: 0.2927 cumulative IPC: 0.4663 (Simulation time: 05 hr 58 min 28 sec)
Heartbeat CPU 0 instructions: 1370000246 cycles: 2923181165 heartbeat IPC: 1.555 cumulative IPC: 0.4687 (Simulation time: 05 hr 59 min 18 sec)
Heartbeat CPU 0 instructions: 1380000246 cycles: 2948052552 heartbeat IPC: 0.4021 cumulative IPC: 0.4681 (Simulation time: 06 hr 01 min 52 sec)
Heartbeat CPU 0 instructions: 1390000247 cycles: 2963689806 heartbeat IPC: 0.6395 cumulative IPC: 0.469 (Simulation time: 06 hr 03 min 30 sec)
Heartbeat CPU 0 instructions: 1400000248 cycles: 2988541695 heartbeat IPC: 0.4024 cumulative IPC: 0.4685 (Simulation time: 06 hr 06 min 13 sec)
Heartbeat CPU 0 instructions: 1410000248 cycles: 3004163195 heartbeat IPC: 0.6401 cumulative IPC: 0.4693 (Simulation time: 06 hr 08 min 32 sec)
Heartbeat CPU 0 instructions: 1420000249 cycles: 3010540314 heartbeat IPC: 1.568 cumulative IPC: 0.4717 (Simulation time: 06 hr 09 min 45 sec)
Heartbeat CPU 0 instructions: 1430000249 cycles: 3044627610 heartbeat IPC: 0.2934 cumulative IPC: 0.4697 (Simulation time: 06 hr 13 min 23 sec)
Heartbeat CPU 0 instructions: 1440000249 cycles: 3050992735 heartbeat IPC: 1.571 cumulative IPC: 0.472 (Simulation time: 06 hr 14 min 34 sec)
Heartbeat CPU 0 instructions: 1450000252 cycles: 3075834526 heartbeat IPC: 0.4025 cumulative IPC: 0.4714 (Simulation time: 06 hr 17 min 56 sec)
Heartbeat CPU 0 instructions: 1460000252 cycles: 3082292436 heartbeat IPC: 1.548 cumulative IPC: 0.4737 (Simulation time: 06 hr 19 min 08 sec)
Heartbeat CPU 0 instructions: 1470000253 cycles: 3107172522 heartbeat IPC: 0.4019 cumulative IPC: 0.4731 (Simulation time: 06 hr 22 min 29 sec)
Heartbeat CPU 0 instructions: 1480000254 cycles: 3122792734 heartbeat IPC: 0.6402 cumulative IPC: 0.4739 (Simulation time: 06 hr 24 min 48 sec)
Heartbeat CPU 0 instructions: 1490000256 cycles: 3138385657 heartbeat IPC: 0.6413 cumulative IPC: 0.4748 (Simulation time: 06 hr 26 min 57 sec)
Heartbeat CPU 0 instructions: 1500000257 cycles: 3153982002 heartbeat IPC: 0.6412 cumulative IPC: 0.4756 (Simulation time: 06 hr 28 min 42 sec)
Heartbeat CPU 0 instructions: 1510000259 cycles: 3160338390 heartbeat IPC: 1.573 cumulative IPC: 0.4778 (Simulation time: 06 hr 29 min 52 sec)
Heartbeat CPU 0 instructions: 1520000263 cycles: 3175918738 heartbeat IPC: 0.6418 cumulative IPC: 0.4786 (Simulation time: 06 hr 31 min 42 sec)
Heartbeat CPU 0 instructions: 1530000263 cycles: 3200754173 heartbeat IPC: 0.4027 cumulative IPC: 0.478 (Simulation time: 06 hr 35 min 07 sec)
Heartbeat CPU 0 instructions: 1540000265 cycles: 3216376080 heartbeat IPC: 0.6401 cumulative IPC: 0.4788 (Simulation time: 06 hr 37 min 02 sec)
Heartbeat CPU 0 instructions: 1550000269 cycles: 3250531041 heartbeat IPC: 0.2928 cumulative IPC: 0.4768 (Simulation time: 06 hr 40 min 29 sec)
Heartbeat CPU 0 instructions: 1560000270 cycles: 3266139890 heartbeat IPC: 0.6407 cumulative IPC: 0.4776 (Simulation time: 06 hr 42 min 36 sec)
Heartbeat CPU 0 instructions: 1570000270 cycles: 3281763082 heartbeat IPC: 0.6401 cumulative IPC: 0.4784 (Simulation time: 06 hr 44 min 42 sec)
Heartbeat CPU 0 instructions: 1580000270 cycles: 3306635100 heartbeat IPC: 0.4021 cumulative IPC: 0.4778 (Simulation time: 06 hr 47 min 36 sec)
Heartbeat CPU 0 instructions: 1590000270 cycles: 3313053741 heartbeat IPC: 1.558 cumulative IPC: 0.4799 (Simulation time: 06 hr 48 min 47 sec)
Heartbeat CPU 0 instructions: 1600000273 cycles: 3337935778 heartbeat IPC: 0.4019 cumulative IPC: 0.4793 (Simulation time: 06 hr 51 min 44 sec)
Heartbeat CPU 0 instructions: 1610000277 cycles: 3344318364 heartbeat IPC: 1.567 cumulative IPC: 0.4814 (Simulation time: 06 hr 52 min 41 sec)
Heartbeat CPU 0 instructions: 1620000279 cycles: 3369169156 heartbeat IPC: 0.4024 cumulative IPC: 0.4808 (Simulation time: 06 hr 55 min 21 sec)
Heartbeat CPU 0 instructions: 1630000279 cycles: 3384773028 heartbeat IPC: 0.6409 cumulative IPC: 0.4816 (Simulation time: 06 hr 57 min 18 sec)
Heartbeat CPU 0 instructions: 1640000279 cycles: 3400430972 heartbeat IPC: 0.6387 cumulative IPC: 0.4823 (Simulation time: 06 hr 59 min 34 sec)
Heartbeat CPU 0 instructions: 1650000280 cycles: 3416054209 heartbeat IPC: 0.6401 cumulative IPC: 0.483 (Simulation time: 07 hr 01 min 50 sec)
Heartbeat CPU 0 instructions: 1660000282 cycles: 3422439343 heartbeat IPC: 1.566 cumulative IPC: 0.485 (Simulation time: 07 hr 02 min 56 sec)
Heartbeat CPU 0 instructions: 1670000283 cycles: 3447346697 heartbeat IPC: 0.4015 cumulative IPC: 0.4844 (Simulation time: 07 hr 06 min 16 sec)
Heartbeat CPU 0 instructions: 1680000285 cycles: 3453775798 heartbeat IPC: 1.555 cumulative IPC: 0.4864 (Simulation time: 07 hr 07 min 27 sec)
Heartbeat CPU 0 instructions: 1690000288 cycles: 3478676744 heartbeat IPC: 0.4016 cumulative IPC: 0.4858 (Simulation time: 07 hr 10 min 45 sec)
Heartbeat CPU 0 instructions: 1700000290 cycles: 3494304754 heartbeat IPC: 0.6399 cumulative IPC: 0.4865 (Simulation time: 07 hr 12 min 58 sec)
Heartbeat CPU 0 instructions: 1710000290 cycles: 3509918649 heartbeat IPC: 0.6405 cumulative IPC: 0.4872 (Simulation time: 07 hr 15 min 04 sec)
Heartbeat CPU 0 instructions: 1720000290 cycles: 3525533604 heartbeat IPC: 0.6404 cumulative IPC: 0.4879 (Simulation time: 07 hr 16 min 45 sec)
Heartbeat CPU 0 instructions: 1730000293 cycles: 3531908228 heartbeat IPC: 1.569 cumulative IPC: 0.4898 (Simulation time: 07 hr 17 min 46 sec)
Heartbeat CPU 0 instructions: 1740000296 cycles: 3556846612 heartbeat IPC: 0.401 cumulative IPC: 0.4892 (Simulation time: 07 hr 20 min 11 sec)
Heartbeat CPU 0 instructions: 1750000296 cycles: 3581748366 heartbeat IPC: 0.4016 cumulative IPC: 0.4886 (Simulation time: 07 hr 22 min 51 sec)
Heartbeat CPU 0 instructions: 1760000296 cycles: 3597446907 heartbeat IPC: 0.637 cumulative IPC: 0.4892 (Simulation time: 07 hr 24 min 41 sec)
Heartbeat CPU 0 instructions: 1770000297 cycles: 3631613092 heartbeat IPC: 0.2927 cumulative IPC: 0.4874 (Simulation time: 07 hr 28 min 36 sec)
Heartbeat CPU 0 instructions: 1780000299 cycles: 3647306283 heartbeat IPC: 0.6372 cumulative IPC: 0.488 (Simulation time: 07 hr 30 min 52 sec)
Heartbeat CPU 0 instructions: 1790000303 cycles: 3663016071 heartbeat IPC: 0.6365 cumulative IPC: 0.4887 (Simulation time: 07 hr 33 min 03 sec)
Heartbeat CPU 0 instructions: 1800000305 cycles: 3687937624 heartbeat IPC: 0.4013 cumulative IPC: 0.4881 (Simulation time: 07 hr 35 min 55 sec)
Heartbeat CPU 0 instructions: 1810000306 cycles: 3694379353 heartbeat IPC: 1.552 cumulative IPC: 0.4899 (Simulation time: 07 hr 36 min 53 sec)
Heartbeat CPU 0 instructions: 1820000306 cycles: 3728518454 heartbeat IPC: 0.2929 cumulative IPC: 0.4881 (Simulation time: 07 hr 40 min 39 sec)
Heartbeat CPU 0 instructions: 1830000306 cycles: 3735021253 heartbeat IPC: 1.538 cumulative IPC: 0.49 (Simulation time: 07 hr 41 min 49 sec)
Heartbeat CPU 0 instructions: 1840000310 cycles: 3769244334 heartbeat IPC: 0.2922 cumulative IPC: 0.4882 (Simulation time: 07 hr 45 min 56 sec)
Heartbeat CPU 0 instructions: 1850000311 cycles: 3775748168 heartbeat IPC: 1.538 cumulative IPC: 0.49 (Simulation time: 07 hr 47 min 06 sec)
Heartbeat CPU 0 instructions: 1860000315 cycles: 3791466771 heartbeat IPC: 0.6362 cumulative IPC: 0.4906 (Simulation time: 07 hr 48 min 42 sec)
Heartbeat CPU 0 instructions: 1870000316 cycles: 3807221537 heartbeat IPC: 0.6347 cumulative IPC: 0.4912 (Simulation time: 07 hr 50 min 49 sec)
Heartbeat CPU 0 instructions: 1880000317 cycles: 3813717133 heartbeat IPC: 1.54 cumulative IPC: 0.493 (Simulation time: 07 hr 52 min 00 sec)
Heartbeat CPU 0 instructions: 1890000318 cycles: 3847921413 heartbeat IPC: 0.2924 cumulative IPC: 0.4912 (Simulation time: 07 hr 56 min 16 sec)
Heartbeat CPU 0 instructions: 1900000321 cycles: 3854399173 heartbeat IPC: 1.544 cumulative IPC: 0.4929 (Simulation time: 07 hr 57 min 23 sec)
Heartbeat CPU 0 instructions: 1910000321 cycles: 3870083976 heartbeat IPC: 0.6376 cumulative IPC: 0.4935 (Simulation time: 07 hr 59 min 34 sec)
Heartbeat CPU 0 instructions: 1920000325 cycles: 3885812349 heartbeat IPC: 0.6358 cumulative IPC: 0.4941 (Simulation time: 08 hr 01 min 53 sec)
Heartbeat CPU 0 instructions: 1930000326 cycles: 3901458991 heartbeat IPC: 0.6391 cumulative IPC: 0.4947 (Simulation time: 08 hr 04 min 11 sec)
Heartbeat CPU 0 instructions: 1940000328 cycles: 3926361252 heartbeat IPC: 0.4016 cumulative IPC: 0.4941 (Simulation time: 08 hr 07 min 32 sec)
Heartbeat CPU 0 instructions: 1950000328 cycles: 3942031312 heartbeat IPC: 0.6382 cumulative IPC: 0.4947 (Simulation time: 08 hr 09 min 37 sec)
Heartbeat CPU 0 instructions: 1960000329 cycles: 3957684491 heartbeat IPC: 0.6388 cumulative IPC: 0.4952 (Simulation time: 08 hr 11 min 47 sec)
Heartbeat CPU 0 instructions: 1970000332 cycles: 3982562610 heartbeat IPC: 0.402 cumulative IPC: 0.4947 (Simulation time: 08 hr 14 min 53 sec)
Heartbeat CPU 0 instructions: 1980000335 cycles: 3998200758 heartbeat IPC: 0.6395 cumulative IPC: 0.4952 (Simulation time: 08 hr 16 min 43 sec)
Heartbeat CPU 0 instructions: 1990000338 cycles: 4023069808 heartbeat IPC: 0.4021 cumulative IPC: 0.4946 (Simulation time: 08 hr 19 min 25 sec)

=== ERROR PAGE STATISTICS ===
Mode: OFF
Total Error Accesses: 0
==============================
Simulation finished CPU 0 instructions: 1999999507 cycles: 4038707900 cumulative IPC: 0.4952 (Simulation time: 08 hr 21 min 16 sec)
Simulation complete CPU 0 instructions: 1999999507 cycles: 4038707900 cumulative IPC: 0.4952 (Simulation time: 08 hr 21 min 16 sec)

ChampSim completed all CPUs

=== Simulation ===
CPU 0 runs test_traces/607.cactuBSSN_s-2421B.champsimtrace.xz

Region of Interest Statistics

CPU 0 cumulative IPC: 0.4952 instructions: 1999999507 cycles: 4038707900
CPU 0 Branch Prediction Accuracy: 98.41% MPKI: 0.0223 Average ROB Occupancy at Mispredict: 322.7
Branch type MPKI
BRANCH_DIRECT_JUMP: 3.4e-05
BRANCH_INDIRECT: 4.45e-05
BRANCH_CONDITIONAL: 0.0122
BRANCH_DIRECT_CALL: 0.000332
BRANCH_INDIRECT_CALL: 1.5e-06
BRANCH_RETURN: 0.009687

cpu0->cpu0_STLB TOTAL        ACCESS:   38315522 HIT:   38315124 MISS:        398 MSHR_MERGE:          0
cpu0->cpu0_STLB LOAD         ACCESS:   38315522 HIT:   38315124 MISS:        398 MSHR_MERGE:          0
cpu0->cpu0_STLB RFO          ACCESS:          0 HIT:          0 MISS:          0 MSHR_MERGE:          0
cpu0->cpu0_STLB PREFETCH     ACCESS:          0 HIT:          0 MISS:          0 MSHR_MERGE:          0
cpu0->cpu0_STLB WRITE        ACCESS:          0 HIT:          0 MISS:          0 MSHR_MERGE:          0
cpu0->cpu0_STLB TRANSLATION  ACCESS:          0 HIT:          0 MISS:          0 MSHR_MERGE:          0
cpu0->cpu0_STLB PREFETCH REQUESTED:          0 ISSUED:          0 USEFUL:          0 USELESS:          0
cpu0->cpu0_STLB AVERAGE MISS LATENCY: 9.657e+06 cycles
cpu0->cpu0_L2C TOTAL        ACCESS:  251137936 HIT:  230755203 MISS:   20382733 MSHR_MERGE:          0
cpu0->cpu0_L2C LOAD         ACCESS:  216983787 HIT:  196631680 MISS:   20352107 MSHR_MERGE:          0
cpu0->cpu0_L2C RFO          ACCESS:   16173493 HIT:   16142885 MISS:      30608 MSHR_MERGE:          0
cpu0->cpu0_L2C PREFETCH     ACCESS:          0 HIT:          0 MISS:          0 MSHR_MERGE:          0
cpu0->cpu0_L2C WRITE        ACCESS:   17980656 HIT:   17980638 MISS:         18 MSHR_MERGE:          0
cpu0->cpu0_L2C TRANSLATION  ACCESS:          0 HIT:          0 MISS:          0 MSHR_MERGE:          0
cpu0->cpu0_L2C PREFETCH REQUESTED:          0 ISSUED:          0 USEFUL:          0 USELESS:          0
cpu0->cpu0_L2C AVERAGE MISS LATENCY: 97.53 cycles
cpu0->cpu0_L1I TOTAL        ACCESS:  395396143 HIT:  392739569 MISS:    2656574 MSHR_MERGE:    1306431
cpu0->cpu0_L1I LOAD         ACCESS:  395396143 HIT:  392739569 MISS:    2656574 MSHR_MERGE:    1306431
cpu0->cpu0_L1I RFO          ACCESS:          0 HIT:          0 MISS:          0 MSHR_MERGE:          0
cpu0->cpu0_L1I PREFETCH     ACCESS:          0 HIT:          0 MISS:          0 MSHR_MERGE:          0
cpu0->cpu0_L1I WRITE        ACCESS:          0 HIT:          0 MISS:          0 MSHR_MERGE:          0
cpu0->cpu0_L1I TRANSLATION  ACCESS:          0 HIT:          0 MISS:          0 MSHR_MERGE:          0
cpu0->cpu0_L1I PREFETCH REQUESTED:          0 ISSUED:          0 USEFUL:          0 USELESS:          0
cpu0->cpu0_L1I AVERAGE MISS LATENCY: 7.271 cycles
cpu0->cpu0_L1D TOTAL        ACCESS:  649221868 HIT:  374764338 MISS:  274457530 MSHR_MERGE:   41990505
cpu0->cpu0_L1D LOAD         ACCESS:  422471894 HIT:  165894638 MISS:  256577256 MSHR_MERGE:   40289314
cpu0->cpu0_L1D RFO          ACCESS:          0 HIT:          0 MISS:          0 MSHR_MERGE:          0
cpu0->cpu0_L1D PREFETCH     ACCESS:          0 HIT:          0 MISS:          0 MSHR_MERGE:          0
cpu0->cpu0_L1D WRITE        ACCESS:  226749974 HIT:  208869700 MISS:   17880274 MSHR_MERGE:    1701191
cpu0->cpu0_L1D TRANSLATION  ACCESS:          0 HIT:          0 MISS:          0 MSHR_MERGE:          0
cpu0->cpu0_L1D PREFETCH REQUESTED:          0 ISSUED:          0 USEFUL:          0 USELESS:          0
cpu0->cpu0_L1D AVERAGE MISS LATENCY: 17.61 cycles
cpu0->cpu0_ITLB TOTAL        ACCESS:  322062933 HIT:  322062919 MISS:         14 MSHR_MERGE:         10
cpu0->cpu0_ITLB LOAD         ACCESS:  322062933 HIT:  322062919 MISS:         14 MSHR_MERGE:         10
cpu0->cpu0_ITLB RFO          ACCESS:          0 HIT:          0 MISS:          0 MSHR_MERGE:          0
cpu0->cpu0_ITLB PREFETCH     ACCESS:          0 HIT:          0 MISS:          0 MSHR_MERGE:          0
cpu0->cpu0_ITLB WRITE        ACCESS:          0 HIT:          0 MISS:          0 MSHR_MERGE:          0
cpu0->cpu0_ITLB TRANSLATION  ACCESS:          0 HIT:          0 MISS:          0 MSHR_MERGE:          0
cpu0->cpu0_ITLB PREFETCH REQUESTED:          0 ISSUED:          0 USEFUL:          0 USELESS:          0
cpu0->cpu0_ITLB AVERAGE MISS LATENCY: 9.24e+06 cycles
cpu0->cpu0_DTLB TOTAL        ACCESS:  496328348 HIT:  419690092 MISS:   76638256 MSHR_MERGE:   38322738
cpu0->cpu0_DTLB LOAD         ACCESS:  496328348 HIT:  419690092 MISS:   76638256 MSHR_MERGE:   38322738
cpu0->cpu0_DTLB RFO          ACCESS:          0 HIT:          0 MISS:          0 MSHR_MERGE:          0
cpu0->cpu0_DTLB PREFETCH     ACCESS:          0 HIT:          0 MISS:          0 MSHR_MERGE:          0
cpu0->cpu0_DTLB WRITE        ACCESS:          0 HIT:          0 MISS:          0 MSHR_MERGE:          0
cpu0->cpu0_DTLB TRANSLATION  ACCESS:          0 HIT:          0 MISS:          0 MSHR_MERGE:          0
cpu0->cpu0_DTLB PREFETCH REQUESTED:          0 ISSUED:          0 USEFUL:          0 USELESS:          0
cpu0->cpu0_DTLB AVERAGE MISS LATENCY: 104.5 cycles
cpu0->LLC TOTAL        ACCESS:   22275855 HIT:    7173048 MISS:   15102807 MSHR_MERGE:          0
cpu0->LLC LOAD         ACCESS:   20352107 HIT:    5279956 MISS:   15072151 MSHR_MERGE:          0
cpu0->LLC RFO          ACCESS:      30608 HIT:          0 MISS:      30608 MSHR_MERGE:          0
cpu0->LLC PREFETCH     ACCESS:          0 HIT:          0 MISS:          0 MSHR_MERGE:          0
cpu0->LLC WRITE        ACCESS:    1893140 HIT:    1893092 MISS:         48 MSHR_MERGE:          0
cpu0->LLC TRANSLATION  ACCESS:          0 HIT:          0 MISS:          0 MSHR_MERGE:          0
cpu0->LLC PREFETCH REQUESTED:          0 ISSUED:          0 USEFUL:          0 USELESS:          0
cpu0->LLC AVERAGE MISS LATENCY: 110.4 cycles

DRAM Statistics

Channel 0 RQ ROW_BUFFER_HIT:      31721
  ROW_BUFFER_MISS:    7520094
  AVG DBUS CONGESTED CYCLE: 9.957
Channel 0 WQ ROW_BUFFER_HIT:     296003
  ROW_BUFFER_MISS:     648165
  FULL:          0
Channel 0 REFRESHES ISSUED:     336537

Channel 1 RQ ROW_BUFFER_HIT:      31640
  ROW_BUFFER_MISS:    7520093
  AVG DBUS CONGESTED CYCLE: 9.952
Channel 1 WQ ROW_BUFFER_HIT:     295611
  ROW_BUFFER_MISS:     648568
  FULL:          0
Channel 1 REFRESHES ISSUED:     336537
