
*** ChampSim Multicore Out-of-Order Simulator ***
Warmup Instructions: 0
Simulation Instructions: 9223372036854775807
Number of CPUs: 1
Page size: 1048576

Off-chip DRAM Size: 64 GiB Channels: 2 Width: 32-bit Data Rate: 4807 MT/s
[ERROR_PAGE_MANAGER] Error latency: 2459910500 
[ERROR_PAGE_MANAGER] Random seed: 54321 (fixed for preload reproducibility)
[ERROR_PAGE_MANAGER] Cycle-based error modeling enabled
[ERROR_PAGE_MANAGER] Errors per interval: 1
[ERROR_PAGE_MANAGER] Error cycle interval: 464841614 cycles

=== ERROR PAGE STATISTICS ===
Mode: CYCLE
Error Cycle Interval: 464841614 CPU cycles
Total Error Accesses: 0
==============================
Warmup finished CPU 0 instructions: 0 cycles: 1 cumulative IPC: 0 (Simulation time: 00 hr 00 min 00 sec)
Warmup complete CPU 0 instructions: 0 cycles: 1 cumulative IPC: 0 (Simulation time: 00 hr 00 min 00 sec)
Simulation CPU 0 panic: IPC 0 < 0.01
Simulation CPU 0 panic: IPC 2e-07 < 0.01
Simulation CPU 0 panic: IPC 0 < 0.01
Simulation CPU 0 panic: IPC 8.5e-06 < 0.01
Simulation CPU 0 panic: IPC 5.64e-05 < 0.01
Simulation CPU 0 panic: IPC 7e-07 < 0.01
Simulation CPU 0 panic: IPC 0 < 0.01
Simulation CPU 0 panic: IPC 0.0002751 < 0.01
Simulation CPU 0 panic: IPC 0 < 0.01
Simulation CPU 0 panic: IPC 3.3e-06 < 0.01
Simulation CPU 0 panic: IPC 1e-07 < 0.01
Simulation CPU 0 panic: IPC 0 < 0.01
Simulation CPU 0 panic: IPC 0 < 0.01
Simulation CPU 0 panic: IPC 2e-06 < 0.01
Simulation CPU 0 panic: IPC 3.3e-06 < 0.01
Simulation CPU 0 panic: IPC 3.82e-05 < 0.01
Simulation CPU 0 panic: IPC 2.12e-05 < 0.01
Simulation CPU 0 panic: IPC 1.04e-05 < 0.01
Simulation CPU 0 panic: IPC 3.11e-05 < 0.01
Simulation CPU 0 panic: IPC 2.18e-05 < 0.01
Simulation CPU 0 panic: IPC 1.01e-05 < 0.01
Simulation CPU 0 panic: IPC 2.12e-05 < 0.01
Simulation CPU 0 panic: IPC 2.89e-05 < 0.01
Heartbeat CPU 0 instructions: 10000002 cycles: 235767029 heartbeat IPC: 0.04241 cumulative IPC: 0.04241 (Simulation time: 00 hr 23 min 07 sec)
Heartbeat CPU 0 instructions: 20000002 cycles: 249907567 heartbeat IPC: 0.7072 cumulative IPC: 0.08003 (Simulation time: 00 hr 25 min 07 sec)
Heartbeat CPU 0 instructions: 30000006 cycles: 273232196 heartbeat IPC: 0.4287 cumulative IPC: 0.1098 (Simulation time: 00 hr 28 min 09 sec)
Heartbeat CPU 0 instructions: 40000007 cycles: 296542483 heartbeat IPC: 0.429 cumulative IPC: 0.1349 (Simulation time: 00 hr 31 min 12 sec)
Heartbeat CPU 0 instructions: 50000007 cycles: 310668221 heartbeat IPC: 0.7079 cumulative IPC: 0.1609 (Simulation time: 00 hr 33 min 15 sec)
Simulation CPU 0 critical: IPC 0.011888 < 0.02
Simulation CPU 0 panic: IPC 3.1e-06 < 0.01
Simulation CPU 0 panic: IPC 2.1e-06 < 0.01
Simulation CPU 0 panic: IPC 9.2e-06 < 0.01
Simulation CPU 0 panic: IPC 1.1e-05 < 0.01
Simulation CPU 0 panic: IPC 9.2e-06 < 0.01
Simulation CPU 0 panic: IPC 8.8e-06 < 0.01
Simulation CPU 0 panic: IPC 6.8e-06 < 0.01
Simulation CPU 0 panic: IPC 8.4e-06 < 0.01
Simulation CPU 0 panic: IPC 1.08e-05 < 0.01
Simulation CPU 0 panic: IPC 1e-05 < 0.01
Simulation CPU 0 panic: IPC 7.9e-06 < 0.01
Simulation CPU 0 panic: IPC 7.8e-06 < 0.01
Simulation CPU 0 panic: IPC 1.75e-05 < 0.01
[ERROR_CYCLE] Error added at CPU cycle 464841614, interval 1, pending count: 1
[DRAM_CYCLE_ERROR] Cycle-based error applied! address=0x7a5436ec8 additional_latency=2459910500 cycles
Simulation CPU 0 panic: IPC 0 < 0.01
Simulation CPU 0 panic: IPC 7.4e-06 < 0.01
Simulation CPU 0 panic: IPC 9.5e-06 < 0.01
Simulation CPU 0 panic: IPC 7.3e-06 < 0.01
Simulation CPU 0 panic: IPC 9.5e-06 < 0.01
Simulation CPU 0 panic: IPC 7.3e-06 < 0.01
Simulation CPU 0 panic: IPC 9.5e-06 < 0.01
Simulation CPU 0 panic: IPC 7.3e-06 < 0.01
Simulation CPU 0 panic: IPC 9.5e-06 < 0.01
Simulation CPU 0 panic: IPC 8e-06 < 0.01
Simulation CPU 0 panic: IPC 7.5e-06 < 0.01
Simulation CPU 0 panic: IPC 9.1e-06 < 0.01
Simulation CPU 0 panic: IPC 1.68e-05 < 0.01
Simulation CPU 0 panic: IPC 7.5e-06 < 0.01
Heartbeat CPU 0 instructions: 60000008 cycles: 622392228 heartbeat IPC: 0.03208 cumulative IPC: 0.0964 (Simulation time: 01 hr 10 min 08 sec)
Heartbeat CPU 0 instructions: 70000012 cycles: 628761348 heartbeat IPC: 1.57 cumulative IPC: 0.1113 (Simulation time: 01 hr 11 min 16 sec)
Heartbeat CPU 0 instructions: 80000013 cycles: 644365608 heartbeat IPC: 0.6409 cumulative IPC: 0.1242 (Simulation time: 01 hr 13 min 26 sec)
Heartbeat CPU 0 instructions: 90000014 cycles: 678457139 heartbeat IPC: 0.2933 cumulative IPC: 0.1327 (Simulation time: 01 hr 17 min 46 sec)
Heartbeat CPU 0 instructions: 100000018 cycles: 694074384 heartbeat IPC: 0.6403 cumulative IPC: 0.1441 (Simulation time: 01 hr 19 min 57 sec)
Heartbeat CPU 0 instructions: 110000021 cycles: 709697234 heartbeat IPC: 0.6401 cumulative IPC: 0.155 (Simulation time: 01 hr 22 min 14 sec)
Heartbeat CPU 0 instructions: 120000024 cycles: 734529860 heartbeat IPC: 0.4027 cumulative IPC: 0.1634 (Simulation time: 01 hr 24 min 59 sec)
Heartbeat CPU 0 instructions: 130000025 cycles: 750139516 heartbeat IPC: 0.6406 cumulative IPC: 0.1733 (Simulation time: 01 hr 27 min 05 sec)
Heartbeat CPU 0 instructions: 140000027 cycles: 774942556 heartbeat IPC: 0.4032 cumulative IPC: 0.1807 (Simulation time: 01 hr 30 min 07 sec)
Heartbeat CPU 0 instructions: 150000029 cycles: 790573071 heartbeat IPC: 0.6398 cumulative IPC: 0.1897 (Simulation time: 01 hr 32 min 12 sec)
Heartbeat CPU 0 instructions: 160000032 cycles: 815419212 heartbeat IPC: 0.4025 cumulative IPC: 0.1962 (Simulation time: 01 hr 35 min 21 sec)
Heartbeat CPU 0 instructions: 170000032 cycles: 831054573 heartbeat IPC: 0.6396 cumulative IPC: 0.2046 (Simulation time: 01 hr 37 min 38 sec)
Heartbeat CPU 0 instructions: 180000033 cycles: 855929281 heartbeat IPC: 0.402 cumulative IPC: 0.2103 (Simulation time: 01 hr 40 min 58 sec)
Heartbeat CPU 0 instructions: 190000037 cycles: 871567424 heartbeat IPC: 0.6395 cumulative IPC: 0.218 (Simulation time: 01 hr 43 min 15 sec)
Heartbeat CPU 0 instructions: 200000039 cycles: 877974668 heartbeat IPC: 1.561 cumulative IPC: 0.2278 (Simulation time: 01 hr 44 min 25 sec)
Heartbeat CPU 0 instructions: 210000040 cycles: 902882566 heartbeat IPC: 0.4015 cumulative IPC: 0.2326 (Simulation time: 01 hr 47 min 48 sec)
Heartbeat CPU 0 instructions: 220000042 cycles: 909322515 heartbeat IPC: 1.553 cumulative IPC: 0.2419 (Simulation time: 01 hr 48 min 59 sec)
Heartbeat CPU 0 instructions: 230000043 cycles: 925006579 heartbeat IPC: 0.6376 cumulative IPC: 0.2486 (Simulation time: 01 hr 51 min 14 sec)
[ERROR_CYCLE] Error added at CPU cycle 929683228, interval 2, pending count: 1
[DRAM_CYCLE_ERROR] Cycle-based error applied! address=0x537cc7250 additional_latency=2459910500 cycles
Simulation CPU 0 panic: IPC 0 < 0.01
Heartbeat CPU 0 instructions: 240000044 cycles: 959815885 heartbeat IPC: 0.2873 cumulative IPC: 0.25 (Simulation time: 01 hr 55 min 48 sec)
Heartbeat CPU 0 instructions: 250000045 cycles: 975454518 heartbeat IPC: 0.6394 cumulative IPC: 0.2563 (Simulation time: 01 hr 57 min 58 sec)
Heartbeat CPU 0 instructions: 260000048 cycles: 991123837 heartbeat IPC: 0.6382 cumulative IPC: 0.2623 (Simulation time: 02 hr 00 min 15 sec)
Heartbeat CPU 0 instructions: 270000051 cycles: 997538476 heartbeat IPC: 1.559 cumulative IPC: 0.2707 (Simulation time: 02 hr 01 min 26 sec)
Heartbeat CPU 0 instructions: 280000053 cycles: 1022430300 heartbeat IPC: 0.4017 cumulative IPC: 0.2739 (Simulation time: 02 hr 04 min 13 sec)
Heartbeat CPU 0 instructions: 290000054 cycles: 1038082387 heartbeat IPC: 0.6389 cumulative IPC: 0.2794 (Simulation time: 02 hr 06 min 08 sec)
Heartbeat CPU 0 instructions: 300000056 cycles: 1053753571 heartbeat IPC: 0.6381 cumulative IPC: 0.2847 (Simulation time: 02 hr 08 min 05 sec)
Heartbeat CPU 0 instructions: 310000059 cycles: 1087872478 heartbeat IPC: 0.2931 cumulative IPC: 0.285 (Simulation time: 02 hr 12 min 22 sec)
Heartbeat CPU 0 instructions: 320000063 cycles: 1103491618 heartbeat IPC: 0.6402 cumulative IPC: 0.29 (Simulation time: 02 hr 14 min 29 sec)
Heartbeat CPU 0 instructions: 330000067 cycles: 1109886240 heartbeat IPC: 1.564 cumulative IPC: 0.2973 (Simulation time: 02 hr 15 min 27 sec)
Heartbeat CPU 0 instructions: 340000070 cycles: 1144059028 heartbeat IPC: 0.2926 cumulative IPC: 0.2972 (Simulation time: 02 hr 19 min 44 sec)
Heartbeat CPU 0 instructions: 350000074 cycles: 1150450172 heartbeat IPC: 1.565 cumulative IPC: 0.3042 (Simulation time: 02 hr 20 min 53 sec)
Heartbeat CPU 0 instructions: 360000076 cycles: 1175297299 heartbeat IPC: 0.4025 cumulative IPC: 0.3063 (Simulation time: 02 hr 24 min 12 sec)
Heartbeat CPU 0 instructions: 370000077 cycles: 1181660990 heartbeat IPC: 1.571 cumulative IPC: 0.3131 (Simulation time: 02 hr 25 min 21 sec)
Heartbeat CPU 0 instructions: 380000081 cycles: 1215726849 heartbeat IPC: 0.2935 cumulative IPC: 0.3126 (Simulation time: 02 hr 29 min 45 sec)
Heartbeat CPU 0 instructions: 390000081 cycles: 1222114234 heartbeat IPC: 1.566 cumulative IPC: 0.3191 (Simulation time: 02 hr 30 min 55 sec)
Heartbeat CPU 0 instructions: 400000082 cycles: 1237768503 heartbeat IPC: 0.6388 cumulative IPC: 0.3232 (Simulation time: 02 hr 32 min 41 sec)
Heartbeat CPU 0 instructions: 410000082 cycles: 1253441817 heartbeat IPC: 0.638 cumulative IPC: 0.3271 (Simulation time: 02 hr 34 min 40 sec)
Heartbeat CPU 0 instructions: 420000085 cycles: 1259892863 heartbeat IPC: 1.55 cumulative IPC: 0.3334 (Simulation time: 02 hr 35 min 29 sec)
Heartbeat CPU 0 instructions: 430000089 cycles: 1284919342 heartbeat IPC: 0.3996 cumulative IPC: 0.3347 (Simulation time: 02 hr 38 min 17 sec)
Heartbeat CPU 0 instructions: 440000091 cycles: 1291412588 heartbeat IPC: 1.54 cumulative IPC: 0.3407 (Simulation time: 02 hr 39 min 11 sec)
Heartbeat CPU 0 instructions: 450000094 cycles: 1316360885 heartbeat IPC: 0.4008 cumulative IPC: 0.3419 (Simulation time: 02 hr 42 min 12 sec)
Heartbeat CPU 0 instructions: 460000097 cycles: 1332058836 heartbeat IPC: 0.637 cumulative IPC: 0.3453 (Simulation time: 02 hr 44 min 16 sec)
Heartbeat CPU 0 instructions: 470000101 cycles: 1347732697 heartbeat IPC: 0.638 cumulative IPC: 0.3487 (Simulation time: 02 hr 46 min 30 sec)
Heartbeat CPU 0 instructions: 480000101 cycles: 1363408523 heartbeat IPC: 0.6379 cumulative IPC: 0.3521 (Simulation time: 02 hr 48 min 23 sec)
Heartbeat CPU 0 instructions: 490000104 cycles: 1379096022 heartbeat IPC: 0.6375 cumulative IPC: 0.3553 (Simulation time: 02 hr 50 min 17 sec)
[ERROR_CYCLE] Error added at CPU cycle 1394524842, interval 3, pending count: 1
[DRAM_CYCLE_ERROR] Cycle-based error applied! address=0x3230adc00 additional_latency=2459910500 cycles
Heartbeat CPU 0 instructions: 500000107 cycles: 1404631209 heartbeat IPC: 0.3916 cumulative IPC: 0.356 (Simulation time: 02 hr 53 min 00 sec)
Heartbeat CPU 0 instructions: 510000110 cycles: 1429571443 heartbeat IPC: 0.401 cumulative IPC: 0.3568 (Simulation time: 02 hr 56 min 07 sec)
Heartbeat CPU 0 instructions: 520000113 cycles: 1454568569 heartbeat IPC: 0.4 cumulative IPC: 0.3575 (Simulation time: 02 hr 59 min 15 sec)
Heartbeat CPU 0 instructions: 530000114 cycles: 1479511013 heartbeat IPC: 0.4009 cumulative IPC: 0.3582 (Simulation time: 03 hr 02 min 31 sec)
Heartbeat CPU 0 instructions: 540000117 cycles: 1495205736 heartbeat IPC: 0.6372 cumulative IPC: 0.3612 (Simulation time: 03 hr 04 min 43 sec)
Heartbeat CPU 0 instructions: 550000118 cycles: 1520100480 heartbeat IPC: 0.4017 cumulative IPC: 0.3618 (Simulation time: 03 hr 08 min 01 sec)
Heartbeat CPU 0 instructions: 560000118 cycles: 1535740028 heartbeat IPC: 0.6394 cumulative IPC: 0.3646 (Simulation time: 03 hr 10 min 14 sec)
Heartbeat CPU 0 instructions: 570000120 cycles: 1542136216 heartbeat IPC: 1.563 cumulative IPC: 0.3696 (Simulation time: 03 hr 11 min 22 sec)
Heartbeat CPU 0 instructions: 580000122 cycles: 1576263276 heartbeat IPC: 0.293 cumulative IPC: 0.368 (Simulation time: 03 hr 15 min 44 sec)
Heartbeat CPU 0 instructions: 590000125 cycles: 1582692086 heartbeat IPC: 1.555 cumulative IPC: 0.3728 (Simulation time: 03 hr 16 min 53 sec)
Heartbeat CPU 0 instructions: 600000129 cycles: 1616855372 heartbeat IPC: 0.2927 cumulative IPC: 0.3711 (Simulation time: 03 hr 20 min 35 sec)
Heartbeat CPU 0 instructions: 610000129 cycles: 1623311846 heartbeat IPC: 1.549 cumulative IPC: 0.3758 (Simulation time: 03 hr 21 min 25 sec)
Heartbeat CPU 0 instructions: 620000131 cycles: 1648281461 heartbeat IPC: 0.4005 cumulative IPC: 0.3761 (Simulation time: 03 hr 23 min 56 sec)
Heartbeat CPU 0 instructions: 630000134 cycles: 1654736089 heartbeat IPC: 1.549 cumulative IPC: 0.3807 (Simulation time: 03 hr 25 min 06 sec)
Heartbeat CPU 0 instructions: 640000135 cycles: 1670412220 heartbeat IPC: 0.6379 cumulative IPC: 0.3831 (Simulation time: 03 hr 26 min 56 sec)
Heartbeat CPU 0 instructions: 650000138 cycles: 1695332484 heartbeat IPC: 0.4013 cumulative IPC: 0.3834 (Simulation time: 03 hr 29 min 56 sec)
Heartbeat CPU 0 instructions: 660000140 cycles: 1701755720 heartbeat IPC: 1.557 cumulative IPC: 0.3878 (Simulation time: 03 hr 31 min 00 sec)
Heartbeat CPU 0 instructions: 670000140 cycles: 1717411793 heartbeat IPC: 0.6387 cumulative IPC: 0.3901 (Simulation time: 03 hr 32 min 47 sec)
Heartbeat CPU 0 instructions: 680000140 cycles: 1733073806 heartbeat IPC: 0.6385 cumulative IPC: 0.3924 (Simulation time: 03 hr 34 min 43 sec)
Heartbeat CPU 0 instructions: 690000142 cycles: 1748732962 heartbeat IPC: 0.6386 cumulative IPC: 0.3946 (Simulation time: 03 hr 36 min 26 sec)
Heartbeat CPU 0 instructions: 700000144 cycles: 1764410918 heartbeat IPC: 0.6378 cumulative IPC: 0.3967 (Simulation time: 03 hr 38 min 01 sec)
Heartbeat CPU 0 instructions: 710000146 cycles: 1789371743 heartbeat IPC: 0.4006 cumulative IPC: 0.3968 (Simulation time: 03 hr 40 min 19 sec)
Heartbeat CPU 0 instructions: 720000149 cycles: 1814259500 heartbeat IPC: 0.4018 cumulative IPC: 0.3969 (Simulation time: 03 hr 43 min 11 sec)
Heartbeat CPU 0 instructions: 730000153 cycles: 1839157420 heartbeat IPC: 0.4016 cumulative IPC: 0.3969 (Simulation time: 03 hr 45 min 46 sec)
Heartbeat CPU 0 instructions: 740000154 cycles: 1845595870 heartbeat IPC: 1.553 cumulative IPC: 0.401 (Simulation time: 03 hr 46 min 57 sec)
[ERROR_CYCLE] Error added at CPU cycle 1859366456, interval 4, pending count: 1
[DRAM_CYCLE_ERROR] Cycle-based error applied! address=0xaac206458 additional_latency=2459910500 cycles
Simulation CPU 0 panic: IPC 0 < 0.01
Heartbeat CPU 0 instructions: 750000157 cycles: 1880322128 heartbeat IPC: 0.288 cumulative IPC: 0.3989 (Simulation time: 03 hr 51 min 29 sec)
Heartbeat CPU 0 instructions: 760000157 cycles: 1895967847 heartbeat IPC: 0.6392 cumulative IPC: 0.4009 (Simulation time: 03 hr 53 min 45 sec)
Heartbeat CPU 0 instructions: 770000158 cycles: 1920804967 heartbeat IPC: 0.4026 cumulative IPC: 0.4009 (Simulation time: 03 hr 57 min 08 sec)
Heartbeat CPU 0 instructions: 780000161 cycles: 1927174050 heartbeat IPC: 1.57 cumulative IPC: 0.4047 (Simulation time: 03 hr 58 min 18 sec)
Heartbeat CPU 0 instructions: 790000164 cycles: 1942791868 heartbeat IPC: 0.6403 cumulative IPC: 0.4066 (Simulation time: 04 hr 00 min 33 sec)
Heartbeat CPU 0 instructions: 800000165 cycles: 1967699003 heartbeat IPC: 0.4015 cumulative IPC: 0.4066 (Simulation time: 04 hr 03 min 16 sec)
Heartbeat CPU 0 instructions: 810000165 cycles: 1974082549 heartbeat IPC: 1.567 cumulative IPC: 0.4103 (Simulation time: 04 hr 04 min 27 sec)
Heartbeat CPU 0 instructions: 820000166 cycles: 1998961026 heartbeat IPC: 0.402 cumulative IPC: 0.4102 (Simulation time: 04 hr 07 min 48 sec)
Heartbeat CPU 0 instructions: 830000170 cycles: 2005376414 heartbeat IPC: 1.559 cumulative IPC: 0.4139 (Simulation time: 04 hr 08 min 59 sec)
Heartbeat CPU 0 instructions: 840000172 cycles: 2030310455 heartbeat IPC: 0.4011 cumulative IPC: 0.4137 (Simulation time: 04 hr 12 min 21 sec)
Heartbeat CPU 0 instructions: 850000174 cycles: 2036787304 heartbeat IPC: 1.544 cumulative IPC: 0.4173 (Simulation time: 04 hr 13 min 32 sec)
Heartbeat CPU 0 instructions: 860000178 cycles: 2052479736 heartbeat IPC: 0.6373 cumulative IPC: 0.419 (Simulation time: 04 hr 15 min 50 sec)
Heartbeat CPU 0 instructions: 870000180 cycles: 2077358461 heartbeat IPC: 0.4019 cumulative IPC: 0.4188 (Simulation time: 04 hr 18 min 11 sec)
Heartbeat CPU 0 instructions: 880000181 cycles: 2083745937 heartbeat IPC: 1.566 cumulative IPC: 0.4223 (Simulation time: 04 hr 19 min 00 sec)
Heartbeat CPU 0 instructions: 890000183 cycles: 2099345920 heartbeat IPC: 0.641 cumulative IPC: 0.4239 (Simulation time: 04 hr 20 min 29 sec)
Heartbeat CPU 0 instructions: 900000185 cycles: 2115050418 heartbeat IPC: 0.6368 cumulative IPC: 0.4255 (Simulation time: 04 hr 22 min 34 sec)
Heartbeat CPU 0 instructions: 910000185 cycles: 2130709793 heartbeat IPC: 0.6386 cumulative IPC: 0.4271 (Simulation time: 04 hr 24 min 48 sec)
Heartbeat CPU 0 instructions: 920000186 cycles: 2164843845 heartbeat IPC: 0.293 cumulative IPC: 0.425 (Simulation time: 04 hr 29 min 11 sec)
Heartbeat CPU 0 instructions: 930000190 cycles: 2180506997 heartbeat IPC: 0.6384 cumulative IPC: 0.4265 (Simulation time: 04 hr 31 min 22 sec)
Heartbeat CPU 0 instructions: 940000190 cycles: 2214657411 heartbeat IPC: 0.2928 cumulative IPC: 0.4244 (Simulation time: 04 hr 35 min 45 sec)
Heartbeat CPU 0 instructions: 950000193 cycles: 2230313481 heartbeat IPC: 0.6387 cumulative IPC: 0.4259 (Simulation time: 04 hr 37 min 46 sec)
Heartbeat CPU 0 instructions: 960000196 cycles: 2236760112 heartbeat IPC: 1.551 cumulative IPC: 0.4292 (Simulation time: 04 hr 38 min 57 sec)
Heartbeat CPU 0 instructions: 970000197 cycles: 2261632076 heartbeat IPC: 0.4021 cumulative IPC: 0.4289 (Simulation time: 04 hr 41 min 38 sec)
Heartbeat CPU 0 instructions: 980000199 cycles: 2277260392 heartbeat IPC: 0.6399 cumulative IPC: 0.4303 (Simulation time: 04 hr 43 min 21 sec)
Heartbeat CPU 0 instructions: 990000200 cycles: 2311442695 heartbeat IPC: 0.2925 cumulative IPC: 0.4283 (Simulation time: 04 hr 47 min 04 sec)
Heartbeat CPU 0 instructions: 1000000203 cycles: 2317863858 heartbeat IPC: 1.557 cumulative IPC: 0.4314 (Simulation time: 04 hr 48 min 10 sec)
[ERROR_CYCLE] Error added at CPU cycle 2324208070, interval 5, pending count: 1
[DRAM_CYCLE_ERROR] Cycle-based error applied! address=0xaac225870 additional_latency=2459910500 cycles
Simulation CPU 0 panic: IPC 0 < 0.01
Heartbeat CPU 0 instructions: 1010000203 cycles: 2352603360 heartbeat IPC: 0.2879 cumulative IPC: 0.4293 (Simulation time: 04 hr 52 min 20 sec)
Heartbeat CPU 0 instructions: 1020000207 cycles: 2368276482 heartbeat IPC: 0.638 cumulative IPC: 0.4307 (Simulation time: 04 hr 54 min 36 sec)
Heartbeat CPU 0 instructions: 1030000211 cycles: 2374702127 heartbeat IPC: 1.556 cumulative IPC: 0.4337 (Simulation time: 04 hr 55 min 45 sec)
Heartbeat CPU 0 instructions: 1040000214 cycles: 2399618993 heartbeat IPC: 0.4013 cumulative IPC: 0.4334 (Simulation time: 04 hr 59 min 03 sec)
Heartbeat CPU 0 instructions: 1050000214 cycles: 2406063052 heartbeat IPC: 1.552 cumulative IPC: 0.4364 (Simulation time: 05 hr 00 min 13 sec)
Heartbeat CPU 0 instructions: 1060000214 cycles: 2430993675 heartbeat IPC: 0.4011 cumulative IPC: 0.436 (Simulation time: 05 hr 03 min 35 sec)
Heartbeat CPU 0 instructions: 1070000217 cycles: 2446682694 heartbeat IPC: 0.6374 cumulative IPC: 0.4373 (Simulation time: 05 hr 05 min 48 sec)
Heartbeat CPU 0 instructions: 1080000217 cycles: 2462404788 heartbeat IPC: 0.636 cumulative IPC: 0.4386 (Simulation time: 05 hr 07 min 51 sec)
Heartbeat CPU 0 instructions: 1090000220 cycles: 2478084127 heartbeat IPC: 0.6378 cumulative IPC: 0.4399 (Simulation time: 05 hr 10 min 08 sec)
Heartbeat CPU 0 instructions: 1100000224 cycles: 2493755858 heartbeat IPC: 0.6381 cumulative IPC: 0.4411 (Simulation time: 05 hr 12 min 22 sec)
Heartbeat CPU 0 instructions: 1110000226 cycles: 2509448951 heartbeat IPC: 0.6372 cumulative IPC: 0.4423 (Simulation time: 05 hr 14 min 35 sec)
Heartbeat CPU 0 instructions: 1120000226 cycles: 2525140119 heartbeat IPC: 0.6373 cumulative IPC: 0.4435 (Simulation time: 05 hr 16 min 19 sec)
Heartbeat CPU 0 instructions: 1130000226 cycles: 2550070109 heartbeat IPC: 0.4011 cumulative IPC: 0.4431 (Simulation time: 05 hr 18 min 55 sec)
Heartbeat CPU 0 instructions: 1140000230 cycles: 2574941313 heartbeat IPC: 0.4021 cumulative IPC: 0.4427 (Simulation time: 05 hr 21 min 58 sec)
Heartbeat CPU 0 instructions: 1150000231 cycles: 2590609143 heartbeat IPC: 0.6383 cumulative IPC: 0.4439 (Simulation time: 05 hr 23 min 55 sec)
Heartbeat CPU 0 instructions: 1160000234 cycles: 2615541994 heartbeat IPC: 0.4011 cumulative IPC: 0.4435 (Simulation time: 05 hr 26 min 55 sec)
Heartbeat CPU 0 instructions: 1170000234 cycles: 2631200987 heartbeat IPC: 0.6386 cumulative IPC: 0.4447 (Simulation time: 05 hr 28 min 55 sec)
Heartbeat CPU 0 instructions: 1180000238 cycles: 2656121924 heartbeat IPC: 0.4013 cumulative IPC: 0.4443 (Simulation time: 05 hr 31 min 51 sec)
Heartbeat CPU 0 instructions: 1190000240 cycles: 2662491338 heartbeat IPC: 1.57 cumulative IPC: 0.4469 (Simulation time: 05 hr 32 min 59 sec)
Heartbeat CPU 0 instructions: 1200000242 cycles: 2668882062 heartbeat IPC: 1.565 cumulative IPC: 0.4496 (Simulation time: 05 hr 33 min 52 sec)
Heartbeat CPU 0 instructions: 1210000244 cycles: 2703000385 heartbeat IPC: 0.2931 cumulative IPC: 0.4477 (Simulation time: 05 hr 37 min 28 sec)
Heartbeat CPU 0 instructions: 1220000246 cycles: 2709412083 heartbeat IPC: 1.56 cumulative IPC: 0.4503 (Simulation time: 05 hr 38 min 16 sec)
Heartbeat CPU 0 instructions: 1230000246 cycles: 2734262208 heartbeat IPC: 0.4024 cumulative IPC: 0.4498 (Simulation time: 05 hr 41 min 00 sec)
Heartbeat CPU 0 instructions: 1240000246 cycles: 2740652111 heartbeat IPC: 1.565 cumulative IPC: 0.4524 (Simulation time: 05 hr 41 min 57 sec)
Heartbeat CPU 0 instructions: 1250000248 cycles: 2756319107 heartbeat IPC: 0.6383 cumulative IPC: 0.4535 (Simulation time: 05 hr 43 min 50 sec)
Heartbeat CPU 0 instructions: 1260000248 cycles: 2772025734 heartbeat IPC: 0.6367 cumulative IPC: 0.4545 (Simulation time: 05 hr 45 min 38 sec)
Heartbeat CPU 0 instructions: 1270000249 cycles: 2787771042 heartbeat IPC: 0.6351 cumulative IPC: 0.4556 (Simulation time: 05 hr 47 min 22 sec)
[ERROR_CYCLE] Error added at CPU cycle 2789049684, interval 6, pending count: 1
[DRAM_CYCLE_ERROR] Cycle-based error applied! address=0x8025dd680 additional_latency=2459910500 cycles
Heartbeat CPU 0 instructions: 1280000250 cycles: 2812656270 heartbeat IPC: 0.4018 cumulative IPC: 0.4551 (Simulation time: 05 hr 49 min 57 sec)
Heartbeat CPU 0 instructions: 1290000251 cycles: 2819053505 heartbeat IPC: 1.563 cumulative IPC: 0.4576 (Simulation time: 05 hr 50 min 58 sec)
Heartbeat CPU 0 instructions: 1300000252 cycles: 2834660658 heartbeat IPC: 0.6407 cumulative IPC: 0.4586 (Simulation time: 05 hr 52 min 52 sec)
Heartbeat CPU 0 instructions: 1310000252 cycles: 2850274703 heartbeat IPC: 0.6404 cumulative IPC: 0.4596 (Simulation time: 05 hr 54 min 34 sec)
Heartbeat CPU 0 instructions: 1320000255 cycles: 2865897726 heartbeat IPC: 0.6401 cumulative IPC: 0.4606 (Simulation time: 05 hr 56 min 25 sec)
Heartbeat CPU 0 instructions: 1330000259 cycles: 2881538914 heartbeat IPC: 0.6393 cumulative IPC: 0.4616 (Simulation time: 05 hr 58 min 07 sec)
Heartbeat CPU 0 instructions: 1340000260 cycles: 2915661478 heartbeat IPC: 0.2931 cumulative IPC: 0.4596 (Simulation time: 06 hr 01 min 42 sec)
Heartbeat CPU 0 instructions: 1350000261 cycles: 2931315895 heartbeat IPC: 0.6388 cumulative IPC: 0.4605 (Simulation time: 06 hr 03 min 39 sec)
Heartbeat CPU 0 instructions: 1360000261 cycles: 2965491138 heartbeat IPC: 0.2926 cumulative IPC: 0.4586 (Simulation time: 06 hr 07 min 08 sec)
Heartbeat CPU 0 instructions: 1370000261 cycles: 2971922107 heartbeat IPC: 1.555 cumulative IPC: 0.461 (Simulation time: 06 hr 08 min 08 sec)
Heartbeat CPU 0 instructions: 1380000261 cycles: 2996793433 heartbeat IPC: 0.4021 cumulative IPC: 0.4605 (Simulation time: 06 hr 11 min 20 sec)
Heartbeat CPU 0 instructions: 1390000261 cycles: 3012428017 heartbeat IPC: 0.6396 cumulative IPC: 0.4614 (Simulation time: 06 hr 13 min 11 sec)
Heartbeat CPU 0 instructions: 1400000261 cycles: 3037280813 heartbeat IPC: 0.4024 cumulative IPC: 0.4609 (Simulation time: 06 hr 16 min 22 sec)
Heartbeat CPU 0 instructions: 1410000261 cycles: 3052897878 heartbeat IPC: 0.6403 cumulative IPC: 0.4619 (Simulation time: 06 hr 18 min 04 sec)
Heartbeat CPU 0 instructions: 1420000262 cycles: 3059270444 heartbeat IPC: 1.569 cumulative IPC: 0.4642 (Simulation time: 06 hr 19 min 15 sec)
Heartbeat CPU 0 instructions: 1430000264 cycles: 3093357430 heartbeat IPC: 0.2934 cumulative IPC: 0.4623 (Simulation time: 06 hr 23 min 38 sec)
Heartbeat CPU 0 instructions: 1440000264 cycles: 3099721997 heartbeat IPC: 1.571 cumulative IPC: 0.4646 (Simulation time: 06 hr 24 min 46 sec)
Heartbeat CPU 0 instructions: 1450000267 cycles: 3124569419 heartbeat IPC: 0.4025 cumulative IPC: 0.4641 (Simulation time: 06 hr 27 min 42 sec)
Heartbeat CPU 0 instructions: 1460000271 cycles: 3131027990 heartbeat IPC: 1.548 cumulative IPC: 0.4663 (Simulation time: 06 hr 28 min 39 sec)
Heartbeat CPU 0 instructions: 1470000274 cycles: 3155906693 heartbeat IPC: 0.402 cumulative IPC: 0.4658 (Simulation time: 06 hr 31 min 25 sec)
Heartbeat CPU 0 instructions: 1480000274 cycles: 3171527964 heartbeat IPC: 0.6402 cumulative IPC: 0.4667 (Simulation time: 06 hr 33 min 12 sec)
Heartbeat CPU 0 instructions: 1490000278 cycles: 3187117465 heartbeat IPC: 0.6415 cumulative IPC: 0.4675 (Simulation time: 06 hr 34 min 41 sec)
Heartbeat CPU 0 instructions: 1500000282 cycles: 3202713594 heartbeat IPC: 0.6412 cumulative IPC: 0.4684 (Simulation time: 06 hr 36 min 32 sec)
Heartbeat CPU 0 instructions: 1510000284 cycles: 3209069240 heartbeat IPC: 1.573 cumulative IPC: 0.4705 (Simulation time: 06 hr 37 min 22 sec)
Heartbeat CPU 0 instructions: 1520000288 cycles: 3224651073 heartbeat IPC: 0.6418 cumulative IPC: 0.4714 (Simulation time: 06 hr 39 min 11 sec)
Heartbeat CPU 0 instructions: 1530000288 cycles: 3249488581 heartbeat IPC: 0.4026 cumulative IPC: 0.4708 (Simulation time: 06 hr 42 min 20 sec)
[ERROR_CYCLE] Error added at CPU cycle 3253891298, interval 7, pending count: 1
[DRAM_CYCLE_ERROR] Cycle-based error applied! address=0xaac264b00 additional_latency=2459910500 cycles
Simulation CPU 0 panic: IPC 0 < 0.01
Heartbeat CPU 0 instructions: 1540000288 cycles: 3274943776 heartbeat IPC: 0.3928 cumulative IPC: 0.4702 (Simulation time: 06 hr 45 min 36 sec)
Heartbeat CPU 0 instructions: 1550000290 cycles: 3309097177 heartbeat IPC: 0.2928 cumulative IPC: 0.4684 (Simulation time: 06 hr 48 min 58 sec)
Heartbeat CPU 0 instructions: 1560000291 cycles: 3324705155 heartbeat IPC: 0.6407 cumulative IPC: 0.4692 (Simulation time: 06 hr 50 min 55 sec)
Heartbeat CPU 0 instructions: 1570000295 cycles: 3340329400 heartbeat IPC: 0.64 cumulative IPC: 0.47 (Simulation time: 06 hr 53 min 11 sec)
Heartbeat CPU 0 instructions: 1580000296 cycles: 3365197447 heartbeat IPC: 0.4021 cumulative IPC: 0.4695 (Simulation time: 06 hr 56 min 13 sec)
Heartbeat CPU 0 instructions: 1590000299 cycles: 3371614881 heartbeat IPC: 1.558 cumulative IPC: 0.4716 (Simulation time: 06 hr 57 min 09 sec)
Heartbeat CPU 0 instructions: 1600000300 cycles: 3396495793 heartbeat IPC: 0.4019 cumulative IPC: 0.4711 (Simulation time: 07 hr 00 min 04 sec)
Heartbeat CPU 0 instructions: 1610000302 cycles: 3402880008 heartbeat IPC: 1.566 cumulative IPC: 0.4731 (Simulation time: 07 hr 01 min 04 sec)
Heartbeat CPU 0 instructions: 1620000304 cycles: 3427727612 heartbeat IPC: 0.4025 cumulative IPC: 0.4726 (Simulation time: 07 hr 03 min 27 sec)
Heartbeat CPU 0 instructions: 1630000308 cycles: 3443330244 heartbeat IPC: 0.6409 cumulative IPC: 0.4734 (Simulation time: 07 hr 04 min 56 sec)
Heartbeat CPU 0 instructions: 1640000311 cycles: 3458990148 heartbeat IPC: 0.6386 cumulative IPC: 0.4741 (Simulation time: 07 hr 06 min 37 sec)
Heartbeat CPU 0 instructions: 1650000313 cycles: 3474612460 heartbeat IPC: 0.6401 cumulative IPC: 0.4749 (Simulation time: 07 hr 08 min 18 sec)
Heartbeat CPU 0 instructions: 1660000316 cycles: 3480998427 heartbeat IPC: 1.566 cumulative IPC: 0.4769 (Simulation time: 07 hr 09 min 19 sec)
Heartbeat CPU 0 instructions: 1670000320 cycles: 3505907861 heartbeat IPC: 0.4015 cumulative IPC: 0.4763 (Simulation time: 07 hr 12 min 26 sec)
Heartbeat CPU 0 instructions: 1680000322 cycles: 3512334275 heartbeat IPC: 1.556 cumulative IPC: 0.4783 (Simulation time: 07 hr 13 min 32 sec)
Heartbeat CPU 0 instructions: 1690000322 cycles: 3537237780 heartbeat IPC: 0.4015 cumulative IPC: 0.4778 (Simulation time: 07 hr 16 min 16 sec)
Heartbeat CPU 0 instructions: 1700000325 cycles: 3552864096 heartbeat IPC: 0.6399 cumulative IPC: 0.4785 (Simulation time: 07 hr 18 min 01 sec)
Heartbeat CPU 0 instructions: 1710000325 cycles: 3568476748 heartbeat IPC: 0.6405 cumulative IPC: 0.4792 (Simulation time: 07 hr 19 min 56 sec)
Heartbeat CPU 0 instructions: 1720000328 cycles: 3584092051 heartbeat IPC: 0.6404 cumulative IPC: 0.4799 (Simulation time: 07 hr 22 min 11 sec)
Heartbeat CPU 0 instructions: 1730000328 cycles: 3590467884 heartbeat IPC: 1.568 cumulative IPC: 0.4818 (Simulation time: 07 hr 23 min 21 sec)
Heartbeat CPU 0 instructions: 1740000331 cycles: 3615402750 heartbeat IPC: 0.401 cumulative IPC: 0.4813 (Simulation time: 07 hr 26 min 44 sec)
Heartbeat CPU 0 instructions: 1750000333 cycles: 3640302386 heartbeat IPC: 0.4016 cumulative IPC: 0.4807 (Simulation time: 07 hr 29 min 40 sec)
Heartbeat CPU 0 instructions: 1760000334 cycles: 3656002872 heartbeat IPC: 0.6369 cumulative IPC: 0.4814 (Simulation time: 07 hr 31 min 19 sec)
Heartbeat CPU 0 instructions: 1770000334 cycles: 3690168653 heartbeat IPC: 0.2927 cumulative IPC: 0.4797 (Simulation time: 07 hr 35 min 00 sec)
Heartbeat CPU 0 instructions: 1780000335 cycles: 3705863245 heartbeat IPC: 0.6372 cumulative IPC: 0.4803 (Simulation time: 07 hr 37 min 03 sec)
[ERROR_CYCLE] Error added at CPU cycle 3718732912, interval 8, pending count: 1
[DRAM_CYCLE_ERROR] Cycle-based error applied! address=0x764400000 additional_latency=2459910500 cycles
Simulation CPU 0 panic: IPC 0 < 0.01
Heartbeat CPU 0 instructions: 1790000335 cycles: 3731414511 heartbeat IPC: 0.3914 cumulative IPC: 0.4797 (Simulation time: 07 hr 40 min 07 sec)
Heartbeat CPU 0 instructions: 1800000336 cycles: 3756331219 heartbeat IPC: 0.4013 cumulative IPC: 0.4792 (Simulation time: 07 hr 43 min 20 sec)
Heartbeat CPU 0 instructions: 1810000338 cycles: 3762771722 heartbeat IPC: 1.553 cumulative IPC: 0.481 (Simulation time: 07 hr 44 min 29 sec)
Heartbeat CPU 0 instructions: 1820000341 cycles: 3796911503 heartbeat IPC: 0.2929 cumulative IPC: 0.4793 (Simulation time: 07 hr 48 min 34 sec)
Heartbeat CPU 0 instructions: 1830000341 cycles: 3803416072 heartbeat IPC: 1.537 cumulative IPC: 0.4811 (Simulation time: 07 hr 49 min 46 sec)
Heartbeat CPU 0 instructions: 1840000345 cycles: 3837644334 heartbeat IPC: 0.2922 cumulative IPC: 0.4795 (Simulation time: 07 hr 53 min 24 sec)
Heartbeat CPU 0 instructions: 1850000345 cycles: 3844151113 heartbeat IPC: 1.537 cumulative IPC: 0.4813 (Simulation time: 07 hr 54 min 27 sec)
Heartbeat CPU 0 instructions: 1860000347 cycles: 3859868431 heartbeat IPC: 0.6362 cumulative IPC: 0.4819 (Simulation time: 07 hr 56 min 39 sec)
Heartbeat CPU 0 instructions: 1870000350 cycles: 3875626743 heartbeat IPC: 0.6346 cumulative IPC: 0.4825 (Simulation time: 07 hr 58 min 51 sec)
Heartbeat CPU 0 instructions: 1880000350 cycles: 3882122363 heartbeat IPC: 1.539 cumulative IPC: 0.4843 (Simulation time: 07 hr 59 min 46 sec)
Heartbeat CPU 0 instructions: 1890000351 cycles: 3916325006 heartbeat IPC: 0.2924 cumulative IPC: 0.4826 (Simulation time: 08 hr 04 min 05 sec)
Heartbeat CPU 0 instructions: 1900000351 cycles: 3922804558 heartbeat IPC: 1.543 cumulative IPC: 0.4843 (Simulation time: 08 hr 05 min 15 sec)
Heartbeat CPU 0 instructions: 1910000354 cycles: 3938488651 heartbeat IPC: 0.6376 cumulative IPC: 0.485 (Simulation time: 08 hr 07 min 25 sec)
Heartbeat CPU 0 instructions: 1920000355 cycles: 3954216742 heartbeat IPC: 0.6358 cumulative IPC: 0.4856 (Simulation time: 08 hr 09 min 27 sec)
Heartbeat CPU 0 instructions: 1930000357 cycles: 3969867044 heartbeat IPC: 0.639 cumulative IPC: 0.4862 (Simulation time: 08 hr 11 min 29 sec)
Heartbeat CPU 0 instructions: 1940000358 cycles: 3994768252 heartbeat IPC: 0.4016 cumulative IPC: 0.4856 (Simulation time: 08 hr 14 min 50 sec)
Heartbeat CPU 0 instructions: 1950000358 cycles: 4010441408 heartbeat IPC: 0.638 cumulative IPC: 0.4862 (Simulation time: 08 hr 16 min 57 sec)
Heartbeat CPU 0 instructions: 1960000360 cycles: 4026095593 heartbeat IPC: 0.6388 cumulative IPC: 0.4868 (Simulation time: 08 hr 19 min 08 sec)
Heartbeat CPU 0 instructions: 1970000360 cycles: 4050974951 heartbeat IPC: 0.4019 cumulative IPC: 0.4863 (Simulation time: 08 hr 22 min 17 sec)
Heartbeat CPU 0 instructions: 1980000360 cycles: 4066614252 heartbeat IPC: 0.6394 cumulative IPC: 0.4869 (Simulation time: 08 hr 24 min 31 sec)
Heartbeat CPU 0 instructions: 1990000363 cycles: 4091478887 heartbeat IPC: 0.4022 cumulative IPC: 0.4864 (Simulation time: 08 hr 27 min 52 sec)

=== ERROR PAGE STATISTICS ===
Mode: CYCLE
Error Cycle Interval: 464841614 CPU cycles
Total Error Accesses: 8
==============================
Simulation finished CPU 0 instructions: 1999999507 cycles: 4107118961 cumulative IPC: 0.487 (Simulation time: 08 hr 30 min 00 sec)
Simulation complete CPU 0 instructions: 1999999507 cycles: 4107118961 cumulative IPC: 0.487 (Simulation time: 08 hr 30 min 00 sec)

ChampSim completed all CPUs

=== Simulation ===
CPU 0 runs test_traces/607.cactuBSSN_s-2421B.champsimtrace.xz

Region of Interest Statistics

CPU 0 cumulative IPC: 0.487 instructions: 1999999507 cycles: 4107118961
CPU 0 Branch Prediction Accuracy: 98.41% MPKI: 0.0223 Average ROB Occupancy at Mispredict: 322.7
Branch type MPKI
BRANCH_DIRECT_JUMP: 3.4e-05
BRANCH_INDIRECT: 4.45e-05
BRANCH_CONDITIONAL: 0.0122
BRANCH_DIRECT_CALL: 0.000332
BRANCH_INDIRECT_CALL: 1.5e-06
BRANCH_RETURN: 0.009687

cpu0->cpu0_STLB TOTAL        ACCESS:   38315669 HIT:   38315271 MISS:        398 MSHR_MERGE:          0
cpu0->cpu0_STLB LOAD         ACCESS:   38315669 HIT:   38315271 MISS:        398 MSHR_MERGE:          0
cpu0->cpu0_STLB RFO          ACCESS:          0 HIT:          0 MISS:          0 MSHR_MERGE:          0
cpu0->cpu0_STLB PREFETCH     ACCESS:          0 HIT:          0 MISS:          0 MSHR_MERGE:          0
cpu0->cpu0_STLB WRITE        ACCESS:          0 HIT:          0 MISS:          0 MSHR_MERGE:          0
cpu0->cpu0_STLB TRANSLATION  ACCESS:          0 HIT:          0 MISS:          0 MSHR_MERGE:          0
cpu0->cpu0_STLB PREFETCH REQUESTED:          0 ISSUED:          0 USEFUL:          0 USELESS:          0
cpu0->cpu0_STLB AVERAGE MISS LATENCY: 9.756e+06 cycles
cpu0->cpu0_L2C TOTAL        ACCESS:  251138465 HIT:  230755732 MISS:   20382733 MSHR_MERGE:          0
cpu0->cpu0_L2C LOAD         ACCESS:  216984121 HIT:  196632014 MISS:   20352107 MSHR_MERGE:          0
cpu0->cpu0_L2C RFO          ACCESS:   16173526 HIT:   16142918 MISS:      30608 MSHR_MERGE:          0
cpu0->cpu0_L2C PREFETCH     ACCESS:          0 HIT:          0 MISS:          0 MSHR_MERGE:          0
cpu0->cpu0_L2C WRITE        ACCESS:   17980818 HIT:   17980800 MISS:         18 MSHR_MERGE:          0
cpu0->cpu0_L2C TRANSLATION  ACCESS:          0 HIT:          0 MISS:          0 MSHR_MERGE:          0
cpu0->cpu0_L2C PREFETCH REQUESTED:          0 ISSUED:          0 USEFUL:          0 USELESS:          0
cpu0->cpu0_L2C AVERAGE MISS LATENCY: 98.93 cycles
cpu0->cpu0_L1I TOTAL        ACCESS:  395402092 HIT:  392745517 MISS:    2656575 MSHR_MERGE:    1306432
cpu0->cpu0_L1I LOAD         ACCESS:  395402092 HIT:  392745517 MISS:    2656575 MSHR_MERGE:    1306432
cpu0->cpu0_L1I RFO          ACCESS:          0 HIT:          0 MISS:          0 MSHR_MERGE:          0
cpu0->cpu0_L1I PREFETCH     ACCESS:          0 HIT:          0 MISS:          0 MSHR_MERGE:          0
cpu0->cpu0_L1I WRITE        ACCESS:          0 HIT:          0 MISS:          0 MSHR_MERGE:          0
cpu0->cpu0_L1I TRANSLATION  ACCESS:          0 HIT:          0 MISS:          0 MSHR_MERGE:          0
cpu0->cpu0_L1I PREFETCH REQUESTED:          0 ISSUED:          0 USEFUL:          0 USELESS:          0
cpu0->cpu0_L1I AVERAGE MISS LATENCY: 7.271 cycles
cpu0->cpu0_L1D TOTAL        ACCESS:  649212984 HIT:  374761549 MISS:  274451435 MSHR_MERGE:   41983773
cpu0->cpu0_L1D LOAD         ACCESS:  422463010 HIT:  165891585 MISS:  256571425 MSHR_MERGE:   40282853
cpu0->cpu0_L1D RFO          ACCESS:          0 HIT:          0 MISS:          0 MSHR_MERGE:          0
cpu0->cpu0_L1D PREFETCH     ACCESS:          0 HIT:          0 MISS:          0 MSHR_MERGE:          0
cpu0->cpu0_L1D WRITE        ACCESS:  226749974 HIT:  208869964 MISS:   17880010 MSHR_MERGE:    1700920
cpu0->cpu0_L1D TRANSLATION  ACCESS:          0 HIT:          0 MISS:          0 MSHR_MERGE:          0
cpu0->cpu0_L1D PREFETCH REQUESTED:          0 ISSUED:          0 USEFUL:          0 USELESS:          0
cpu0->cpu0_L1D AVERAGE MISS LATENCY: 17.74 cycles
cpu0->cpu0_ITLB TOTAL        ACCESS:  322065554 HIT:  322065540 MISS:         14 MSHR_MERGE:         10
cpu0->cpu0_ITLB LOAD         ACCESS:  322065554 HIT:  322065540 MISS:         14 MSHR_MERGE:         10
cpu0->cpu0_ITLB RFO          ACCESS:          0 HIT:          0 MISS:          0 MSHR_MERGE:          0
cpu0->cpu0_ITLB PREFETCH     ACCESS:          0 HIT:          0 MISS:          0 MSHR_MERGE:          0
cpu0->cpu0_ITLB WRITE        ACCESS:          0 HIT:          0 MISS:          0 MSHR_MERGE:          0
cpu0->cpu0_ITLB TRANSLATION  ACCESS:          0 HIT:          0 MISS:          0 MSHR_MERGE:          0
cpu0->cpu0_ITLB PREFETCH REQUESTED:          0 ISSUED:          0 USEFUL:          0 USELESS:          0
cpu0->cpu0_ITLB AVERAGE MISS LATENCY: 9.24e+06 cycles
cpu0->cpu0_DTLB TOTAL        ACCESS:  496344409 HIT:  419705222 MISS:   76639187 MSHR_MERGE:   38323522
cpu0->cpu0_DTLB LOAD         ACCESS:  496344409 HIT:  419705222 MISS:   76639187 MSHR_MERGE:   38323522
cpu0->cpu0_DTLB RFO          ACCESS:          0 HIT:          0 MISS:          0 MSHR_MERGE:          0
cpu0->cpu0_DTLB PREFETCH     ACCESS:          0 HIT:          0 MISS:          0 MSHR_MERGE:          0
cpu0->cpu0_DTLB WRITE        ACCESS:          0 HIT:          0 MISS:          0 MSHR_MERGE:          0
cpu0->cpu0_DTLB TRANSLATION  ACCESS:          0 HIT:          0 MISS:          0 MSHR_MERGE:          0
cpu0->cpu0_DTLB PREFETCH REQUESTED:          0 ISSUED:          0 USEFUL:          0 USELESS:          0
cpu0->cpu0_DTLB AVERAGE MISS LATENCY: 105.5 cycles
cpu0->LLC TOTAL        ACCESS:   22275855 HIT:    7173048 MISS:   15102807 MSHR_MERGE:          0
cpu0->LLC LOAD         ACCESS:   20352107 HIT:    5279956 MISS:   15072151 MSHR_MERGE:          0
cpu0->LLC RFO          ACCESS:      30608 HIT:          0 MISS:      30608 MSHR_MERGE:          0
cpu0->LLC PREFETCH     ACCESS:          0 HIT:          0 MISS:          0 MSHR_MERGE:          0
cpu0->LLC WRITE        ACCESS:    1893140 HIT:    1893092 MISS:         48 MSHR_MERGE:          0
cpu0->LLC TRANSLATION  ACCESS:          0 HIT:          0 MISS:          0 MSHR_MERGE:          0
cpu0->LLC PREFETCH REQUESTED:          0 ISSUED:          0 USEFUL:          0 USELESS:          0
cpu0->LLC AVERAGE MISS LATENCY: 112.3 cycles

DRAM Statistics

Channel 0 RQ ROW_BUFFER_HIT:      31695
  ROW_BUFFER_MISS:    7520120
  AVG DBUS CONGESTED CYCLE: 9.974
Channel 0 WQ ROW_BUFFER_HIT:     292226
  ROW_BUFFER_MISS:     651942
  FULL:          0
Channel 0 REFRESHES ISSUED:     342238

Channel 1 RQ ROW_BUFFER_HIT:      31701
  ROW_BUFFER_MISS:    7520033
  AVG DBUS CONGESTED CYCLE: 9.968
Channel 1 WQ ROW_BUFFER_HIT:     290372
  ROW_BUFFER_MISS:     653807
  FULL:          0
Channel 1 REFRESHES ISSUED:     342238
