[VMEM] WARNING: physical memory size is smaller than virtual memory size.

*** ChampSim Multicore Out-of-Order Simulator ***
Warmup Instructions: 0
Simulation Instructions: 9223372036854775807
Number of CPUs: 1
Page size: 4096

Off-chip DRAM Size: 128 GiB Channels: 2 Width: 32-bit Data Rate: 4807 MT/s
[ERROR_PAGE_MANAGER] Error latency: 173500 
[ERROR_PAGE_MANAGER] Random seed: 54321 (fixed for preload reproducibility)
[ERROR_PAGE_MANAGER] Cycle-based error modeling enabled
[ERROR_PAGE_MANAGER] Errors per interval: 1
[ERROR_PAGE_MANAGER] Error cycle interval: 25763047 cycles

=== ERROR PAGE STATISTICS ===
Mode: CYCLE
Error Cycle Interval: 25763047 CPU cycles
Total Error Accesses: 0
==============================
Warmup finished CPU 0 instructions: 0 cycles: 1 cumulative IPC: 0 (Simulation time: 00 hr 00 min 02 sec)
Warmup complete CPU 0 instructions: 0 cycles: 1 cumulative IPC: 0 (Simulation time: 00 hr 00 min 02 sec)
Heartbeat CPU 0 instructions: 10000002 cycles: 5312418 heartbeat IPC: 1.882 cumulative IPC: 1.882 (Simulation time: 00 hr 00 min 58 sec)
Heartbeat CPU 0 instructions: 20000002 cycles: 10729590 heartbeat IPC: 1.846 cumulative IPC: 1.864 (Simulation time: 00 hr 01 min 53 sec)
Heartbeat CPU 0 instructions: 30000006 cycles: 16142988 heartbeat IPC: 1.847 cumulative IPC: 1.858 (Simulation time: 00 hr 02 min 44 sec)
Heartbeat CPU 0 instructions: 40000007 cycles: 21540749 heartbeat IPC: 1.853 cumulative IPC: 1.857 (Simulation time: 00 hr 03 min 48 sec)
[ERROR_CYCLE] Error added at CPU cycle 25763048, interval 1, pending count: 1
[DRAM_CYCLE_ERROR] Cycle-based error applied! address=0xa43215880 additional_latency=173500 cycles
Heartbeat CPU 0 instructions: 50000007 cycles: 26948531 heartbeat IPC: 1.849 cumulative IPC: 1.855 (Simulation time: 00 hr 04 min 54 sec)
Heartbeat CPU 0 instructions: 60000008 cycles: 34312746 heartbeat IPC: 1.358 cumulative IPC: 1.749 (Simulation time: 00 hr 06 min 13 sec)
Heartbeat CPU 0 instructions: 70000012 cycles: 41938155 heartbeat IPC: 1.311 cumulative IPC: 1.669 (Simulation time: 00 hr 07 min 34 sec)
Heartbeat CPU 0 instructions: 80000013 cycles: 49436527 heartbeat IPC: 1.334 cumulative IPC: 1.618 (Simulation time: 00 hr 08 min 54 sec)
[ERROR_CYCLE] Error added at CPU cycle 51526094, interval 2, pending count: 1
[DRAM_CYCLE_ERROR] Cycle-based error applied! address=0x18440b4240 additional_latency=173500 cycles
Heartbeat CPU 0 instructions: 90000013 cycles: 57000247 heartbeat IPC: 1.322 cumulative IPC: 1.579 (Simulation time: 00 hr 09 min 57 sec)
Heartbeat CPU 0 instructions: 100000015 cycles: 64528482 heartbeat IPC: 1.328 cumulative IPC: 1.55 (Simulation time: 00 hr 11 min 11 sec)
Heartbeat CPU 0 instructions: 110000016 cycles: 72118700 heartbeat IPC: 1.317 cumulative IPC: 1.525 (Simulation time: 00 hr 12 min 22 sec)
[ERROR_CYCLE] Error added at CPU cycle 77289142, interval 3, pending count: 1
[DRAM_CYCLE_ERROR] Cycle-based error applied! address=0x1c9b1c5200 additional_latency=173500 cycles
Heartbeat CPU 0 instructions: 120000019 cycles: 79614233 heartbeat IPC: 1.334 cumulative IPC: 1.507 (Simulation time: 00 hr 13 min 19 sec)
Heartbeat CPU 0 instructions: 130000020 cycles: 87235538 heartbeat IPC: 1.312 cumulative IPC: 1.49 (Simulation time: 00 hr 14 min 30 sec)
Heartbeat CPU 0 instructions: 140000022 cycles: 94732640 heartbeat IPC: 1.334 cumulative IPC: 1.478 (Simulation time: 00 hr 15 min 50 sec)
Heartbeat CPU 0 instructions: 150000024 cycles: 102253105 heartbeat IPC: 1.33 cumulative IPC: 1.467 (Simulation time: 00 hr 16 min 55 sec)
[ERROR_CYCLE] Error added at CPU cycle 103052188, interval 4, pending count: 1
[DRAM_CYCLE_ERROR] Cycle-based error applied! address=0x698289000 additional_latency=173500 cycles
Heartbeat CPU 0 instructions: 160000025 cycles: 109477467 heartbeat IPC: 1.384 cumulative IPC: 1.461 (Simulation time: 00 hr 18 min 00 sec)
Heartbeat CPU 0 instructions: 170000025 cycles: 116644133 heartbeat IPC: 1.395 cumulative IPC: 1.457 (Simulation time: 00 hr 19 min 05 sec)
Heartbeat CPU 0 instructions: 180000026 cycles: 123817018 heartbeat IPC: 1.394 cumulative IPC: 1.454 (Simulation time: 00 hr 20 min 20 sec)
[ERROR_CYCLE] Error added at CPU cycle 128815235, interval 5, pending count: 1
[DRAM_CYCLE_ERROR] Cycle-based error applied! address=0x104c42fbc0 additional_latency=173500 cycles
Heartbeat CPU 0 instructions: 190000027 cycles: 131023059 heartbeat IPC: 1.388 cumulative IPC: 1.45 (Simulation time: 00 hr 21 min 39 sec)
Heartbeat CPU 0 instructions: 200000027 cycles: 138198519 heartbeat IPC: 1.394 cumulative IPC: 1.447 (Simulation time: 00 hr 22 min 59 sec)
Heartbeat CPU 0 instructions: 210000029 cycles: 145360644 heartbeat IPC: 1.396 cumulative IPC: 1.445 (Simulation time: 00 hr 24 min 07 sec)
Heartbeat CPU 0 instructions: 220000032 cycles: 152570488 heartbeat IPC: 1.387 cumulative IPC: 1.442 (Simulation time: 00 hr 25 min 25 sec)
[ERROR_CYCLE] Error added at CPU cycle 154578283, interval 6, pending count: 1
[DRAM_CYCLE_ERROR] Cycle-based error applied! address=0x15b4d3f280 additional_latency=173500 cycles
Heartbeat CPU 0 instructions: 230000034 cycles: 159751561 heartbeat IPC: 1.393 cumulative IPC: 1.44 (Simulation time: 00 hr 26 min 43 sec)
Heartbeat CPU 0 instructions: 240000034 cycles: 167044852 heartbeat IPC: 1.371 cumulative IPC: 1.437 (Simulation time: 00 hr 28 min 02 sec)
Heartbeat CPU 0 instructions: 250000034 cycles: 174224493 heartbeat IPC: 1.393 cumulative IPC: 1.435 (Simulation time: 00 hr 29 min 21 sec)
[ERROR_CYCLE] Error added at CPU cycle 180341329, interval 7, pending count: 1
[DRAM_CYCLE_ERROR] Cycle-based error applied! address=0x13ee082b80 additional_latency=173500 cycles
Heartbeat CPU 0 instructions: 260000038 cycles: 181439723 heartbeat IPC: 1.386 cumulative IPC: 1.433 (Simulation time: 00 hr 30 min 29 sec)
Heartbeat CPU 0 instructions: 270000041 cycles: 188646554 heartbeat IPC: 1.388 cumulative IPC: 1.431 (Simulation time: 00 hr 31 min 49 sec)
Heartbeat CPU 0 instructions: 280000044 cycles: 195810941 heartbeat IPC: 1.396 cumulative IPC: 1.43 (Simulation time: 00 hr 33 min 07 sec)
Heartbeat CPU 0 instructions: 290000044 cycles: 203031233 heartbeat IPC: 1.385 cumulative IPC: 1.428 (Simulation time: 00 hr 34 min 27 sec)
[ERROR_CYCLE] Error added at CPU cycle 206104376, interval 8, pending count: 1
[DRAM_CYCLE_ERROR] Cycle-based error applied! address=0x14b3466180 additional_latency=173500 cycles
Heartbeat CPU 0 instructions: 300000044 cycles: 210223270 heartbeat IPC: 1.39 cumulative IPC: 1.427 (Simulation time: 00 hr 35 min 46 sec)
Heartbeat CPU 0 instructions: 310000045 cycles: 217405681 heartbeat IPC: 1.392 cumulative IPC: 1.426 (Simulation time: 00 hr 36 min 44 sec)
Heartbeat CPU 0 instructions: 320000048 cycles: 224599166 heartbeat IPC: 1.39 cumulative IPC: 1.425 (Simulation time: 00 hr 37 min 36 sec)
Heartbeat CPU 0 instructions: 330000049 cycles: 231783308 heartbeat IPC: 1.392 cumulative IPC: 1.424 (Simulation time: 00 hr 38 min 28 sec)
[ERROR_CYCLE] Error added at CPU cycle 231867424, interval 9, pending count: 1
[DRAM_CYCLE_ERROR] Cycle-based error applied! address=0x1573a03800 additional_latency=173500 cycles
Heartbeat CPU 0 instructions: 340000050 cycles: 239079202 heartbeat IPC: 1.371 cumulative IPC: 1.422 (Simulation time: 00 hr 39 min 26 sec)
Heartbeat CPU 0 instructions: 350000052 cycles: 246339992 heartbeat IPC: 1.377 cumulative IPC: 1.421 (Simulation time: 00 hr 40 min 42 sec)
Heartbeat CPU 0 instructions: 360000056 cycles: 253510556 heartbeat IPC: 1.395 cumulative IPC: 1.42 (Simulation time: 00 hr 42 min 01 sec)
[ERROR_CYCLE] Error added at CPU cycle 257630470, interval 10, pending count: 1
[DRAM_CYCLE_ERROR] Cycle-based error applied! address=0x15d25fdd00 additional_latency=173500 cycles
Heartbeat CPU 0 instructions: 370000056 cycles: 260620097 heartbeat IPC: 1.407 cumulative IPC: 1.42 (Simulation time: 00 hr 43 min 20 sec)
Heartbeat CPU 0 instructions: 380000060 cycles: 267801896 heartbeat IPC: 1.392 cumulative IPC: 1.419 (Simulation time: 00 hr 44 min 37 sec)
Heartbeat CPU 0 instructions: 390000062 cycles: 275031152 heartbeat IPC: 1.383 cumulative IPC: 1.418 (Simulation time: 00 hr 45 min 54 sec)
Heartbeat CPU 0 instructions: 400000062 cycles: 282218360 heartbeat IPC: 1.391 cumulative IPC: 1.417 (Simulation time: 00 hr 47 min 11 sec)
[ERROR_CYCLE] Error added at CPU cycle 283393517, interval 11, pending count: 1
[DRAM_CYCLE_ERROR] Cycle-based error applied! address=0x1bbb200e08 additional_latency=173500 cycles
Heartbeat CPU 0 instructions: 410000064 cycles: 289424150 heartbeat IPC: 1.388 cumulative IPC: 1.417 (Simulation time: 00 hr 48 min 22 sec)
Heartbeat CPU 0 instructions: 420000065 cycles: 296604551 heartbeat IPC: 1.393 cumulative IPC: 1.416 (Simulation time: 00 hr 49 min 23 sec)
Heartbeat CPU 0 instructions: 430000067 cycles: 303876892 heartbeat IPC: 1.375 cumulative IPC: 1.415 (Simulation time: 00 hr 50 min 21 sec)
[ERROR_CYCLE] Error added at CPU cycle 309156565, interval 12, pending count: 1
[DRAM_CYCLE_ERROR] Cycle-based error applied! address=0x5b32f5bc0 additional_latency=173500 cycles
Heartbeat CPU 0 instructions: 440000068 cycles: 311102348 heartbeat IPC: 1.384 cumulative IPC: 1.414 (Simulation time: 00 hr 51 min 26 sec)
Heartbeat CPU 0 instructions: 450000070 cycles: 318262057 heartbeat IPC: 1.397 cumulative IPC: 1.414 (Simulation time: 00 hr 52 min 21 sec)
Heartbeat CPU 0 instructions: 460000072 cycles: 325467696 heartbeat IPC: 1.388 cumulative IPC: 1.413 (Simulation time: 00 hr 53 min 34 sec)
Heartbeat CPU 0 instructions: 470000073 cycles: 332629701 heartbeat IPC: 1.396 cumulative IPC: 1.413 (Simulation time: 00 hr 54 min 38 sec)
[ERROR_CYCLE] Error added at CPU cycle 334919611, interval 13, pending count: 1
[DRAM_CYCLE_ERROR] Cycle-based error applied! address=0x1d72a95bc0 additional_latency=173500 cycles
Heartbeat CPU 0 instructions: 480000074 cycles: 339838044 heartbeat IPC: 1.387 cumulative IPC: 1.412 (Simulation time: 00 hr 55 min 47 sec)
Heartbeat CPU 0 instructions: 490000077 cycles: 347082996 heartbeat IPC: 1.38 cumulative IPC: 1.412 (Simulation time: 00 hr 57 min 01 sec)
Heartbeat CPU 0 instructions: 500000078 cycles: 354257927 heartbeat IPC: 1.394 cumulative IPC: 1.411 (Simulation time: 00 hr 58 min 18 sec)
[ERROR_CYCLE] Error added at CPU cycle 360682659, interval 14, pending count: 1
[DRAM_CYCLE_ERROR] Cycle-based error applied! address=0x1278dc0640 additional_latency=173500 cycles
Heartbeat CPU 0 instructions: 510000078 cycles: 361368285 heartbeat IPC: 1.406 cumulative IPC: 1.411 (Simulation time: 00 hr 59 min 28 sec)
Heartbeat CPU 0 instructions: 520000078 cycles: 368592719 heartbeat IPC: 1.384 cumulative IPC: 1.411 (Simulation time: 01 hr 00 min 27 sec)
Heartbeat CPU 0 instructions: 530000079 cycles: 375783634 heartbeat IPC: 1.391 cumulative IPC: 1.41 (Simulation time: 01 hr 01 min 21 sec)
Heartbeat CPU 0 instructions: 540000081 cycles: 382989830 heartbeat IPC: 1.388 cumulative IPC: 1.41 (Simulation time: 01 hr 02 min 32 sec)
[ERROR_CYCLE] Error added at CPU cycle 386445705, interval 15, pending count: 1
[DRAM_CYCLE_ERROR] Cycle-based error applied! address=0x181a239c00 additional_latency=173500 cycles
Heartbeat CPU 0 instructions: 550000081 cycles: 390174049 heartbeat IPC: 1.392 cumulative IPC: 1.41 (Simulation time: 01 hr 03 min 33 sec)
Heartbeat CPU 0 instructions: 560000083 cycles: 397345633 heartbeat IPC: 1.394 cumulative IPC: 1.409 (Simulation time: 01 hr 04 min 49 sec)
Heartbeat CPU 0 instructions: 570000085 cycles: 404569898 heartbeat IPC: 1.384 cumulative IPC: 1.409 (Simulation time: 01 hr 06 min 07 sec)
Heartbeat CPU 0 instructions: 580000086 cycles: 411727355 heartbeat IPC: 1.397 cumulative IPC: 1.409 (Simulation time: 01 hr 07 min 25 sec)
[ERROR_CYCLE] Error added at CPU cycle 412208752, interval 16, pending count: 1
[DRAM_CYCLE_ERROR] Cycle-based error applied! address=0xb0cbd72c0 additional_latency=173500 cycles
Heartbeat CPU 0 instructions: 590000089 cycles: 418907087 heartbeat IPC: 1.393 cumulative IPC: 1.408 (Simulation time: 01 hr 08 min 43 sec)
Heartbeat CPU 0 instructions: 600000093 cycles: 426073869 heartbeat IPC: 1.395 cumulative IPC: 1.408 (Simulation time: 01 hr 10 min 01 sec)
Heartbeat CPU 0 instructions: 610000095 cycles: 433187225 heartbeat IPC: 1.406 cumulative IPC: 1.408 (Simulation time: 01 hr 11 min 08 sec)
[ERROR_CYCLE] Error added at CPU cycle 437971800, interval 17, pending count: 1
[DRAM_CYCLE_ERROR] Cycle-based error applied! address=0xb6585a000 additional_latency=173500 cycles
Heartbeat CPU 0 instructions: 620000098 cycles: 440398408 heartbeat IPC: 1.387 cumulative IPC: 1.408 (Simulation time: 01 hr 12 min 22 sec)
Heartbeat CPU 0 instructions: 630000101 cycles: 447652611 heartbeat IPC: 1.379 cumulative IPC: 1.407 (Simulation time: 01 hr 13 min 43 sec)
Heartbeat CPU 0 instructions: 640000105 cycles: 454838910 heartbeat IPC: 1.392 cumulative IPC: 1.407 (Simulation time: 01 hr 14 min 47 sec)
Heartbeat CPU 0 instructions: 650000105 cycles: 462001833 heartbeat IPC: 1.396 cumulative IPC: 1.407 (Simulation time: 01 hr 15 min 55 sec)
[ERROR_CYCLE] Error added at CPU cycle 463734846, interval 18, pending count: 1
[DRAM_CYCLE_ERROR] Cycle-based error applied! address=0x748e7c100 additional_latency=173500 cycles
Heartbeat CPU 0 instructions: 660000105 cycles: 469128420 heartbeat IPC: 1.403 cumulative IPC: 1.407 (Simulation time: 01 hr 17 min 14 sec)
Heartbeat CPU 0 instructions: 670000105 cycles: 476295784 heartbeat IPC: 1.395 cumulative IPC: 1.407 (Simulation time: 01 hr 18 min 33 sec)
Heartbeat CPU 0 instructions: 680000105 cycles: 483454945 heartbeat IPC: 1.397 cumulative IPC: 1.407 (Simulation time: 01 hr 19 min 50 sec)
[ERROR_CYCLE] Error added at CPU cycle 489497893, interval 19, pending count: 1
[DRAM_CYCLE_ERROR] Cycle-based error applied! address=0x845007880 additional_latency=173500 cycles
Heartbeat CPU 0 instructions: 690000108 cycles: 490659425 heartbeat IPC: 1.388 cumulative IPC: 1.406 (Simulation time: 01 hr 20 min 45 sec)
Heartbeat CPU 0 instructions: 700000109 cycles: 497824444 heartbeat IPC: 1.396 cumulative IPC: 1.406 (Simulation time: 01 hr 21 min 37 sec)
Heartbeat CPU 0 instructions: 710000109 cycles: 505137714 heartbeat IPC: 1.367 cumulative IPC: 1.406 (Simulation time: 01 hr 22 min 36 sec)
Heartbeat CPU 0 instructions: 720000110 cycles: 512347811 heartbeat IPC: 1.387 cumulative IPC: 1.405 (Simulation time: 01 hr 23 min 54 sec)
[ERROR_CYCLE] Error added at CPU cycle 515260941, interval 20, pending count: 1
[DRAM_CYCLE_ERROR] Cycle-based error applied! address=0x7c1f91d40 additional_latency=173500 cycles
Heartbeat CPU 0 instructions: 730000111 cycles: 519548439 heartbeat IPC: 1.389 cumulative IPC: 1.405 (Simulation time: 01 hr 25 min 05 sec)
Heartbeat CPU 0 instructions: 740000111 cycles: 526699755 heartbeat IPC: 1.398 cumulative IPC: 1.405 (Simulation time: 01 hr 25 min 56 sec)
Heartbeat CPU 0 instructions: 750000114 cycles: 533886303 heartbeat IPC: 1.391 cumulative IPC: 1.405 (Simulation time: 01 hr 27 min 02 sec)
[ERROR_CYCLE] Error added at CPU cycle 541023987, interval 21, pending count: 1
[DRAM_CYCLE_ERROR] Cycle-based error applied! address=0x484586480 additional_latency=173500 cycles
Heartbeat CPU 0 instructions: 760000117 cycles: 541078453 heartbeat IPC: 1.39 cumulative IPC: 1.405 (Simulation time: 01 hr 28 min 20 sec)
Heartbeat CPU 0 instructions: 770000118 cycles: 548270713 heartbeat IPC: 1.39 cumulative IPC: 1.404 (Simulation time: 01 hr 29 min 37 sec)
Heartbeat CPU 0 instructions: 780000119 cycles: 555488456 heartbeat IPC: 1.385 cumulative IPC: 1.404 (Simulation time: 01 hr 30 min 54 sec)
Heartbeat CPU 0 instructions: 790000121 cycles: 562661210 heartbeat IPC: 1.394 cumulative IPC: 1.404 (Simulation time: 01 hr 32 min 11 sec)
[ERROR_CYCLE] Error added at CPU cycle 566787034, interval 22, pending count: 1
[DRAM_CYCLE_ERROR] Cycle-based error applied! address=0x6a0328400 additional_latency=173500 cycles
Heartbeat CPU 0 instructions: 800000122 cycles: 569904532 heartbeat IPC: 1.381 cumulative IPC: 1.404 (Simulation time: 01 hr 33 min 29 sec)
Heartbeat CPU 0 instructions: 810000122 cycles: 577137625 heartbeat IPC: 1.383 cumulative IPC: 1.403 (Simulation time: 01 hr 34 min 49 sec)
Heartbeat CPU 0 instructions: 820000126 cycles: 584356475 heartbeat IPC: 1.385 cumulative IPC: 1.403 (Simulation time: 01 hr 36 min 08 sec)
Heartbeat CPU 0 instructions: 830000129 cycles: 591576321 heartbeat IPC: 1.385 cumulative IPC: 1.403 (Simulation time: 01 hr 37 min 28 sec)
[ERROR_CYCLE] Error added at CPU cycle 592550082, interval 23, pending count: 1
[DRAM_CYCLE_ERROR] Cycle-based error applied! address=0x1266562f80 additional_latency=173500 cycles
Heartbeat CPU 0 instructions: 840000130 cycles: 598696128 heartbeat IPC: 1.405 cumulative IPC: 1.403 (Simulation time: 01 hr 38 min 47 sec)
Heartbeat CPU 0 instructions: 850000134 cycles: 605832221 heartbeat IPC: 1.401 cumulative IPC: 1.403 (Simulation time: 01 hr 40 min 06 sec)
Heartbeat CPU 0 instructions: 860000138 cycles: 613016098 heartbeat IPC: 1.392 cumulative IPC: 1.403 (Simulation time: 01 hr 41 min 24 sec)
[ERROR_CYCLE] Error added at CPU cycle 618313128, interval 24, pending count: 1
[DRAM_CYCLE_ERROR] Cycle-based error applied! address=0x8c6efbac0 additional_latency=173500 cycles
Heartbeat CPU 0 instructions: 870000138 cycles: 620191693 heartbeat IPC: 1.394 cumulative IPC: 1.403 (Simulation time: 01 hr 42 min 29 sec)
Heartbeat CPU 0 instructions: 880000140 cycles: 627433788 heartbeat IPC: 1.381 cumulative IPC: 1.403 (Simulation time: 01 hr 43 min 32 sec)
Heartbeat CPU 0 instructions: 890000143 cycles: 634536668 heartbeat IPC: 1.408 cumulative IPC: 1.403 (Simulation time: 01 hr 44 min 32 sec)
Heartbeat CPU 0 instructions: 900000143 cycles: 641826074 heartbeat IPC: 1.372 cumulative IPC: 1.402 (Simulation time: 01 hr 45 min 32 sec)
[ERROR_CYCLE] Error added at CPU cycle 644076176, interval 25, pending count: 1
[DRAM_CYCLE_ERROR] Cycle-based error applied! address=0xd4ee132c0 additional_latency=173500 cycles
Heartbeat CPU 0 instructions: 910000143 cycles: 649003163 heartbeat IPC: 1.393 cumulative IPC: 1.402 (Simulation time: 01 hr 46 min 29 sec)
Heartbeat CPU 0 instructions: 920000146 cycles: 656278308 heartbeat IPC: 1.375 cumulative IPC: 1.402 (Simulation time: 01 hr 47 min 20 sec)
Heartbeat CPU 0 instructions: 930000148 cycles: 663482805 heartbeat IPC: 1.388 cumulative IPC: 1.402 (Simulation time: 01 hr 48 min 19 sec)
[ERROR_CYCLE] Error added at CPU cycle 669839223, interval 26, pending count: 1
[DRAM_CYCLE_ERROR] Cycle-based error applied! address=0x1eb59ba280 additional_latency=173500 cycles
Heartbeat CPU 0 instructions: 940000148 cycles: 670693875 heartbeat IPC: 1.387 cumulative IPC: 1.402 (Simulation time: 01 hr 49 min 09 sec)
Heartbeat CPU 0 instructions: 950000149 cycles: 677868782 heartbeat IPC: 1.394 cumulative IPC: 1.401 (Simulation time: 01 hr 50 min 00 sec)
Heartbeat CPU 0 instructions: 960000152 cycles: 685064405 heartbeat IPC: 1.39 cumulative IPC: 1.401 (Simulation time: 01 hr 50 min 51 sec)
Heartbeat CPU 0 instructions: 970000152 cycles: 692240995 heartbeat IPC: 1.393 cumulative IPC: 1.401 (Simulation time: 01 hr 51 min 42 sec)
[ERROR_CYCLE] Error added at CPU cycle 695602269, interval 27, pending count: 1
[DRAM_CYCLE_ERROR] Cycle-based error applied! address=0x1a9c8cf980 additional_latency=173500 cycles
Heartbeat CPU 0 instructions: 980000156 cycles: 699366167 heartbeat IPC: 1.403 cumulative IPC: 1.401 (Simulation time: 01 hr 52 min 43 sec)
Heartbeat CPU 0 instructions: 990000158 cycles: 706686387 heartbeat IPC: 1.366 cumulative IPC: 1.401 (Simulation time: 01 hr 54 min 03 sec)
Heartbeat CPU 0 instructions: 1000000159 cycles: 713861284 heartbeat IPC: 1.394 cumulative IPC: 1.401 (Simulation time: 01 hr 55 min 21 sec)
Heartbeat CPU 0 instructions: 1010000162 cycles: 721103560 heartbeat IPC: 1.381 cumulative IPC: 1.401 (Simulation time: 01 hr 56 min 26 sec)
[ERROR_CYCLE] Error added at CPU cycle 721365317, interval 28, pending count: 1
[DRAM_CYCLE_ERROR] Cycle-based error applied! address=0x11cc9b7e40 additional_latency=173500 cycles
Heartbeat CPU 0 instructions: 1020000162 cycles: 728279998 heartbeat IPC: 1.393 cumulative IPC: 1.401 (Simulation time: 01 hr 57 min 17 sec)
Heartbeat CPU 0 instructions: 1030000162 cycles: 735486021 heartbeat IPC: 1.388 cumulative IPC: 1.4 (Simulation time: 01 hr 58 min 16 sec)
Heartbeat CPU 0 instructions: 1040000166 cycles: 742669503 heartbeat IPC: 1.392 cumulative IPC: 1.4 (Simulation time: 01 hr 59 min 14 sec)
[ERROR_CYCLE] Error added at CPU cycle 747128363, interval 29, pending count: 1
[DRAM_CYCLE_ERROR] Cycle-based error applied! address=0x1aa123de40 additional_latency=173500 cycles
Heartbeat CPU 0 instructions: 1050000166 cycles: 749838884 heartbeat IPC: 1.395 cumulative IPC: 1.4 (Simulation time: 02 hr 00 min 06 sec)
Heartbeat CPU 0 instructions: 1060000169 cycles: 757114761 heartbeat IPC: 1.374 cumulative IPC: 1.4 (Simulation time: 02 hr 00 min 59 sec)
Heartbeat CPU 0 instructions: 1070000172 cycles: 764311625 heartbeat IPC: 1.389 cumulative IPC: 1.4 (Simulation time: 02 hr 01 min 54 sec)
Heartbeat CPU 0 instructions: 1080000172 cycles: 771553179 heartbeat IPC: 1.381 cumulative IPC: 1.4 (Simulation time: 02 hr 02 min 52 sec)
[ERROR_CYCLE] Error added at CPU cycle 772891410, interval 30, pending count: 1
[DRAM_CYCLE_ERROR] Cycle-based error applied! address=0xd528549c0 additional_latency=173500 cycles
Heartbeat CPU 0 instructions: 1090000174 cycles: 778750594 heartbeat IPC: 1.389 cumulative IPC: 1.4 (Simulation time: 02 hr 03 min 58 sec)
Heartbeat CPU 0 instructions: 1100000174 cycles: 785923536 heartbeat IPC: 1.394 cumulative IPC: 1.4 (Simulation time: 02 hr 05 min 08 sec)
Heartbeat CPU 0 instructions: 1110000176 cycles: 793150041 heartbeat IPC: 1.384 cumulative IPC: 1.399 (Simulation time: 02 hr 06 min 26 sec)
[ERROR_CYCLE] Error added at CPU cycle 798654458, interval 31, pending count: 1
[DRAM_CYCLE_ERROR] Cycle-based error applied! address=0xc53d99500 additional_latency=173500 cycles
Heartbeat CPU 0 instructions: 1120000177 cycles: 800359727 heartbeat IPC: 1.387 cumulative IPC: 1.399 (Simulation time: 02 hr 07 min 38 sec)
Heartbeat CPU 0 instructions: 1130000179 cycles: 807580662 heartbeat IPC: 1.385 cumulative IPC: 1.399 (Simulation time: 02 hr 08 min 32 sec)
Heartbeat CPU 0 instructions: 1140000179 cycles: 814730837 heartbeat IPC: 1.399 cumulative IPC: 1.399 (Simulation time: 02 hr 09 min 26 sec)
Heartbeat CPU 0 instructions: 1150000180 cycles: 821891115 heartbeat IPC: 1.397 cumulative IPC: 1.399 (Simulation time: 02 hr 10 min 34 sec)
[ERROR_CYCLE] Error added at CPU cycle 824417504, interval 32, pending count: 1
[DRAM_CYCLE_ERROR] Cycle-based error applied! address=0x13a7b696c0 additional_latency=173500 cycles
Heartbeat CPU 0 instructions: 1160000181 cycles: 829074438 heartbeat IPC: 1.392 cumulative IPC: 1.399 (Simulation time: 02 hr 11 min 44 sec)
Heartbeat CPU 0 instructions: 1170000185 cycles: 836247072 heartbeat IPC: 1.394 cumulative IPC: 1.399 (Simulation time: 02 hr 13 min 00 sec)
Heartbeat CPU 0 instructions: 1180000189 cycles: 843507336 heartbeat IPC: 1.377 cumulative IPC: 1.399 (Simulation time: 02 hr 14 min 17 sec)
[ERROR_CYCLE] Error added at CPU cycle 850180551, interval 33, pending count: 1
[DRAM_CYCLE_ERROR] Cycle-based error applied! address=0x12d890fc80 additional_latency=173500 cycles
Heartbeat CPU 0 instructions: 1190000189 cycles: 850683072 heartbeat IPC: 1.394 cumulative IPC: 1.399 (Simulation time: 02 hr 15 min 33 sec)
Heartbeat CPU 0 instructions: 1200000190 cycles: 857839502 heartbeat IPC: 1.397 cumulative IPC: 1.399 (Simulation time: 02 hr 16 min 40 sec)
Heartbeat CPU 0 instructions: 1210000190 cycles: 864976144 heartbeat IPC: 1.401 cumulative IPC: 1.399 (Simulation time: 02 hr 17 min 33 sec)
Heartbeat CPU 0 instructions: 1220000192 cycles: 872194026 heartbeat IPC: 1.385 cumulative IPC: 1.399 (Simulation time: 02 hr 18 min 24 sec)
[ERROR_CYCLE] Error added at CPU cycle 875943599, interval 34, pending count: 1
[DRAM_CYCLE_ERROR] Cycle-based error applied! address=0x163741b340 additional_latency=173500 cycles
Heartbeat CPU 0 instructions: 1230000192 cycles: 879459770 heartbeat IPC: 1.376 cumulative IPC: 1.399 (Simulation time: 02 hr 19 min 28 sec)
Heartbeat CPU 0 instructions: 1240000192 cycles: 886685081 heartbeat IPC: 1.384 cumulative IPC: 1.398 (Simulation time: 02 hr 20 min 21 sec)
Heartbeat CPU 0 instructions: 1250000193 cycles: 893938728 heartbeat IPC: 1.379 cumulative IPC: 1.398 (Simulation time: 02 hr 21 min 17 sec)
Heartbeat CPU 0 instructions: 1260000194 cycles: 901119879 heartbeat IPC: 1.393 cumulative IPC: 1.398 (Simulation time: 02 hr 22 min 07 sec)
[ERROR_CYCLE] Error added at CPU cycle 901706645, interval 35, pending count: 1
[DRAM_CYCLE_ERROR] Cycle-based error applied! address=0x1184c03840 additional_latency=173500 cycles
Heartbeat CPU 0 instructions: 1270000195 cycles: 908382301 heartbeat IPC: 1.377 cumulative IPC: 1.398 (Simulation time: 02 hr 22 min 58 sec)
Heartbeat CPU 0 instructions: 1280000195 cycles: 915526689 heartbeat IPC: 1.4 cumulative IPC: 1.398 (Simulation time: 02 hr 24 min 02 sec)
Heartbeat CPU 0 instructions: 1290000197 cycles: 922679425 heartbeat IPC: 1.398 cumulative IPC: 1.398 (Simulation time: 02 hr 25 min 05 sec)
[ERROR_CYCLE] Error added at CPU cycle 927469692, interval 36, pending count: 1
[DRAM_CYCLE_ERROR] Cycle-based error applied! address=0xfd6848280 additional_latency=173500 cycles
Heartbeat CPU 0 instructions: 1300000200 cycles: 929844029 heartbeat IPC: 1.396 cumulative IPC: 1.398 (Simulation time: 02 hr 26 min 10 sec)
Heartbeat CPU 0 instructions: 1310000200 cycles: 937039808 heartbeat IPC: 1.39 cumulative IPC: 1.398 (Simulation time: 02 hr 27 min 02 sec)
Heartbeat CPU 0 instructions: 1320000204 cycles: 944202325 heartbeat IPC: 1.396 cumulative IPC: 1.398 (Simulation time: 02 hr 27 min 56 sec)
Heartbeat CPU 0 instructions: 1330000204 cycles: 951455836 heartbeat IPC: 1.379 cumulative IPC: 1.398 (Simulation time: 02 hr 28 min 52 sec)
[ERROR_CYCLE] Error added at CPU cycle 953232740, interval 37, pending count: 1
[DRAM_CYCLE_ERROR] Cycle-based error applied! address=0x16bbf88580 additional_latency=173500 cycles
Heartbeat CPU 0 instructions: 1340000206 cycles: 958638355 heartbeat IPC: 1.392 cumulative IPC: 1.398 (Simulation time: 02 hr 29 min 43 sec)
Heartbeat CPU 0 instructions: 1350000209 cycles: 965845942 heartbeat IPC: 1.387 cumulative IPC: 1.398 (Simulation time: 02 hr 30 min 34 sec)
Heartbeat CPU 0 instructions: 1360000211 cycles: 973164968 heartbeat IPC: 1.366 cumulative IPC: 1.398 (Simulation time: 02 hr 31 min 31 sec)
[ERROR_CYCLE] Error added at CPU cycle 978995786, interval 38, pending count: 1
[DRAM_CYCLE_ERROR] Cycle-based error applied! address=0x192add39c0 additional_latency=173500 cycles
Heartbeat CPU 0 instructions: 1370000214 cycles: 980365865 heartbeat IPC: 1.389 cumulative IPC: 1.397 (Simulation time: 02 hr 32 min 26 sec)
Heartbeat CPU 0 instructions: 1380000215 cycles: 987545932 heartbeat IPC: 1.393 cumulative IPC: 1.397 (Simulation time: 02 hr 33 min 20 sec)
Heartbeat CPU 0 instructions: 1390000217 cycles: 994739383 heartbeat IPC: 1.39 cumulative IPC: 1.397 (Simulation time: 02 hr 34 min 10 sec)
Heartbeat CPU 0 instructions: 1400000220 cycles: 1001879966 heartbeat IPC: 1.4 cumulative IPC: 1.397 (Simulation time: 02 hr 35 min 00 sec)
[ERROR_CYCLE] Error added at CPU cycle 1004758834, interval 39, pending count: 1
[DRAM_CYCLE_ERROR] Cycle-based error applied! address=0x16e4c2b0c0 additional_latency=173500 cycles
Heartbeat CPU 0 instructions: 1410000222 cycles: 1009085983 heartbeat IPC: 1.388 cumulative IPC: 1.397 (Simulation time: 02 hr 35 min 49 sec)
Heartbeat CPU 0 instructions: 1420000222 cycles: 1016305666 heartbeat IPC: 1.385 cumulative IPC: 1.397 (Simulation time: 02 hr 36 min 39 sec)
Heartbeat CPU 0 instructions: 1430000223 cycles: 1023511387 heartbeat IPC: 1.388 cumulative IPC: 1.397 (Simulation time: 02 hr 37 min 29 sec)
[ERROR_CYCLE] Error added at CPU cycle 1030521880, interval 40, pending count: 1
[DRAM_CYCLE_ERROR] Cycle-based error applied! address=0x767be0dc0 additional_latency=173500 cycles
Heartbeat CPU 0 instructions: 1440000224 cycles: 1030678793 heartbeat IPC: 1.395 cumulative IPC: 1.397 (Simulation time: 02 hr 38 min 19 sec)
Heartbeat CPU 0 instructions: 1450000224 cycles: 1037838528 heartbeat IPC: 1.397 cumulative IPC: 1.397 (Simulation time: 02 hr 39 min 09 sec)
Heartbeat CPU 0 instructions: 1460000227 cycles: 1045129770 heartbeat IPC: 1.372 cumulative IPC: 1.397 (Simulation time: 02 hr 39 min 59 sec)
Heartbeat CPU 0 instructions: 1470000231 cycles: 1052315836 heartbeat IPC: 1.392 cumulative IPC: 1.397 (Simulation time: 02 hr 40 min 53 sec)
[ERROR_CYCLE] Error added at CPU cycle 1056284927, interval 41, pending count: 1
[DRAM_CYCLE_ERROR] Cycle-based error applied! address=0x1753cadc80 additional_latency=173500 cycles
Heartbeat CPU 0 instructions: 1480000234 cycles: 1059483881 heartbeat IPC: 1.395 cumulative IPC: 1.397 (Simulation time: 02 hr 41 min 50 sec)
Heartbeat CPU 0 instructions: 1490000235 cycles: 1066595007 heartbeat IPC: 1.406 cumulative IPC: 1.397 (Simulation time: 02 hr 42 min 41 sec)
Heartbeat CPU 0 instructions: 1500000235 cycles: 1073874892 heartbeat IPC: 1.374 cumulative IPC: 1.397 (Simulation time: 02 hr 43 min 37 sec)
Heartbeat CPU 0 instructions: 1510000236 cycles: 1081057682 heartbeat IPC: 1.392 cumulative IPC: 1.397 (Simulation time: 02 hr 44 min 40 sec)
[ERROR_CYCLE] Error added at CPU cycle 1082047975, interval 42, pending count: 1
[DRAM_CYCLE_ERROR] Cycle-based error applied! address=0x6847a8fc0 additional_latency=173500 cycles
Heartbeat CPU 0 instructions: 1520000238 cycles: 1088194213 heartbeat IPC: 1.401 cumulative IPC: 1.397 (Simulation time: 02 hr 45 min 31 sec)
Heartbeat CPU 0 instructions: 1530000238 cycles: 1095327913 heartbeat IPC: 1.402 cumulative IPC: 1.397 (Simulation time: 02 hr 46 min 29 sec)
Heartbeat CPU 0 instructions: 1540000238 cycles: 1102471093 heartbeat IPC: 1.4 cumulative IPC: 1.397 (Simulation time: 02 hr 47 min 20 sec)
[ERROR_CYCLE] Error added at CPU cycle 1107811021, interval 43, pending count: 1
[DRAM_CYCLE_ERROR] Cycle-based error applied! address=0x1ca2720b40 additional_latency=173500 cycles
Heartbeat CPU 0 instructions: 1550000238 cycles: 1109700004 heartbeat IPC: 1.383 cumulative IPC: 1.397 (Simulation time: 02 hr 48 min 13 sec)
Heartbeat CPU 0 instructions: 1560000238 cycles: 1116847350 heartbeat IPC: 1.399 cumulative IPC: 1.397 (Simulation time: 02 hr 49 min 05 sec)
Heartbeat CPU 0 instructions: 1570000240 cycles: 1124044648 heartbeat IPC: 1.389 cumulative IPC: 1.397 (Simulation time: 02 hr 50 min 05 sec)
Heartbeat CPU 0 instructions: 1580000244 cycles: 1131156791 heartbeat IPC: 1.406 cumulative IPC: 1.397 (Simulation time: 02 hr 50 min 59 sec)
[ERROR_CYCLE] Error added at CPU cycle 1133574068, interval 44, pending count: 1
[DRAM_CYCLE_ERROR] Cycle-based error applied! address=0x17eda20380 additional_latency=173500 cycles
Heartbeat CPU 0 instructions: 1590000248 cycles: 1138314712 heartbeat IPC: 1.397 cumulative IPC: 1.397 (Simulation time: 02 hr 51 min 59 sec)
Heartbeat CPU 0 instructions: 1600000249 cycles: 1145469882 heartbeat IPC: 1.398 cumulative IPC: 1.397 (Simulation time: 02 hr 52 min 49 sec)
Heartbeat CPU 0 instructions: 1610000252 cycles: 1152642381 heartbeat IPC: 1.394 cumulative IPC: 1.397 (Simulation time: 02 hr 53 min 40 sec)
[ERROR_CYCLE] Error added at CPU cycle 1159337116, interval 45, pending count: 1
[DRAM_CYCLE_ERROR] Cycle-based error applied! address=0xc2b184bc0 additional_latency=173500 cycles
Heartbeat CPU 0 instructions: 1620000252 cycles: 1159767053 heartbeat IPC: 1.404 cumulative IPC: 1.397 (Simulation time: 02 hr 54 min 45 sec)
Heartbeat CPU 0 instructions: 1630000252 cycles: 1166887394 heartbeat IPC: 1.404 cumulative IPC: 1.397 (Simulation time: 02 hr 55 min 35 sec)
Heartbeat CPU 0 instructions: 1640000252 cycles: 1174134107 heartbeat IPC: 1.38 cumulative IPC: 1.397 (Simulation time: 02 hr 56 min 25 sec)
Heartbeat CPU 0 instructions: 1650000253 cycles: 1181342478 heartbeat IPC: 1.387 cumulative IPC: 1.397 (Simulation time: 02 hr 57 min 36 sec)
[ERROR_CYCLE] Error added at CPU cycle 1185100162, interval 46, pending count: 1
[DRAM_CYCLE_ERROR] Cycle-based error applied! address=0x95219c640 additional_latency=173500 cycles
Heartbeat CPU 0 instructions: 1660000254 cycles: 1188525135 heartbeat IPC: 1.392 cumulative IPC: 1.397 (Simulation time: 02 hr 58 min 36 sec)
Heartbeat CPU 0 instructions: 1670000254 cycles: 1195712047 heartbeat IPC: 1.391 cumulative IPC: 1.397 (Simulation time: 02 hr 59 min 33 sec)
Heartbeat CPU 0 instructions: 1680000254 cycles: 1202947159 heartbeat IPC: 1.382 cumulative IPC: 1.397 (Simulation time: 03 hr 00 min 24 sec)
Heartbeat CPU 0 instructions: 1690000257 cycles: 1210103358 heartbeat IPC: 1.397 cumulative IPC: 1.397 (Simulation time: 03 hr 01 min 26 sec)
[ERROR_CYCLE] Error added at CPU cycle 1210863209, interval 47, pending count: 1
[DRAM_CYCLE_ERROR] Cycle-based error applied! address=0x11b5d9d8c8 additional_latency=173500 cycles
Heartbeat CPU 0 instructions: 1700000260 cycles: 1217278391 heartbeat IPC: 1.394 cumulative IPC: 1.397 (Simulation time: 03 hr 02 min 43 sec)
Heartbeat CPU 0 instructions: 1710000263 cycles: 1224447076 heartbeat IPC: 1.395 cumulative IPC: 1.397 (Simulation time: 03 hr 04 min 01 sec)
Heartbeat CPU 0 instructions: 1720000264 cycles: 1231633166 heartbeat IPC: 1.392 cumulative IPC: 1.397 (Simulation time: 03 hr 05 min 12 sec)
[ERROR_CYCLE] Error added at CPU cycle 1236626257, interval 48, pending count: 1
[DRAM_CYCLE_ERROR] Cycle-based error applied! address=0x13a221d040 additional_latency=173500 cycles
Heartbeat CPU 0 instructions: 1730000268 cycles: 1238757344 heartbeat IPC: 1.404 cumulative IPC: 1.397 (Simulation time: 03 hr 06 min 11 sec)
Heartbeat CPU 0 instructions: 1740000271 cycles: 1246030898 heartbeat IPC: 1.375 cumulative IPC: 1.396 (Simulation time: 03 hr 07 min 10 sec)
Heartbeat CPU 0 instructions: 1750000271 cycles: 1253166752 heartbeat IPC: 1.401 cumulative IPC: 1.396 (Simulation time: 03 hr 08 min 05 sec)
Heartbeat CPU 0 instructions: 1760000271 cycles: 1260344331 heartbeat IPC: 1.393 cumulative IPC: 1.396 (Simulation time: 03 hr 08 min 57 sec)
[ERROR_CYCLE] Error added at CPU cycle 1262389303, interval 49, pending count: 1
[DRAM_CYCLE_ERROR] Cycle-based error applied! address=0x112628d740 additional_latency=173500 cycles
Heartbeat CPU 0 instructions: 1770000271 cycles: 1267478679 heartbeat IPC: 1.402 cumulative IPC: 1.396 (Simulation time: 03 hr 09 min 46 sec)
Heartbeat CPU 0 instructions: 1780000273 cycles: 1274628608 heartbeat IPC: 1.399 cumulative IPC: 1.396 (Simulation time: 03 hr 10 min 39 sec)
Heartbeat CPU 0 instructions: 1790000275 cycles: 1281795768 heartbeat IPC: 1.395 cumulative IPC: 1.396 (Simulation time: 03 hr 11 min 35 sec)
[ERROR_CYCLE] Error added at CPU cycle 1288152351, interval 50, pending count: 1
[DRAM_CYCLE_ERROR] Cycle-based error applied! address=0x15f4003f80 additional_latency=173500 cycles
Heartbeat CPU 0 instructions: 1800000275 cycles: 1288941672 heartbeat IPC: 1.399 cumulative IPC: 1.396 (Simulation time: 03 hr 12 min 34 sec)
Heartbeat CPU 0 instructions: 1810000275 cycles: 1296152878 heartbeat IPC: 1.387 cumulative IPC: 1.396 (Simulation time: 03 hr 13 min 26 sec)
Heartbeat CPU 0 instructions: 1820000276 cycles: 1303354439 heartbeat IPC: 1.389 cumulative IPC: 1.396 (Simulation time: 03 hr 14 min 20 sec)
Heartbeat CPU 0 instructions: 1830000276 cycles: 1310589873 heartbeat IPC: 1.382 cumulative IPC: 1.396 (Simulation time: 03 hr 15 min 09 sec)
[ERROR_CYCLE] Error added at CPU cycle 1313915398, interval 51, pending count: 1
[DRAM_CYCLE_ERROR] Cycle-based error applied! address=0xbedf56580 additional_latency=173500 cycles
Heartbeat CPU 0 instructions: 1840000279 cycles: 1317730128 heartbeat IPC: 1.401 cumulative IPC: 1.396 (Simulation time: 03 hr 16 min 23 sec)
Heartbeat CPU 0 instructions: 1850000281 cycles: 1324912055 heartbeat IPC: 1.392 cumulative IPC: 1.396 (Simulation time: 03 hr 17 min 40 sec)
Heartbeat CPU 0 instructions: 1860000284 cycles: 1332034048 heartbeat IPC: 1.404 cumulative IPC: 1.396 (Simulation time: 03 hr 18 min 43 sec)
Heartbeat CPU 0 instructions: 1870000287 cycles: 1339212543 heartbeat IPC: 1.393 cumulative IPC: 1.396 (Simulation time: 03 hr 19 min 38 sec)
[ERROR_CYCLE] Error added at CPU cycle 1339678444, interval 52, pending count: 1
[DRAM_CYCLE_ERROR] Cycle-based error applied! address=0x1797fc3d40 additional_latency=173500 cycles
Heartbeat CPU 0 instructions: 1880000288 cycles: 1346446515 heartbeat IPC: 1.382 cumulative IPC: 1.396 (Simulation time: 03 hr 20 min 28 sec)
Heartbeat CPU 0 instructions: 1890000291 cycles: 1353623710 heartbeat IPC: 1.393 cumulative IPC: 1.396 (Simulation time: 03 hr 21 min 18 sec)
Heartbeat CPU 0 instructions: 1900000291 cycles: 1360827154 heartbeat IPC: 1.388 cumulative IPC: 1.396 (Simulation time: 03 hr 22 min 07 sec)
[ERROR_CYCLE] Error added at CPU cycle 1365441492, interval 53, pending count: 1
[DRAM_CYCLE_ERROR] Cycle-based error applied! address=0x145cd9f380 additional_latency=173500 cycles
Heartbeat CPU 0 instructions: 1910000295 cycles: 1368032124 heartbeat IPC: 1.388 cumulative IPC: 1.396 (Simulation time: 03 hr 22 min 57 sec)
Heartbeat CPU 0 instructions: 1920000297 cycles: 1375270117 heartbeat IPC: 1.382 cumulative IPC: 1.396 (Simulation time: 03 hr 23 min 46 sec)
Heartbeat CPU 0 instructions: 1930000299 cycles: 1382455410 heartbeat IPC: 1.392 cumulative IPC: 1.396 (Simulation time: 03 hr 24 min 36 sec)
Heartbeat CPU 0 instructions: 1940000300 cycles: 1389660786 heartbeat IPC: 1.388 cumulative IPC: 1.396 (Simulation time: 03 hr 25 min 25 sec)
[ERROR_CYCLE] Error added at CPU cycle 1391204538, interval 54, pending count: 1
[DRAM_CYCLE_ERROR] Cycle-based error applied! address=0x14fcb43900 additional_latency=173500 cycles
Heartbeat CPU 0 instructions: 1950000303 cycles: 1396842578 heartbeat IPC: 1.392 cumulative IPC: 1.396 (Simulation time: 03 hr 26 min 14 sec)
Heartbeat CPU 0 instructions: 1960000304 cycles: 1403954350 heartbeat IPC: 1.406 cumulative IPC: 1.396 (Simulation time: 03 hr 27 min 02 sec)
Heartbeat CPU 0 instructions: 1970000308 cycles: 1411103355 heartbeat IPC: 1.399 cumulative IPC: 1.396 (Simulation time: 03 hr 27 min 50 sec)
[ERROR_CYCLE] Error added at CPU cycle 1416967585, interval 55, pending count: 1
[DRAM_CYCLE_ERROR] Cycle-based error applied! address=0x18243fd140 additional_latency=173500 cycles
Heartbeat CPU 0 instructions: 1980000310 cycles: 1418254712 heartbeat IPC: 1.398 cumulative IPC: 1.396 (Simulation time: 03 hr 28 min 39 sec)
Heartbeat CPU 0 instructions: 1990000310 cycles: 1425518693 heartbeat IPC: 1.377 cumulative IPC: 1.396 (Simulation time: 03 hr 29 min 28 sec)

=== ERROR PAGE STATISTICS ===
Mode: CYCLE
Error Cycle Interval: 25763047 CPU cycles
Total Error Accesses: 55
==============================
Simulation finished CPU 0 instructions: 1999999507 cycles: 1432687566 cumulative IPC: 1.396 (Simulation time: 03 hr 30 min 17 sec)
Simulation complete CPU 0 instructions: 1999999507 cycles: 1432687566 cumulative IPC: 1.396 (Simulation time: 03 hr 30 min 17 sec)

ChampSim completed all CPUs

=== Simulation ===
CPU 0 runs test_traces/607.cactuBSSN_s-2421B.champsimtrace.xz

Region of Interest Statistics

CPU 0 cumulative IPC: 1.396 instructions: 1999999507 cycles: 1432687566
CPU 0 Branch Prediction Accuracy: 98.41% MPKI: 0.0223 Average ROB Occupancy at Mispredict: 325.5
Branch type MPKI
BRANCH_DIRECT_JUMP: 3.4e-05
BRANCH_INDIRECT: 4.45e-05
BRANCH_CONDITIONAL: 0.0122
BRANCH_DIRECT_CALL: 0.000332
BRANCH_INDIRECT_CALL: 1.5e-06
BRANCH_RETURN: 0.009687

cpu0->cpu0_STLB TOTAL        ACCESS:  148903589 HIT:  148663539 MISS:     240050 MSHR_MERGE:          0
cpu0->cpu0_STLB LOAD         ACCESS:  148903589 HIT:  148663539 MISS:     240050 MSHR_MERGE:          0
cpu0->cpu0_STLB RFO          ACCESS:          0 HIT:          0 MISS:          0 MSHR_MERGE:          0
cpu0->cpu0_STLB PREFETCH     ACCESS:          0 HIT:          0 MISS:          0 MSHR_MERGE:          0
cpu0->cpu0_STLB WRITE        ACCESS:          0 HIT:          0 MISS:          0 MSHR_MERGE:          0
cpu0->cpu0_STLB TRANSLATION  ACCESS:          0 HIT:          0 MISS:          0 MSHR_MERGE:          0
cpu0->cpu0_STLB PREFETCH REQUESTED:          0 ISSUED:          0 USEFUL:          0 USELESS:          0
cpu0->cpu0_STLB AVERAGE MISS LATENCY: 368.7 cycles
cpu0->cpu0_L2C TOTAL        ACCESS:  251282195 HIT:  226314694 MISS:   24967501 MSHR_MERGE:          0
cpu0->cpu0_L2C LOAD         ACCESS:  217202056 HIT:  193090475 MISS:   24111581 MSHR_MERGE:          0
cpu0->cpu0_L2C RFO          ACCESS:   16163578 HIT:   15307773 MISS:     855805 MSHR_MERGE:          0
cpu0->cpu0_L2C PREFETCH     ACCESS:          0 HIT:          0 MISS:          0 MSHR_MERGE:          0
cpu0->cpu0_L2C WRITE        ACCESS:   17916561 HIT:   17916446 MISS:        115 MSHR_MERGE:          0
cpu0->cpu0_L2C TRANSLATION  ACCESS:          0 HIT:          0 MISS:          0 MSHR_MERGE:          0
cpu0->cpu0_L2C PREFETCH REQUESTED:          0 ISSUED:          0 USEFUL:          0 USELESS:          0
cpu0->cpu0_L2C AVERAGE MISS LATENCY: 84.84 cycles
cpu0->cpu0_L1I TOTAL        ACCESS:  406898310 HIT:  404252222 MISS:    2646088 MSHR_MERGE:    1295945
cpu0->cpu0_L1I LOAD         ACCESS:  406898310 HIT:  404252222 MISS:    2646088 MSHR_MERGE:    1295945
cpu0->cpu0_L1I RFO          ACCESS:          0 HIT:          0 MISS:          0 MSHR_MERGE:          0
cpu0->cpu0_L1I PREFETCH     ACCESS:          0 HIT:          0 MISS:          0 MSHR_MERGE:          0
cpu0->cpu0_L1I WRITE        ACCESS:          0 HIT:          0 MISS:          0 MSHR_MERGE:          0
cpu0->cpu0_L1I TRANSLATION  ACCESS:          0 HIT:          0 MISS:          0 MSHR_MERGE:          0
cpu0->cpu0_L1I PREFETCH REQUESTED:          0 ISSUED:          0 USEFUL:          0 USELESS:          0
cpu0->cpu0_L1I AVERAGE MISS LATENCY: 7.256 cycles
cpu0->cpu0_L1D TOTAL        ACCESS:  640966354 HIT:  369621655 MISS:  271344699 MSHR_MERGE:   38773821
cpu0->cpu0_L1D LOAD         ACCESS:  414215784 HIT:  160580205 MISS:  253635579 MSHR_MERGE:   37235675
cpu0->cpu0_L1D RFO          ACCESS:          0 HIT:          0 MISS:          0 MSHR_MERGE:          0
cpu0->cpu0_L1D PREFETCH     ACCESS:          0 HIT:          0 MISS:          0 MSHR_MERGE:          0
cpu0->cpu0_L1D WRITE        ACCESS:  226750570 HIT:  209041450 MISS:   17709120 MSHR_MERGE:    1538146
cpu0->cpu0_L1D TRANSLATION  ACCESS:          0 HIT:          0 MISS:          0 MSHR_MERGE:          0
cpu0->cpu0_L1D PREFETCH REQUESTED:          0 ISSUED:          0 USEFUL:          0 USELESS:          0
cpu0->cpu0_L1D AVERAGE MISS LATENCY: 17.88 cycles
cpu0->cpu0_ITLB TOTAL        ACCESS:  335160840 HIT:  335160633 MISS:        207 MSHR_MERGE:        131
cpu0->cpu0_ITLB LOAD         ACCESS:  335160840 HIT:  335160633 MISS:        207 MSHR_MERGE:        131
cpu0->cpu0_ITLB RFO          ACCESS:          0 HIT:          0 MISS:          0 MSHR_MERGE:          0
cpu0->cpu0_ITLB PREFETCH     ACCESS:          0 HIT:          0 MISS:          0 MSHR_MERGE:          0
cpu0->cpu0_ITLB WRITE        ACCESS:          0 HIT:          0 MISS:          0 MSHR_MERGE:          0
cpu0->cpu0_ITLB TRANSLATION  ACCESS:          0 HIT:          0 MISS:          0 MSHR_MERGE:          0
cpu0->cpu0_ITLB PREFETCH REQUESTED:          0 ISSUED:          0 USEFUL:          0 USELESS:          0
cpu0->cpu0_ITLB AVERAGE MISS LATENCY: 612.4 cycles
cpu0->cpu0_DTLB TOTAL        ACCESS:  541487932 HIT:  342423560 MISS:  199064372 MSHR_MERGE:   50160858
cpu0->cpu0_DTLB LOAD         ACCESS:  541487932 HIT:  342423560 MISS:  199064372 MSHR_MERGE:   50160858
cpu0->cpu0_DTLB RFO          ACCESS:          0 HIT:          0 MISS:          0 MSHR_MERGE:          0
cpu0->cpu0_DTLB PREFETCH     ACCESS:          0 HIT:          0 MISS:          0 MSHR_MERGE:          0
cpu0->cpu0_DTLB WRITE        ACCESS:          0 HIT:          0 MISS:          0 MSHR_MERGE:          0
cpu0->cpu0_DTLB TRANSLATION  ACCESS:          0 HIT:          0 MISS:          0 MSHR_MERGE:          0
cpu0->cpu0_DTLB PREFETCH REQUESTED:          0 ISSUED:          0 USEFUL:          0 USELESS:          0
cpu0->cpu0_DTLB AVERAGE MISS LATENCY: 5.723 cycles
cpu0->LLC TOTAL        ACCESS:   27453745 HIT:   12328822 MISS:   15124923 MSHR_MERGE:          0
cpu0->LLC LOAD         ACCESS:   24111575 HIT:    9018594 MISS:   15092981 MSHR_MERGE:          0
cpu0->LLC RFO          ACCESS:     849653 HIT:     819035 MISS:      30618 MSHR_MERGE:          0
cpu0->LLC PREFETCH     ACCESS:          0 HIT:          0 MISS:          0 MSHR_MERGE:          0
cpu0->LLC WRITE        ACCESS:    2492517 HIT:    2491193 MISS:       1324 MSHR_MERGE:          0
cpu0->LLC TRANSLATION  ACCESS:          0 HIT:          0 MISS:          0 MSHR_MERGE:          0
cpu0->LLC PREFETCH REQUESTED:          0 ISSUED:          0 USEFUL:          0 USELESS:          0
cpu0->LLC AVERAGE MISS LATENCY: 114.3 cycles

DRAM Statistics

Channel 0 RQ ROW_BUFFER_HIT:        598
  ROW_BUFFER_MISS:    7863771
  AVG DBUS CONGESTED CYCLE: 9.32
Channel 0 WQ ROW_BUFFER_HIT:     205003
  ROW_BUFFER_MISS:     739741
  FULL:          0
Channel 0 REFRESHES ISSUED:     119382

Channel 1 RQ ROW_BUFFER_HIT:        685
  ROW_BUFFER_MISS:    7870484
  AVG DBUS CONGESTED CYCLE: 9.326
Channel 1 WQ ROW_BUFFER_HIT:     205175
  ROW_BUFFER_MISS:     739756
  FULL:          0
Channel 1 REFRESHES ISSUED:     119382
