[VMEM] WARNING: physical memory size is smaller than virtual memory size.

*** ChampSim Multicore Out-of-Order Simulator ***
Warmup Instructions: 0
Simulation Instructions: 9223372036854775807
Number of CPUs: 1
Page size: 2097152

Off-chip DRAM Size: 32 GiB Channels: 2 Width: 32-bit Data Rate: 4807 MT/s
[ERROR_PAGE_MANAGER] Error latency: 1990500 
[ERROR_PAGE_MANAGER] Random seed: 54321 (fixed for preload reproducibility)
[ERROR_PAGE_MANAGER] Cycle-based error modeling enabled
[ERROR_PAGE_MANAGER] Errors per interval: 1
[ERROR_PAGE_MANAGER] Error cycle interval: 7053240154 cycles

=== ERROR PAGE STATISTICS ===
Mode: CYCLE
Error Cycle Interval: 7053240154 CPU cycles
Total Error Accesses: 0
==============================
Warmup finished CPU 0 instructions: 0 cycles: 1 cumulative IPC: 0 (Simulation time: 00 hr 00 min 00 sec)
Warmup complete CPU 0 instructions: 0 cycles: 1 cumulative IPC: 0 (Simulation time: 00 hr 00 min 00 sec)
Heartbeat CPU 0 instructions: 10000002 cycles: 25834124 heartbeat IPC: 0.3871 cumulative IPC: 0.3871 (Simulation time: 00 hr 02 min 53 sec)
Heartbeat CPU 0 instructions: 20000002 cycles: 51497107 heartbeat IPC: 0.3897 cumulative IPC: 0.3884 (Simulation time: 00 hr 05 min 46 sec)
Heartbeat CPU 0 instructions: 30000004 cycles: 77133567 heartbeat IPC: 0.3901 cumulative IPC: 0.3889 (Simulation time: 00 hr 08 min 35 sec)
Heartbeat CPU 0 instructions: 40000005 cycles: 102852925 heartbeat IPC: 0.3888 cumulative IPC: 0.3889 (Simulation time: 00 hr 11 min 21 sec)
Heartbeat CPU 0 instructions: 50000009 cycles: 128490449 heartbeat IPC: 0.3901 cumulative IPC: 0.3891 (Simulation time: 00 hr 14 min 10 sec)
Heartbeat CPU 0 instructions: 60000012 cycles: 154159272 heartbeat IPC: 0.3896 cumulative IPC: 0.3892 (Simulation time: 00 hr 17 min 00 sec)
Heartbeat CPU 0 instructions: 70000012 cycles: 179869537 heartbeat IPC: 0.3889 cumulative IPC: 0.3892 (Simulation time: 00 hr 19 min 52 sec)
Heartbeat CPU 0 instructions: 80000016 cycles: 205643183 heartbeat IPC: 0.388 cumulative IPC: 0.389 (Simulation time: 00 hr 22 min 48 sec)
Heartbeat CPU 0 instructions: 90000018 cycles: 231292874 heartbeat IPC: 0.3899 cumulative IPC: 0.3891 (Simulation time: 00 hr 25 min 38 sec)
Heartbeat CPU 0 instructions: 100000020 cycles: 256909475 heartbeat IPC: 0.3904 cumulative IPC: 0.3892 (Simulation time: 00 hr 28 min 28 sec)
Heartbeat CPU 0 instructions: 110000020 cycles: 282604146 heartbeat IPC: 0.3892 cumulative IPC: 0.3892 (Simulation time: 00 hr 31 min 13 sec)
Heartbeat CPU 0 instructions: 120000024 cycles: 308305392 heartbeat IPC: 0.3891 cumulative IPC: 0.3892 (Simulation time: 00 hr 33 min 56 sec)
Heartbeat CPU 0 instructions: 130000024 cycles: 334014469 heartbeat IPC: 0.389 cumulative IPC: 0.3892 (Simulation time: 00 hr 36 min 43 sec)
Heartbeat CPU 0 instructions: 140000027 cycles: 359626700 heartbeat IPC: 0.3904 cumulative IPC: 0.3893 (Simulation time: 00 hr 39 min 26 sec)
Heartbeat CPU 0 instructions: 150000029 cycles: 385237236 heartbeat IPC: 0.3905 cumulative IPC: 0.3894 (Simulation time: 00 hr 42 min 08 sec)
Heartbeat CPU 0 instructions: 160000031 cycles: 410941516 heartbeat IPC: 0.389 cumulative IPC: 0.3893 (Simulation time: 00 hr 44 min 51 sec)
Heartbeat CPU 0 instructions: 170000034 cycles: 436570662 heartbeat IPC: 0.3902 cumulative IPC: 0.3894 (Simulation time: 00 hr 47 min 36 sec)
Heartbeat CPU 0 instructions: 180000036 cycles: 462211562 heartbeat IPC: 0.39 cumulative IPC: 0.3894 (Simulation time: 00 hr 50 min 18 sec)
Heartbeat CPU 0 instructions: 190000039 cycles: 487954428 heartbeat IPC: 0.3885 cumulative IPC: 0.3894 (Simulation time: 00 hr 53 min 01 sec)
Heartbeat CPU 0 instructions: 200000040 cycles: 513566339 heartbeat IPC: 0.3904 cumulative IPC: 0.3894 (Simulation time: 00 hr 55 min 43 sec)
Heartbeat CPU 0 instructions: 210000042 cycles: 539194174 heartbeat IPC: 0.3902 cumulative IPC: 0.3895 (Simulation time: 00 hr 58 min 22 sec)
Heartbeat CPU 0 instructions: 220000045 cycles: 564892242 heartbeat IPC: 0.3891 cumulative IPC: 0.3895 (Simulation time: 01 hr 01 min 01 sec)
Heartbeat CPU 0 instructions: 230000046 cycles: 590555708 heartbeat IPC: 0.3897 cumulative IPC: 0.3895 (Simulation time: 01 hr 03 min 36 sec)
Heartbeat CPU 0 instructions: 240000047 cycles: 616230067 heartbeat IPC: 0.3895 cumulative IPC: 0.3895 (Simulation time: 01 hr 06 min 14 sec)
Heartbeat CPU 0 instructions: 250000047 cycles: 641859433 heartbeat IPC: 0.3902 cumulative IPC: 0.3895 (Simulation time: 01 hr 08 min 49 sec)
Heartbeat CPU 0 instructions: 260000051 cycles: 667548376 heartbeat IPC: 0.3893 cumulative IPC: 0.3895 (Simulation time: 01 hr 11 min 29 sec)
Heartbeat CPU 0 instructions: 270000051 cycles: 693229631 heartbeat IPC: 0.3894 cumulative IPC: 0.3895 (Simulation time: 01 hr 14 min 07 sec)
Heartbeat CPU 0 instructions: 280000052 cycles: 718880812 heartbeat IPC: 0.3898 cumulative IPC: 0.3895 (Simulation time: 01 hr 16 min 48 sec)
Heartbeat CPU 0 instructions: 290000052 cycles: 744508449 heartbeat IPC: 0.3902 cumulative IPC: 0.3895 (Simulation time: 01 hr 19 min 24 sec)
Heartbeat CPU 0 instructions: 300000056 cycles: 770146060 heartbeat IPC: 0.3901 cumulative IPC: 0.3895 (Simulation time: 01 hr 22 min 03 sec)
Heartbeat CPU 0 instructions: 310000056 cycles: 795785549 heartbeat IPC: 0.39 cumulative IPC: 0.3896 (Simulation time: 01 hr 24 min 43 sec)
Heartbeat CPU 0 instructions: 320000059 cycles: 821441644 heartbeat IPC: 0.3898 cumulative IPC: 0.3896 (Simulation time: 01 hr 27 min 22 sec)
Heartbeat CPU 0 instructions: 330000059 cycles: 847083876 heartbeat IPC: 0.39 cumulative IPC: 0.3896 (Simulation time: 01 hr 30 min 01 sec)
Heartbeat CPU 0 instructions: 340000061 cycles: 872762129 heartbeat IPC: 0.3894 cumulative IPC: 0.3896 (Simulation time: 01 hr 32 min 39 sec)
Heartbeat CPU 0 instructions: 350000063 cycles: 898398820 heartbeat IPC: 0.3901 cumulative IPC: 0.3896 (Simulation time: 01 hr 35 min 15 sec)
Heartbeat CPU 0 instructions: 360000064 cycles: 924027166 heartbeat IPC: 0.3902 cumulative IPC: 0.3896 (Simulation time: 01 hr 37 min 55 sec)
Heartbeat CPU 0 instructions: 370000067 cycles: 949639311 heartbeat IPC: 0.3904 cumulative IPC: 0.3896 (Simulation time: 01 hr 40 min 36 sec)
Heartbeat CPU 0 instructions: 380000068 cycles: 975340173 heartbeat IPC: 0.3891 cumulative IPC: 0.3896 (Simulation time: 01 hr 43 min 17 sec)
Heartbeat CPU 0 instructions: 390000071 cycles: 1001028842 heartbeat IPC: 0.3893 cumulative IPC: 0.3896 (Simulation time: 01 hr 45 min 57 sec)
Heartbeat CPU 0 instructions: 400000074 cycles: 1026725243 heartbeat IPC: 0.3892 cumulative IPC: 0.3896 (Simulation time: 01 hr 48 min 36 sec)
Heartbeat CPU 0 instructions: 410000076 cycles: 1052408337 heartbeat IPC: 0.3894 cumulative IPC: 0.3896 (Simulation time: 01 hr 51 min 15 sec)
Heartbeat CPU 0 instructions: 420000076 cycles: 1078067990 heartbeat IPC: 0.3897 cumulative IPC: 0.3896 (Simulation time: 01 hr 53 min 55 sec)
Heartbeat CPU 0 instructions: 430000076 cycles: 1103688006 heartbeat IPC: 0.3903 cumulative IPC: 0.3896 (Simulation time: 01 hr 56 min 32 sec)
Heartbeat CPU 0 instructions: 440000080 cycles: 1129339841 heartbeat IPC: 0.3898 cumulative IPC: 0.3896 (Simulation time: 01 hr 59 min 11 sec)
Heartbeat CPU 0 instructions: 450000081 cycles: 1154979493 heartbeat IPC: 0.39 cumulative IPC: 0.3896 (Simulation time: 02 hr 01 min 48 sec)
Heartbeat CPU 0 instructions: 460000083 cycles: 1180564894 heartbeat IPC: 0.3908 cumulative IPC: 0.3896 (Simulation time: 02 hr 04 min 27 sec)
Heartbeat CPU 0 instructions: 470000085 cycles: 1206127575 heartbeat IPC: 0.3912 cumulative IPC: 0.3897 (Simulation time: 02 hr 07 min 07 sec)
Heartbeat CPU 0 instructions: 480000086 cycles: 1231703248 heartbeat IPC: 0.391 cumulative IPC: 0.3897 (Simulation time: 02 hr 09 min 45 sec)
Heartbeat CPU 0 instructions: 490000086 cycles: 1257270841 heartbeat IPC: 0.3911 cumulative IPC: 0.3897 (Simulation time: 02 hr 12 min 22 sec)
Heartbeat CPU 0 instructions: 500000086 cycles: 1282940887 heartbeat IPC: 0.3896 cumulative IPC: 0.3897 (Simulation time: 02 hr 14 min 58 sec)
Heartbeat CPU 0 instructions: 510000087 cycles: 1308551618 heartbeat IPC: 0.3905 cumulative IPC: 0.3897 (Simulation time: 02 hr 17 min 35 sec)
Heartbeat CPU 0 instructions: 520000087 cycles: 1334141681 heartbeat IPC: 0.3908 cumulative IPC: 0.3898 (Simulation time: 02 hr 20 min 13 sec)
Heartbeat CPU 0 instructions: 530000091 cycles: 1359745814 heartbeat IPC: 0.3906 cumulative IPC: 0.3898 (Simulation time: 02 hr 22 min 45 sec)
Heartbeat CPU 0 instructions: 540000093 cycles: 1385437239 heartbeat IPC: 0.3892 cumulative IPC: 0.3898 (Simulation time: 02 hr 25 min 16 sec)
Heartbeat CPU 0 instructions: 550000093 cycles: 1411042196 heartbeat IPC: 0.3905 cumulative IPC: 0.3898 (Simulation time: 02 hr 27 min 44 sec)
Heartbeat CPU 0 instructions: 560000095 cycles: 1436675621 heartbeat IPC: 0.3901 cumulative IPC: 0.3898 (Simulation time: 02 hr 30 min 18 sec)
Heartbeat CPU 0 instructions: 570000095 cycles: 1462310134 heartbeat IPC: 0.3901 cumulative IPC: 0.3898 (Simulation time: 02 hr 32 min 57 sec)
Heartbeat CPU 0 instructions: 580000099 cycles: 1487951869 heartbeat IPC: 0.39 cumulative IPC: 0.3898 (Simulation time: 02 hr 35 min 35 sec)
Heartbeat CPU 0 instructions: 590000102 cycles: 1513587279 heartbeat IPC: 0.3901 cumulative IPC: 0.3898 (Simulation time: 02 hr 38 min 10 sec)
Heartbeat CPU 0 instructions: 600000104 cycles: 1539268891 heartbeat IPC: 0.3894 cumulative IPC: 0.3898 (Simulation time: 02 hr 40 min 46 sec)
Heartbeat CPU 0 instructions: 610000105 cycles: 1564961475 heartbeat IPC: 0.3892 cumulative IPC: 0.3898 (Simulation time: 02 hr 43 min 18 sec)
Heartbeat CPU 0 instructions: 620000107 cycles: 1592601750 heartbeat IPC: 0.3618 cumulative IPC: 0.3893 (Simulation time: 02 hr 45 min 38 sec)
Heartbeat CPU 0 instructions: 630000107 cycles: 1619038970 heartbeat IPC: 0.3783 cumulative IPC: 0.3891 (Simulation time: 02 hr 47 min 37 sec)
Heartbeat CPU 0 instructions: 640000107 cycles: 1645019532 heartbeat IPC: 0.3849 cumulative IPC: 0.3891 (Simulation time: 02 hr 50 min 01 sec)
Heartbeat CPU 0 instructions: 650000107 cycles: 1671215396 heartbeat IPC: 0.3817 cumulative IPC: 0.3889 (Simulation time: 02 hr 52 min 16 sec)
Heartbeat CPU 0 instructions: 660000108 cycles: 1696987161 heartbeat IPC: 0.388 cumulative IPC: 0.3889 (Simulation time: 02 hr 54 min 57 sec)
Heartbeat CPU 0 instructions: 670000109 cycles: 1722675720 heartbeat IPC: 0.3893 cumulative IPC: 0.3889 (Simulation time: 02 hr 57 min 37 sec)
Heartbeat CPU 0 instructions: 680000110 cycles: 1748314921 heartbeat IPC: 0.39 cumulative IPC: 0.3889 (Simulation time: 03 hr 00 min 14 sec)
Heartbeat CPU 0 instructions: 690000111 cycles: 1773873878 heartbeat IPC: 0.3913 cumulative IPC: 0.389 (Simulation time: 03 hr 02 min 38 sec)
Heartbeat CPU 0 instructions: 700000115 cycles: 1799430068 heartbeat IPC: 0.3913 cumulative IPC: 0.389 (Simulation time: 03 hr 04 min 48 sec)
Heartbeat CPU 0 instructions: 710000116 cycles: 1824992055 heartbeat IPC: 0.3912 cumulative IPC: 0.389 (Simulation time: 03 hr 07 min 09 sec)
Heartbeat CPU 0 instructions: 720000117 cycles: 1850544046 heartbeat IPC: 0.3914 cumulative IPC: 0.3891 (Simulation time: 03 hr 09 min 46 sec)
Heartbeat CPU 0 instructions: 730000120 cycles: 1876150911 heartbeat IPC: 0.3905 cumulative IPC: 0.3891 (Simulation time: 03 hr 12 min 25 sec)
Heartbeat CPU 0 instructions: 740000121 cycles: 1901827627 heartbeat IPC: 0.3895 cumulative IPC: 0.3891 (Simulation time: 03 hr 14 min 56 sec)
Heartbeat CPU 0 instructions: 750000122 cycles: 1927480942 heartbeat IPC: 0.3898 cumulative IPC: 0.3891 (Simulation time: 03 hr 17 min 12 sec)
Heartbeat CPU 0 instructions: 760000122 cycles: 1953132557 heartbeat IPC: 0.3898 cumulative IPC: 0.3891 (Simulation time: 03 hr 19 min 50 sec)
Heartbeat CPU 0 instructions: 770000122 cycles: 1978751142 heartbeat IPC: 0.3903 cumulative IPC: 0.3891 (Simulation time: 03 hr 22 min 18 sec)
Heartbeat CPU 0 instructions: 780000124 cycles: 2004369394 heartbeat IPC: 0.3903 cumulative IPC: 0.3891 (Simulation time: 03 hr 24 min 54 sec)
Heartbeat CPU 0 instructions: 790000127 cycles: 2029936263 heartbeat IPC: 0.3911 cumulative IPC: 0.3892 (Simulation time: 03 hr 27 min 31 sec)
Heartbeat CPU 0 instructions: 800000128 cycles: 2055591657 heartbeat IPC: 0.3898 cumulative IPC: 0.3892 (Simulation time: 03 hr 30 min 08 sec)
Heartbeat CPU 0 instructions: 810000128 cycles: 2081204667 heartbeat IPC: 0.3904 cumulative IPC: 0.3892 (Simulation time: 03 hr 32 min 33 sec)
Heartbeat CPU 0 instructions: 820000128 cycles: 2106842394 heartbeat IPC: 0.3901 cumulative IPC: 0.3892 (Simulation time: 03 hr 34 min 59 sec)
Heartbeat CPU 0 instructions: 830000128 cycles: 2132468067 heartbeat IPC: 0.3902 cumulative IPC: 0.3892 (Simulation time: 03 hr 37 min 10 sec)
Heartbeat CPU 0 instructions: 840000128 cycles: 2158097750 heartbeat IPC: 0.3902 cumulative IPC: 0.3892 (Simulation time: 03 hr 39 min 35 sec)
Heartbeat CPU 0 instructions: 850000131 cycles: 2183733523 heartbeat IPC: 0.3901 cumulative IPC: 0.3892 (Simulation time: 03 hr 41 min 45 sec)
Heartbeat CPU 0 instructions: 860000134 cycles: 2209279672 heartbeat IPC: 0.3914 cumulative IPC: 0.3893 (Simulation time: 03 hr 44 min 07 sec)
Heartbeat CPU 0 instructions: 870000134 cycles: 2234850664 heartbeat IPC: 0.3911 cumulative IPC: 0.3893 (Simulation time: 03 hr 46 min 43 sec)
Heartbeat CPU 0 instructions: 880000136 cycles: 2260401501 heartbeat IPC: 0.3914 cumulative IPC: 0.3893 (Simulation time: 03 hr 49 min 14 sec)
Heartbeat CPU 0 instructions: 890000137 cycles: 2286002985 heartbeat IPC: 0.3906 cumulative IPC: 0.3893 (Simulation time: 03 hr 51 min 40 sec)
Heartbeat CPU 0 instructions: 900000137 cycles: 2311590012 heartbeat IPC: 0.3908 cumulative IPC: 0.3893 (Simulation time: 03 hr 54 min 03 sec)
Heartbeat CPU 0 instructions: 910000140 cycles: 2337175956 heartbeat IPC: 0.3908 cumulative IPC: 0.3894 (Simulation time: 03 hr 56 min 07 sec)
Heartbeat CPU 0 instructions: 920000140 cycles: 2362738790 heartbeat IPC: 0.3912 cumulative IPC: 0.3894 (Simulation time: 03 hr 58 min 23 sec)
Heartbeat CPU 0 instructions: 930000140 cycles: 2388298460 heartbeat IPC: 0.3912 cumulative IPC: 0.3894 (Simulation time: 04 hr 00 min 19 sec)
Heartbeat CPU 0 instructions: 940000144 cycles: 2413876068 heartbeat IPC: 0.391 cumulative IPC: 0.3894 (Simulation time: 04 hr 02 min 35 sec)
Heartbeat CPU 0 instructions: 950000147 cycles: 2439440841 heartbeat IPC: 0.3912 cumulative IPC: 0.3894 (Simulation time: 04 hr 04 min 26 sec)
Heartbeat CPU 0 instructions: 960000147 cycles: 2465004987 heartbeat IPC: 0.3912 cumulative IPC: 0.3895 (Simulation time: 04 hr 06 min 55 sec)
Heartbeat CPU 0 instructions: 970000149 cycles: 2490559283 heartbeat IPC: 0.3913 cumulative IPC: 0.3895 (Simulation time: 04 hr 09 min 19 sec)
Heartbeat CPU 0 instructions: 980000150 cycles: 2516117008 heartbeat IPC: 0.3913 cumulative IPC: 0.3895 (Simulation time: 04 hr 11 min 55 sec)
Heartbeat CPU 0 instructions: 990000150 cycles: 2541664364 heartbeat IPC: 0.3914 cumulative IPC: 0.3895 (Simulation time: 04 hr 14 min 30 sec)
Heartbeat CPU 0 instructions: 1000000152 cycles: 2567254499 heartbeat IPC: 0.3908 cumulative IPC: 0.3895 (Simulation time: 04 hr 16 min 46 sec)
Heartbeat CPU 0 instructions: 1010000153 cycles: 2592809513 heartbeat IPC: 0.3913 cumulative IPC: 0.3895 (Simulation time: 04 hr 19 min 21 sec)
Heartbeat CPU 0 instructions: 1020000155 cycles: 2618353823 heartbeat IPC: 0.3915 cumulative IPC: 0.3896 (Simulation time: 04 hr 21 min 35 sec)
Heartbeat CPU 0 instructions: 1030000155 cycles: 2643921406 heartbeat IPC: 0.3911 cumulative IPC: 0.3896 (Simulation time: 04 hr 23 min 44 sec)
Heartbeat CPU 0 instructions: 1040000157 cycles: 2669490213 heartbeat IPC: 0.3911 cumulative IPC: 0.3896 (Simulation time: 04 hr 26 min 22 sec)
Heartbeat CPU 0 instructions: 1050000160 cycles: 2695041316 heartbeat IPC: 0.3914 cumulative IPC: 0.3896 (Simulation time: 04 hr 28 min 57 sec)
Heartbeat CPU 0 instructions: 1060000161 cycles: 2720613903 heartbeat IPC: 0.391 cumulative IPC: 0.3896 (Simulation time: 04 hr 31 min 09 sec)
Heartbeat CPU 0 instructions: 1070000162 cycles: 2746170866 heartbeat IPC: 0.3913 cumulative IPC: 0.3896 (Simulation time: 04 hr 33 min 40 sec)
Heartbeat CPU 0 instructions: 1080000163 cycles: 2771743039 heartbeat IPC: 0.3911 cumulative IPC: 0.3896 (Simulation time: 04 hr 36 min 17 sec)
Heartbeat CPU 0 instructions: 1090000163 cycles: 2797314264 heartbeat IPC: 0.3911 cumulative IPC: 0.3897 (Simulation time: 04 hr 38 min 54 sec)
Heartbeat CPU 0 instructions: 1100000164 cycles: 2822923922 heartbeat IPC: 0.3905 cumulative IPC: 0.3897 (Simulation time: 04 hr 40 min 52 sec)
Heartbeat CPU 0 instructions: 1110000164 cycles: 2848508207 heartbeat IPC: 0.3909 cumulative IPC: 0.3897 (Simulation time: 04 hr 42 min 51 sec)
Heartbeat CPU 0 instructions: 1120000166 cycles: 2874075394 heartbeat IPC: 0.3911 cumulative IPC: 0.3897 (Simulation time: 04 hr 44 min 46 sec)
Heartbeat CPU 0 instructions: 1130000166 cycles: 2899635439 heartbeat IPC: 0.3912 cumulative IPC: 0.3897 (Simulation time: 04 hr 47 min 19 sec)
Heartbeat CPU 0 instructions: 1140000169 cycles: 2925189640 heartbeat IPC: 0.3913 cumulative IPC: 0.3897 (Simulation time: 04 hr 49 min 36 sec)
Heartbeat CPU 0 instructions: 1150000169 cycles: 2950814296 heartbeat IPC: 0.3902 cumulative IPC: 0.3897 (Simulation time: 04 hr 51 min 53 sec)
Heartbeat CPU 0 instructions: 1160000171 cycles: 2976390685 heartbeat IPC: 0.391 cumulative IPC: 0.3897 (Simulation time: 04 hr 53 min 59 sec)
Heartbeat CPU 0 instructions: 1170000172 cycles: 3001744563 heartbeat IPC: 0.3944 cumulative IPC: 0.3898 (Simulation time: 04 hr 56 min 35 sec)
Heartbeat CPU 0 instructions: 1180000173 cycles: 3027263539 heartbeat IPC: 0.3919 cumulative IPC: 0.3898 (Simulation time: 04 hr 58 min 41 sec)
Heartbeat CPU 0 instructions: 1190000173 cycles: 3052831137 heartbeat IPC: 0.3911 cumulative IPC: 0.3898 (Simulation time: 05 hr 01 min 18 sec)
Heartbeat CPU 0 instructions: 1200000173 cycles: 3078375115 heartbeat IPC: 0.3915 cumulative IPC: 0.3898 (Simulation time: 05 hr 03 min 55 sec)
Heartbeat CPU 0 instructions: 1210000174 cycles: 3103943922 heartbeat IPC: 0.3911 cumulative IPC: 0.3898 (Simulation time: 05 hr 06 min 33 sec)
Heartbeat CPU 0 instructions: 1220000178 cycles: 3129502006 heartbeat IPC: 0.3913 cumulative IPC: 0.3898 (Simulation time: 05 hr 09 min 11 sec)
Heartbeat CPU 0 instructions: 1230000181 cycles: 3154946599 heartbeat IPC: 0.393 cumulative IPC: 0.3899 (Simulation time: 05 hr 11 min 40 sec)
Heartbeat CPU 0 instructions: 1240000182 cycles: 3180471572 heartbeat IPC: 0.3918 cumulative IPC: 0.3899 (Simulation time: 05 hr 13 min 44 sec)
Heartbeat CPU 0 instructions: 1250000185 cycles: 3206030635 heartbeat IPC: 0.3913 cumulative IPC: 0.3899 (Simulation time: 05 hr 16 min 21 sec)
Heartbeat CPU 0 instructions: 1260000185 cycles: 3231508309 heartbeat IPC: 0.3925 cumulative IPC: 0.3899 (Simulation time: 05 hr 18 min 57 sec)
Heartbeat CPU 0 instructions: 1270000185 cycles: 3257072245 heartbeat IPC: 0.3912 cumulative IPC: 0.3899 (Simulation time: 05 hr 21 min 32 sec)
Heartbeat CPU 0 instructions: 1280000186 cycles: 3282720659 heartbeat IPC: 0.3899 cumulative IPC: 0.3899 (Simulation time: 05 hr 24 min 08 sec)
Heartbeat CPU 0 instructions: 1290000186 cycles: 3308403798 heartbeat IPC: 0.3894 cumulative IPC: 0.3899 (Simulation time: 05 hr 26 min 45 sec)
Heartbeat CPU 0 instructions: 1300000190 cycles: 3334010286 heartbeat IPC: 0.3905 cumulative IPC: 0.3899 (Simulation time: 05 hr 29 min 21 sec)
Heartbeat CPU 0 instructions: 1310000190 cycles: 3359687735 heartbeat IPC: 0.3894 cumulative IPC: 0.3899 (Simulation time: 05 hr 31 min 58 sec)
Heartbeat CPU 0 instructions: 1320000190 cycles: 3385348686 heartbeat IPC: 0.3897 cumulative IPC: 0.3899 (Simulation time: 05 hr 33 min 52 sec)
Heartbeat CPU 0 instructions: 1330000190 cycles: 3411015331 heartbeat IPC: 0.3896 cumulative IPC: 0.3899 (Simulation time: 05 hr 35 min 51 sec)
Heartbeat CPU 0 instructions: 1340000190 cycles: 3436594480 heartbeat IPC: 0.3909 cumulative IPC: 0.3899 (Simulation time: 05 hr 37 min 56 sec)
Heartbeat CPU 0 instructions: 1350000192 cycles: 3462134346 heartbeat IPC: 0.3915 cumulative IPC: 0.3899 (Simulation time: 05 hr 40 min 31 sec)
Heartbeat CPU 0 instructions: 1360000193 cycles: 3487669092 heartbeat IPC: 0.3916 cumulative IPC: 0.3899 (Simulation time: 05 hr 42 min 54 sec)
Heartbeat CPU 0 instructions: 1370000194 cycles: 3513275070 heartbeat IPC: 0.3905 cumulative IPC: 0.3899 (Simulation time: 05 hr 44 min 52 sec)
Heartbeat CPU 0 instructions: 1380000197 cycles: 3538877096 heartbeat IPC: 0.3906 cumulative IPC: 0.39 (Simulation time: 05 hr 46 min 38 sec)
Heartbeat CPU 0 instructions: 1390000201 cycles: 3564424425 heartbeat IPC: 0.3914 cumulative IPC: 0.39 (Simulation time: 05 hr 48 min 20 sec)
Heartbeat CPU 0 instructions: 1400000204 cycles: 3590003558 heartbeat IPC: 0.3909 cumulative IPC: 0.39 (Simulation time: 05 hr 50 min 16 sec)
Heartbeat CPU 0 instructions: 1410000206 cycles: 3615612275 heartbeat IPC: 0.3905 cumulative IPC: 0.39 (Simulation time: 05 hr 52 min 10 sec)
Heartbeat CPU 0 instructions: 1420000206 cycles: 3641376634 heartbeat IPC: 0.3881 cumulative IPC: 0.39 (Simulation time: 05 hr 54 min 49 sec)
Heartbeat CPU 0 instructions: 1430000209 cycles: 3667252360 heartbeat IPC: 0.3865 cumulative IPC: 0.3899 (Simulation time: 05 hr 57 min 29 sec)
Heartbeat CPU 0 instructions: 1440000211 cycles: 3694816705 heartbeat IPC: 0.3628 cumulative IPC: 0.3897 (Simulation time: 06 hr 00 min 21 sec)
Heartbeat CPU 0 instructions: 1450000214 cycles: 3720165248 heartbeat IPC: 0.3945 cumulative IPC: 0.3898 (Simulation time: 06 hr 02 min 58 sec)
Heartbeat CPU 0 instructions: 1460000214 cycles: 3745766793 heartbeat IPC: 0.3906 cumulative IPC: 0.3898 (Simulation time: 06 hr 05 min 36 sec)
Heartbeat CPU 0 instructions: 1470000214 cycles: 3771358197 heartbeat IPC: 0.3908 cumulative IPC: 0.3898 (Simulation time: 06 hr 07 min 45 sec)
Heartbeat CPU 0 instructions: 1480000216 cycles: 3796956430 heartbeat IPC: 0.3907 cumulative IPC: 0.3898 (Simulation time: 06 hr 09 min 33 sec)
Heartbeat CPU 0 instructions: 1490000220 cycles: 3822533512 heartbeat IPC: 0.391 cumulative IPC: 0.3898 (Simulation time: 06 hr 11 min 55 sec)
Heartbeat CPU 0 instructions: 1500000220 cycles: 3848108807 heartbeat IPC: 0.391 cumulative IPC: 0.3898 (Simulation time: 06 hr 14 min 32 sec)
Heartbeat CPU 0 instructions: 1510000220 cycles: 3873656911 heartbeat IPC: 0.3914 cumulative IPC: 0.3898 (Simulation time: 06 hr 17 min 10 sec)
Heartbeat CPU 0 instructions: 1520000222 cycles: 3899297935 heartbeat IPC: 0.39 cumulative IPC: 0.3898 (Simulation time: 06 hr 19 min 47 sec)
Heartbeat CPU 0 instructions: 1530000222 cycles: 3924938130 heartbeat IPC: 0.39 cumulative IPC: 0.3898 (Simulation time: 06 hr 22 min 24 sec)
Heartbeat CPU 0 instructions: 1540000223 cycles: 3950466724 heartbeat IPC: 0.3917 cumulative IPC: 0.3898 (Simulation time: 06 hr 25 min 00 sec)
Heartbeat CPU 0 instructions: 1550000223 cycles: 3975846804 heartbeat IPC: 0.394 cumulative IPC: 0.3899 (Simulation time: 06 hr 27 min 37 sec)
Heartbeat CPU 0 instructions: 1560000225 cycles: 4001333533 heartbeat IPC: 0.3924 cumulative IPC: 0.3899 (Simulation time: 06 hr 30 min 13 sec)
Heartbeat CPU 0 instructions: 1570000225 cycles: 4026764005 heartbeat IPC: 0.3932 cumulative IPC: 0.3899 (Simulation time: 06 hr 32 min 43 sec)
Heartbeat CPU 0 instructions: 1580000227 cycles: 4052238763 heartbeat IPC: 0.3925 cumulative IPC: 0.3899 (Simulation time: 06 hr 34 min 23 sec)
Heartbeat CPU 0 instructions: 1590000231 cycles: 4077709207 heartbeat IPC: 0.3926 cumulative IPC: 0.3899 (Simulation time: 06 hr 36 min 22 sec)
Heartbeat CPU 0 instructions: 1600000231 cycles: 4103181353 heartbeat IPC: 0.3926 cumulative IPC: 0.3899 (Simulation time: 06 hr 38 min 10 sec)
Heartbeat CPU 0 instructions: 1610000231 cycles: 4128652029 heartbeat IPC: 0.3926 cumulative IPC: 0.39 (Simulation time: 06 hr 40 min 12 sec)
Heartbeat CPU 0 instructions: 1620000232 cycles: 4154130349 heartbeat IPC: 0.3925 cumulative IPC: 0.39 (Simulation time: 06 hr 42 min 40 sec)
Heartbeat CPU 0 instructions: 1630000233 cycles: 4179623008 heartbeat IPC: 0.3923 cumulative IPC: 0.39 (Simulation time: 06 hr 44 min 34 sec)
Heartbeat CPU 0 instructions: 1640000234 cycles: 4205106472 heartbeat IPC: 0.3924 cumulative IPC: 0.39 (Simulation time: 06 hr 46 min 46 sec)
Heartbeat CPU 0 instructions: 1650000235 cycles: 4230600907 heartbeat IPC: 0.3922 cumulative IPC: 0.39 (Simulation time: 06 hr 48 min 29 sec)
Heartbeat CPU 0 instructions: 1660000235 cycles: 4256077128 heartbeat IPC: 0.3925 cumulative IPC: 0.39 (Simulation time: 06 hr 50 min 11 sec)
Heartbeat CPU 0 instructions: 1670000235 cycles: 4281569004 heartbeat IPC: 0.3923 cumulative IPC: 0.39 (Simulation time: 06 hr 51 min 52 sec)
Heartbeat CPU 0 instructions: 1680000237 cycles: 4307044608 heartbeat IPC: 0.3925 cumulative IPC: 0.3901 (Simulation time: 06 hr 53 min 39 sec)
Heartbeat CPU 0 instructions: 1690000237 cycles: 4332545043 heartbeat IPC: 0.3922 cumulative IPC: 0.3901 (Simulation time: 06 hr 55 min 35 sec)
Heartbeat CPU 0 instructions: 1700000241 cycles: 4358018597 heartbeat IPC: 0.3926 cumulative IPC: 0.3901 (Simulation time: 06 hr 57 min 57 sec)
Heartbeat CPU 0 instructions: 1710000242 cycles: 4383477206 heartbeat IPC: 0.3928 cumulative IPC: 0.3901 (Simulation time: 06 hr 59 min 40 sec)
Heartbeat CPU 0 instructions: 1720000243 cycles: 4408929995 heartbeat IPC: 0.3929 cumulative IPC: 0.3901 (Simulation time: 07 hr 02 min 07 sec)
Heartbeat CPU 0 instructions: 1730000243 cycles: 4434421246 heartbeat IPC: 0.3923 cumulative IPC: 0.3901 (Simulation time: 07 hr 04 min 44 sec)
Heartbeat CPU 0 instructions: 1740000246 cycles: 4459901790 heartbeat IPC: 0.3925 cumulative IPC: 0.3901 (Simulation time: 07 hr 07 min 20 sec)
Heartbeat CPU 0 instructions: 1750000247 cycles: 4485376041 heartbeat IPC: 0.3926 cumulative IPC: 0.3902 (Simulation time: 07 hr 09 min 57 sec)
Heartbeat CPU 0 instructions: 1760000248 cycles: 4510863537 heartbeat IPC: 0.3923 cumulative IPC: 0.3902 (Simulation time: 07 hr 12 min 09 sec)
Heartbeat CPU 0 instructions: 1770000252 cycles: 4536341185 heartbeat IPC: 0.3925 cumulative IPC: 0.3902 (Simulation time: 07 hr 13 min 58 sec)
Heartbeat CPU 0 instructions: 1780000252 cycles: 4561818492 heartbeat IPC: 0.3925 cumulative IPC: 0.3902 (Simulation time: 07 hr 16 min 27 sec)
Heartbeat CPU 0 instructions: 1790000252 cycles: 4587303155 heartbeat IPC: 0.3924 cumulative IPC: 0.3902 (Simulation time: 07 hr 19 min 02 sec)
Heartbeat CPU 0 instructions: 1800000252 cycles: 4612811295 heartbeat IPC: 0.392 cumulative IPC: 0.3902 (Simulation time: 07 hr 21 min 37 sec)
Heartbeat CPU 0 instructions: 1810000253 cycles: 4638288177 heartbeat IPC: 0.3925 cumulative IPC: 0.3902 (Simulation time: 07 hr 24 min 10 sec)
Heartbeat CPU 0 instructions: 1820000255 cycles: 4663741773 heartbeat IPC: 0.3929 cumulative IPC: 0.3902 (Simulation time: 07 hr 26 min 03 sec)
Heartbeat CPU 0 instructions: 1830000257 cycles: 4689236908 heartbeat IPC: 0.3922 cumulative IPC: 0.3903 (Simulation time: 07 hr 27 min 50 sec)
Heartbeat CPU 0 instructions: 1840000259 cycles: 4714699223 heartbeat IPC: 0.3927 cumulative IPC: 0.3903 (Simulation time: 07 hr 30 min 02 sec)
Heartbeat CPU 0 instructions: 1850000259 cycles: 4740170614 heartbeat IPC: 0.3926 cumulative IPC: 0.3903 (Simulation time: 07 hr 32 min 30 sec)
Heartbeat CPU 0 instructions: 1860000262 cycles: 4765652251 heartbeat IPC: 0.3924 cumulative IPC: 0.3903 (Simulation time: 07 hr 34 min 55 sec)
Heartbeat CPU 0 instructions: 1870000263 cycles: 4791133353 heartbeat IPC: 0.3924 cumulative IPC: 0.3903 (Simulation time: 07 hr 37 min 34 sec)
Heartbeat CPU 0 instructions: 1880000264 cycles: 4816635241 heartbeat IPC: 0.3921 cumulative IPC: 0.3903 (Simulation time: 07 hr 39 min 59 sec)
Heartbeat CPU 0 instructions: 1890000267 cycles: 4842115178 heartbeat IPC: 0.3925 cumulative IPC: 0.3903 (Simulation time: 07 hr 42 min 09 sec)
Heartbeat CPU 0 instructions: 1900000271 cycles: 4867609310 heartbeat IPC: 0.3922 cumulative IPC: 0.3903 (Simulation time: 07 hr 44 min 24 sec)
Heartbeat CPU 0 instructions: 1910000274 cycles: 4893096889 heartbeat IPC: 0.3923 cumulative IPC: 0.3903 (Simulation time: 07 hr 46 min 29 sec)
Heartbeat CPU 0 instructions: 1920000278 cycles: 4918527181 heartbeat IPC: 0.3932 cumulative IPC: 0.3904 (Simulation time: 07 hr 48 min 23 sec)
Heartbeat CPU 0 instructions: 1930000280 cycles: 4944016233 heartbeat IPC: 0.3923 cumulative IPC: 0.3904 (Simulation time: 07 hr 50 min 35 sec)
Heartbeat CPU 0 instructions: 1940000280 cycles: 4969500266 heartbeat IPC: 0.3924 cumulative IPC: 0.3904 (Simulation time: 07 hr 53 min 13 sec)
Heartbeat CPU 0 instructions: 1950000281 cycles: 4994948738 heartbeat IPC: 0.393 cumulative IPC: 0.3904 (Simulation time: 07 hr 55 min 48 sec)
Heartbeat CPU 0 instructions: 1960000284 cycles: 5020412276 heartbeat IPC: 0.3927 cumulative IPC: 0.3904 (Simulation time: 07 hr 58 min 24 sec)
Heartbeat CPU 0 instructions: 1970000284 cycles: 5045865721 heartbeat IPC: 0.3929 cumulative IPC: 0.3904 (Simulation time: 08 hr 01 min 01 sec)
Heartbeat CPU 0 instructions: 1980000285 cycles: 5071359010 heartbeat IPC: 0.3923 cumulative IPC: 0.3904 (Simulation time: 08 hr 03 min 38 sec)
Heartbeat CPU 0 instructions: 1990000285 cycles: 5096856339 heartbeat IPC: 0.3922 cumulative IPC: 0.3904 (Simulation time: 08 hr 06 min 16 sec)

=== ERROR PAGE STATISTICS ===
Mode: CYCLE
Error Cycle Interval: 7053240154 CPU cycles
Total Error Accesses: 0
==============================
Simulation finished CPU 0 instructions: 1999999981 cycles: 5122332057 cumulative IPC: 0.3904 (Simulation time: 08 hr 08 min 53 sec)
Simulation complete CPU 0 instructions: 1999999981 cycles: 5122332057 cumulative IPC: 0.3904 (Simulation time: 08 hr 08 min 53 sec)

ChampSim completed all CPUs

=== Simulation ===
CPU 0 runs test_traces/602.gcc_s-1850B.champsimtrace.xz

Region of Interest Statistics

CPU 0 cumulative IPC: 0.3904 instructions: 1999999981 cycles: 5122332057
CPU 0 Branch Prediction Accuracy: 92.26% MPKI: 19.84 Average ROB Occupancy at Mispredict: 28.45
Branch type MPKI
BRANCH_DIRECT_JUMP: 0.0104
BRANCH_INDIRECT: 0
BRANCH_CONDITIONAL: 19.83
BRANCH_DIRECT_CALL: 8.5e-06
BRANCH_INDIRECT_CALL: 0
BRANCH_RETURN: 7e-06

cpu0->cpu0_STLB TOTAL        ACCESS:      15986 HIT:      12647 MISS:       3339 MSHR_MERGE:          0
cpu0->cpu0_STLB LOAD         ACCESS:      15986 HIT:      12647 MISS:       3339 MSHR_MERGE:          0
cpu0->cpu0_STLB RFO          ACCESS:          0 HIT:          0 MISS:          0 MSHR_MERGE:          0
cpu0->cpu0_STLB PREFETCH     ACCESS:          0 HIT:          0 MISS:          0 MSHR_MERGE:          0
cpu0->cpu0_STLB WRITE        ACCESS:          0 HIT:          0 MISS:          0 MSHR_MERGE:          0
cpu0->cpu0_STLB TRANSLATION  ACCESS:          0 HIT:          0 MISS:          0 MSHR_MERGE:          0
cpu0->cpu0_STLB PREFETCH REQUESTED:          0 ISSUED:          0 USEFUL:          0 USELESS:          0
cpu0->cpu0_STLB AVERAGE MISS LATENCY: 6450 cycles
cpu0->cpu0_L2C TOTAL        ACCESS:   48249161 HIT:   12598011 MISS:   35651150 MSHR_MERGE:          0
cpu0->cpu0_L2C LOAD         ACCESS:   48104278 HIT:   12470011 MISS:   35634267 MSHR_MERGE:          0
cpu0->cpu0_L2C RFO          ACCESS:      16945 HIT:        111 MISS:      16834 MSHR_MERGE:          0
cpu0->cpu0_L2C PREFETCH     ACCESS:          0 HIT:          0 MISS:          0 MSHR_MERGE:          0
cpu0->cpu0_L2C WRITE        ACCESS:     127938 HIT:     127889 MISS:         49 MSHR_MERGE:          0
cpu0->cpu0_L2C TRANSLATION  ACCESS:          0 HIT:          0 MISS:          0 MSHR_MERGE:          0
cpu0->cpu0_L2C PREFETCH REQUESTED:          0 ISSUED:          0 USEFUL:          0 USELESS:          0
cpu0->cpu0_L2C AVERAGE MISS LATENCY: 91.38 cycles
cpu0->cpu0_L1I TOTAL        ACCESS:      78277 HIT:      78217 MISS:         60 MSHR_MERGE:          3
cpu0->cpu0_L1I LOAD         ACCESS:      78277 HIT:      78217 MISS:         60 MSHR_MERGE:          3
cpu0->cpu0_L1I RFO          ACCESS:          0 HIT:          0 MISS:          0 MSHR_MERGE:          0
cpu0->cpu0_L1I PREFETCH     ACCESS:          0 HIT:          0 MISS:          0 MSHR_MERGE:          0
cpu0->cpu0_L1I WRITE        ACCESS:          0 HIT:          0 MISS:          0 MSHR_MERGE:          0
cpu0->cpu0_L1I TRANSLATION  ACCESS:          0 HIT:          0 MISS:          0 MSHR_MERGE:          0
cpu0->cpu0_L1I PREFETCH REQUESTED:          0 ISSUED:          0 USEFUL:          0 USELESS:          0
cpu0->cpu0_L1I AVERAGE MISS LATENCY: 112.7 cycles
cpu0->cpu0_L1D TOTAL        ACCESS:  605689864 HIT:  522317691 MISS:   83372173 MSHR_MERGE:   35251007
cpu0->cpu0_L1D LOAD         ACCESS:  433067308 HIT:  349712520 MISS:   83354788 MSHR_MERGE:   35250567
cpu0->cpu0_L1D RFO          ACCESS:          0 HIT:          0 MISS:          0 MSHR_MERGE:          0
cpu0->cpu0_L1D PREFETCH     ACCESS:          0 HIT:          0 MISS:          0 MSHR_MERGE:          0
cpu0->cpu0_L1D WRITE        ACCESS:  172622556 HIT:  172605171 MISS:      17385 MSHR_MERGE:        440
cpu0->cpu0_L1D TRANSLATION  ACCESS:          0 HIT:          0 MISS:          0 MSHR_MERGE:          0
cpu0->cpu0_L1D PREFETCH REQUESTED:          0 ISSUED:          0 USEFUL:          0 USELESS:          0
cpu0->cpu0_L1D AVERAGE MISS LATENCY: 76.44 cycles
cpu0->cpu0_ITLB TOTAL        ACCESS:      73601 HIT:      73598 MISS:          3 MSHR_MERGE:          1
cpu0->cpu0_ITLB LOAD         ACCESS:      73601 HIT:      73598 MISS:          3 MSHR_MERGE:          1
cpu0->cpu0_ITLB RFO          ACCESS:          0 HIT:          0 MISS:          0 MSHR_MERGE:          0
cpu0->cpu0_ITLB PREFETCH     ACCESS:          0 HIT:          0 MISS:          0 MSHR_MERGE:          0
cpu0->cpu0_ITLB WRITE        ACCESS:          0 HIT:          0 MISS:          0 MSHR_MERGE:          0
cpu0->cpu0_ITLB TRANSLATION  ACCESS:          0 HIT:          0 MISS:          0 MSHR_MERGE:          0
cpu0->cpu0_ITLB PREFETCH REQUESTED:          0 ISSUED:          0 USEFUL:          0 USELESS:          0
cpu0->cpu0_ITLB AVERAGE MISS LATENCY: 1.293e+04 cycles
cpu0->cpu0_DTLB TOTAL        ACCESS:  551964297 HIT:  551939599 MISS:      24698 MSHR_MERGE:       8714
cpu0->cpu0_DTLB LOAD         ACCESS:  551964297 HIT:  551939599 MISS:      24698 MSHR_MERGE:       8714
cpu0->cpu0_DTLB RFO          ACCESS:          0 HIT:          0 MISS:          0 MSHR_MERGE:          0
cpu0->cpu0_DTLB PREFETCH     ACCESS:          0 HIT:          0 MISS:          0 MSHR_MERGE:          0
cpu0->cpu0_DTLB WRITE        ACCESS:          0 HIT:          0 MISS:          0 MSHR_MERGE:          0
cpu0->cpu0_DTLB TRANSLATION  ACCESS:          0 HIT:          0 MISS:          0 MSHR_MERGE:          0
cpu0->cpu0_DTLB PREFETCH REQUESTED:          0 ISSUED:          0 USEFUL:          0 USELESS:          0
cpu0->cpu0_DTLB AVERAGE MISS LATENCY: 1351 cycles
cpu0->LLC TOTAL        ACCESS:   35701266 HIT:     113972 MISS:   35587294 MSHR_MERGE:          0
cpu0->LLC LOAD         ACCESS:   35634267 HIT:      63993 MISS:   35570274 MSHR_MERGE:          0
cpu0->LLC RFO          ACCESS:      16834 HIT:         95 MISS:      16739 MSHR_MERGE:          0
cpu0->LLC PREFETCH     ACCESS:          0 HIT:          0 MISS:          0 MSHR_MERGE:          0
cpu0->LLC WRITE        ACCESS:      50165 HIT:      49884 MISS:        281 MSHR_MERGE:          0
cpu0->LLC TRANSLATION  ACCESS:          0 HIT:          0 MISS:          0 MSHR_MERGE:          0
cpu0->LLC PREFETCH REQUESTED:          0 ISSUED:          0 USEFUL:          0 USELESS:          0
cpu0->LLC AVERAGE MISS LATENCY: 75.51 cycles

DRAM Statistics

Channel 0 RQ ROW_BUFFER_HIT:    3612915
  ROW_BUFFER_MISS:   14184703
  AVG DBUS CONGESTED CYCLE: 13.85
Channel 0 WQ ROW_BUFFER_HIT:       3408
  ROW_BUFFER_MISS:      21778
  FULL:          0
Channel 0 REFRESHES ISSUED:     426833

Channel 1 RQ ROW_BUFFER_HIT:    3613579
  ROW_BUFFER_MISS:   14182505
  AVG DBUS CONGESTED CYCLE: 13.73
Channel 1 WQ ROW_BUFFER_HIT:       3277
  ROW_BUFFER_MISS:      21620
  FULL:          0
Channel 1 REFRESHES ISSUED:     426833
