[VMEM] WARNING: physical memory size is smaller than virtual memory size.

*** ChampSim Multicore Out-of-Order Simulator ***
Warmup Instructions: 0
Simulation Instructions: 9223372036854775807
Number of CPUs: 1
Page size: 4096

Off-chip DRAM Size: 32 GiB Channels: 2 Width: 32-bit Data Rate: 4807 MT/s
[ERROR_PAGE_MANAGER] Error latency: 0 
[ERROR_PAGE_MANAGER] Random seed: 54321 (fixed for preload reproducibility)
[ERROR_PAGE_MANAGER] Error pages off

=== ERROR PAGE STATISTICS ===
Mode: OFF
Total Error Accesses: 0
==============================
Warmup finished CPU 0 instructions: 0 cycles: 1 cumulative IPC: 0 (Simulation time: 00 hr 00 min 01 sec)
Warmup complete CPU 0 instructions: 0 cycles: 1 cumulative IPC: 0 (Simulation time: 00 hr 00 min 01 sec)
Heartbeat CPU 0 instructions: 10000003 cycles: 30922192 heartbeat IPC: 0.3234 cumulative IPC: 0.3234 (Simulation time: 00 hr 03 min 01 sec)
Heartbeat CPU 0 instructions: 20000007 cycles: 58526506 heartbeat IPC: 0.3623 cumulative IPC: 0.3417 (Simulation time: 00 hr 05 min 54 sec)
Heartbeat CPU 0 instructions: 30000008 cycles: 84229949 heartbeat IPC: 0.3891 cumulative IPC: 0.3562 (Simulation time: 00 hr 08 min 36 sec)
Heartbeat CPU 0 instructions: 40000008 cycles: 110147600 heartbeat IPC: 0.3858 cumulative IPC: 0.3631 (Simulation time: 00 hr 10 min 40 sec)
Heartbeat CPU 0 instructions: 50000008 cycles: 135551465 heartbeat IPC: 0.3936 cumulative IPC: 0.3689 (Simulation time: 00 hr 12 min 46 sec)
Heartbeat CPU 0 instructions: 60000011 cycles: 159688897 heartbeat IPC: 0.4143 cumulative IPC: 0.3757 (Simulation time: 00 hr 14 min 42 sec)
Heartbeat CPU 0 instructions: 70000011 cycles: 184113498 heartbeat IPC: 0.4094 cumulative IPC: 0.3802 (Simulation time: 00 hr 16 min 44 sec)
Heartbeat CPU 0 instructions: 80000012 cycles: 208215943 heartbeat IPC: 0.4149 cumulative IPC: 0.3842 (Simulation time: 00 hr 19 min 11 sec)
Heartbeat CPU 0 instructions: 90000013 cycles: 232008496 heartbeat IPC: 0.4203 cumulative IPC: 0.3879 (Simulation time: 00 hr 21 min 31 sec)
Heartbeat CPU 0 instructions: 100000016 cycles: 255569788 heartbeat IPC: 0.4244 cumulative IPC: 0.3913 (Simulation time: 00 hr 23 min 29 sec)
Heartbeat CPU 0 instructions: 110000018 cycles: 279121212 heartbeat IPC: 0.4246 cumulative IPC: 0.3941 (Simulation time: 00 hr 25 min 56 sec)
Heartbeat CPU 0 instructions: 120000018 cycles: 302561820 heartbeat IPC: 0.4266 cumulative IPC: 0.3966 (Simulation time: 00 hr 28 min 29 sec)
Heartbeat CPU 0 instructions: 130000018 cycles: 326664232 heartbeat IPC: 0.4149 cumulative IPC: 0.398 (Simulation time: 00 hr 31 min 07 sec)
Heartbeat CPU 0 instructions: 140000020 cycles: 350296285 heartbeat IPC: 0.4232 cumulative IPC: 0.3997 (Simulation time: 00 hr 33 min 15 sec)
Heartbeat CPU 0 instructions: 150000021 cycles: 374306764 heartbeat IPC: 0.4165 cumulative IPC: 0.4007 (Simulation time: 00 hr 35 min 49 sec)
Heartbeat CPU 0 instructions: 160000021 cycles: 397998940 heartbeat IPC: 0.4221 cumulative IPC: 0.402 (Simulation time: 00 hr 37 min 59 sec)
Heartbeat CPU 0 instructions: 170000021 cycles: 421506335 heartbeat IPC: 0.4254 cumulative IPC: 0.4033 (Simulation time: 00 hr 39 min 50 sec)
Heartbeat CPU 0 instructions: 180000024 cycles: 444991113 heartbeat IPC: 0.4258 cumulative IPC: 0.4045 (Simulation time: 00 hr 42 min 22 sec)
Heartbeat CPU 0 instructions: 190000028 cycles: 468328156 heartbeat IPC: 0.4285 cumulative IPC: 0.4057 (Simulation time: 00 hr 44 min 49 sec)
Heartbeat CPU 0 instructions: 200000029 cycles: 492544571 heartbeat IPC: 0.4129 cumulative IPC: 0.4061 (Simulation time: 00 hr 47 min 24 sec)
Heartbeat CPU 0 instructions: 210000033 cycles: 516395093 heartbeat IPC: 0.4193 cumulative IPC: 0.4067 (Simulation time: 00 hr 49 min 43 sec)
Heartbeat CPU 0 instructions: 220000035 cycles: 540143074 heartbeat IPC: 0.4211 cumulative IPC: 0.4073 (Simulation time: 00 hr 52 min 17 sec)
Heartbeat CPU 0 instructions: 230000036 cycles: 564108972 heartbeat IPC: 0.4173 cumulative IPC: 0.4077 (Simulation time: 00 hr 54 min 17 sec)
Heartbeat CPU 0 instructions: 240000036 cycles: 588133537 heartbeat IPC: 0.4162 cumulative IPC: 0.4081 (Simulation time: 00 hr 56 min 39 sec)
Heartbeat CPU 0 instructions: 250000038 cycles: 610941289 heartbeat IPC: 0.4384 cumulative IPC: 0.4092 (Simulation time: 00 hr 59 min 04 sec)
Heartbeat CPU 0 instructions: 260000038 cycles: 634069551 heartbeat IPC: 0.4324 cumulative IPC: 0.41 (Simulation time: 01 hr 01 min 18 sec)
Heartbeat CPU 0 instructions: 270000038 cycles: 657656604 heartbeat IPC: 0.424 cumulative IPC: 0.4105 (Simulation time: 01 hr 03 min 38 sec)
Heartbeat CPU 0 instructions: 280000041 cycles: 682305338 heartbeat IPC: 0.4057 cumulative IPC: 0.4104 (Simulation time: 01 hr 06 min 16 sec)
Heartbeat CPU 0 instructions: 290000043 cycles: 706280082 heartbeat IPC: 0.4171 cumulative IPC: 0.4106 (Simulation time: 01 hr 08 min 49 sec)
Heartbeat CPU 0 instructions: 300000044 cycles: 729224631 heartbeat IPC: 0.4358 cumulative IPC: 0.4114 (Simulation time: 01 hr 10 min 42 sec)
Heartbeat CPU 0 instructions: 310000044 cycles: 753387198 heartbeat IPC: 0.4139 cumulative IPC: 0.4115 (Simulation time: 01 hr 13 min 18 sec)
Heartbeat CPU 0 instructions: 320000046 cycles: 777150996 heartbeat IPC: 0.4208 cumulative IPC: 0.4118 (Simulation time: 01 hr 15 min 45 sec)
Heartbeat CPU 0 instructions: 330000046 cycles: 800694249 heartbeat IPC: 0.4248 cumulative IPC: 0.4121 (Simulation time: 01 hr 17 min 54 sec)
Heartbeat CPU 0 instructions: 340000050 cycles: 822692526 heartbeat IPC: 0.4546 cumulative IPC: 0.4133 (Simulation time: 01 hr 19 min 58 sec)
Heartbeat CPU 0 instructions: 350000050 cycles: 846132253 heartbeat IPC: 0.4266 cumulative IPC: 0.4136 (Simulation time: 01 hr 21 min 41 sec)
Heartbeat CPU 0 instructions: 360000051 cycles: 868994235 heartbeat IPC: 0.4374 cumulative IPC: 0.4143 (Simulation time: 01 hr 23 min 46 sec)
Heartbeat CPU 0 instructions: 370000052 cycles: 892155652 heartbeat IPC: 0.4318 cumulative IPC: 0.4147 (Simulation time: 01 hr 26 min 01 sec)
Heartbeat CPU 0 instructions: 380000054 cycles: 915112975 heartbeat IPC: 0.4356 cumulative IPC: 0.4152 (Simulation time: 01 hr 28 min 30 sec)
Heartbeat CPU 0 instructions: 390000058 cycles: 938074103 heartbeat IPC: 0.4355 cumulative IPC: 0.4157 (Simulation time: 01 hr 30 min 58 sec)
Heartbeat CPU 0 instructions: 400000059 cycles: 961089797 heartbeat IPC: 0.4345 cumulative IPC: 0.4162 (Simulation time: 01 hr 33 min 26 sec)
Heartbeat CPU 0 instructions: 410000059 cycles: 984029836 heartbeat IPC: 0.4359 cumulative IPC: 0.4167 (Simulation time: 01 hr 35 min 56 sec)
Heartbeat CPU 0 instructions: 420000062 cycles: 1007458706 heartbeat IPC: 0.4268 cumulative IPC: 0.4169 (Simulation time: 01 hr 38 min 19 sec)
Heartbeat CPU 0 instructions: 430000065 cycles: 1030853391 heartbeat IPC: 0.4274 cumulative IPC: 0.4171 (Simulation time: 01 hr 40 min 41 sec)
Heartbeat CPU 0 instructions: 440000068 cycles: 1054516760 heartbeat IPC: 0.4226 cumulative IPC: 0.4173 (Simulation time: 01 hr 42 min 51 sec)
Heartbeat CPU 0 instructions: 450000068 cycles: 1078161325 heartbeat IPC: 0.4229 cumulative IPC: 0.4174 (Simulation time: 01 hr 45 min 16 sec)
Heartbeat CPU 0 instructions: 460000068 cycles: 1101439609 heartbeat IPC: 0.4296 cumulative IPC: 0.4176 (Simulation time: 01 hr 47 min 50 sec)
Heartbeat CPU 0 instructions: 470000068 cycles: 1124775681 heartbeat IPC: 0.4285 cumulative IPC: 0.4179 (Simulation time: 01 hr 49 min 44 sec)
Heartbeat CPU 0 instructions: 480000068 cycles: 1148157008 heartbeat IPC: 0.4277 cumulative IPC: 0.4181 (Simulation time: 01 hr 52 min 01 sec)
Heartbeat CPU 0 instructions: 490000071 cycles: 1172995493 heartbeat IPC: 0.4026 cumulative IPC: 0.4177 (Simulation time: 01 hr 54 min 41 sec)
Heartbeat CPU 0 instructions: 500000071 cycles: 1196160683 heartbeat IPC: 0.4317 cumulative IPC: 0.418 (Simulation time: 01 hr 57 min 14 sec)
Heartbeat CPU 0 instructions: 510000075 cycles: 1220128476 heartbeat IPC: 0.4172 cumulative IPC: 0.418 (Simulation time: 01 hr 59 min 55 sec)
Heartbeat CPU 0 instructions: 520000078 cycles: 1243769446 heartbeat IPC: 0.423 cumulative IPC: 0.4181 (Simulation time: 02 hr 02 min 31 sec)
Heartbeat CPU 0 instructions: 530000080 cycles: 1267147176 heartbeat IPC: 0.4278 cumulative IPC: 0.4183 (Simulation time: 02 hr 05 min 07 sec)
Heartbeat CPU 0 instructions: 540000080 cycles: 1291489381 heartbeat IPC: 0.4108 cumulative IPC: 0.4181 (Simulation time: 02 hr 07 min 47 sec)
Heartbeat CPU 0 instructions: 550000081 cycles: 1315503742 heartbeat IPC: 0.4164 cumulative IPC: 0.4181 (Simulation time: 02 hr 09 min 32 sec)
Heartbeat CPU 0 instructions: 560000082 cycles: 1339140659 heartbeat IPC: 0.4231 cumulative IPC: 0.4182 (Simulation time: 02 hr 11 min 43 sec)
Heartbeat CPU 0 instructions: 570000082 cycles: 1363281204 heartbeat IPC: 0.4142 cumulative IPC: 0.4181 (Simulation time: 02 hr 13 min 57 sec)
Heartbeat CPU 0 instructions: 580000083 cycles: 1386840400 heartbeat IPC: 0.4245 cumulative IPC: 0.4182 (Simulation time: 02 hr 15 min 45 sec)
Heartbeat CPU 0 instructions: 590000085 cycles: 1410934622 heartbeat IPC: 0.415 cumulative IPC: 0.4182 (Simulation time: 02 hr 17 min 49 sec)
Heartbeat CPU 0 instructions: 600000086 cycles: 1434294168 heartbeat IPC: 0.4281 cumulative IPC: 0.4183 (Simulation time: 02 hr 20 min 10 sec)
Heartbeat CPU 0 instructions: 610000086 cycles: 1457907323 heartbeat IPC: 0.4235 cumulative IPC: 0.4184 (Simulation time: 02 hr 22 min 06 sec)
Heartbeat CPU 0 instructions: 620000090 cycles: 1482106068 heartbeat IPC: 0.4132 cumulative IPC: 0.4183 (Simulation time: 02 hr 24 min 19 sec)
Heartbeat CPU 0 instructions: 630000093 cycles: 1505905745 heartbeat IPC: 0.4202 cumulative IPC: 0.4184 (Simulation time: 02 hr 26 min 34 sec)
Heartbeat CPU 0 instructions: 640000095 cycles: 1530199217 heartbeat IPC: 0.4116 cumulative IPC: 0.4182 (Simulation time: 02 hr 29 min 01 sec)
Heartbeat CPU 0 instructions: 650000098 cycles: 1554183275 heartbeat IPC: 0.4169 cumulative IPC: 0.4182 (Simulation time: 02 hr 31 min 40 sec)
Heartbeat CPU 0 instructions: 660000100 cycles: 1577922068 heartbeat IPC: 0.4213 cumulative IPC: 0.4183 (Simulation time: 02 hr 34 min 17 sec)
Heartbeat CPU 0 instructions: 670000101 cycles: 1601307693 heartbeat IPC: 0.4276 cumulative IPC: 0.4184 (Simulation time: 02 hr 36 min 49 sec)
Heartbeat CPU 0 instructions: 680000104 cycles: 1624778215 heartbeat IPC: 0.4261 cumulative IPC: 0.4185 (Simulation time: 02 hr 38 min 32 sec)
Heartbeat CPU 0 instructions: 690000108 cycles: 1648330085 heartbeat IPC: 0.4246 cumulative IPC: 0.4186 (Simulation time: 02 hr 40 min 25 sec)
Heartbeat CPU 0 instructions: 700000111 cycles: 1671751922 heartbeat IPC: 0.427 cumulative IPC: 0.4187 (Simulation time: 02 hr 42 min 54 sec)
Heartbeat CPU 0 instructions: 710000111 cycles: 1695505697 heartbeat IPC: 0.421 cumulative IPC: 0.4188 (Simulation time: 02 hr 45 min 30 sec)
Heartbeat CPU 0 instructions: 720000111 cycles: 1719454752 heartbeat IPC: 0.4176 cumulative IPC: 0.4187 (Simulation time: 02 hr 48 min 07 sec)
Heartbeat CPU 0 instructions: 730000112 cycles: 1742739488 heartbeat IPC: 0.4295 cumulative IPC: 0.4189 (Simulation time: 02 hr 50 min 40 sec)
Heartbeat CPU 0 instructions: 740000114 cycles: 1766334406 heartbeat IPC: 0.4238 cumulative IPC: 0.4189 (Simulation time: 02 hr 53 min 15 sec)
Heartbeat CPU 0 instructions: 750000114 cycles: 1789737506 heartbeat IPC: 0.4273 cumulative IPC: 0.4191 (Simulation time: 02 hr 55 min 49 sec)
Heartbeat CPU 0 instructions: 760000117 cycles: 1813265029 heartbeat IPC: 0.425 cumulative IPC: 0.4191 (Simulation time: 02 hr 58 min 09 sec)
Heartbeat CPU 0 instructions: 770000119 cycles: 1836071007 heartbeat IPC: 0.4385 cumulative IPC: 0.4194 (Simulation time: 02 hr 59 min 47 sec)
Heartbeat CPU 0 instructions: 780000119 cycles: 1859282836 heartbeat IPC: 0.4308 cumulative IPC: 0.4195 (Simulation time: 03 hr 01 min 26 sec)
Heartbeat CPU 0 instructions: 790000119 cycles: 1882937421 heartbeat IPC: 0.4228 cumulative IPC: 0.4196 (Simulation time: 03 hr 03 min 11 sec)
Heartbeat CPU 0 instructions: 800000119 cycles: 1905875221 heartbeat IPC: 0.436 cumulative IPC: 0.4198 (Simulation time: 03 hr 05 min 39 sec)
Heartbeat CPU 0 instructions: 810000119 cycles: 1929599962 heartbeat IPC: 0.4215 cumulative IPC: 0.4198 (Simulation time: 03 hr 08 min 16 sec)
Heartbeat CPU 0 instructions: 820000120 cycles: 1953085750 heartbeat IPC: 0.4258 cumulative IPC: 0.4198 (Simulation time: 03 hr 10 min 21 sec)
Heartbeat CPU 0 instructions: 830000122 cycles: 1976341684 heartbeat IPC: 0.43 cumulative IPC: 0.42 (Simulation time: 03 hr 12 min 18 sec)
Heartbeat CPU 0 instructions: 840000126 cycles: 1999689830 heartbeat IPC: 0.4283 cumulative IPC: 0.4201 (Simulation time: 03 hr 14 min 44 sec)
Heartbeat CPU 0 instructions: 850000129 cycles: 2023360404 heartbeat IPC: 0.4225 cumulative IPC: 0.4201 (Simulation time: 03 hr 16 min 41 sec)
Heartbeat CPU 0 instructions: 860000133 cycles: 2046696237 heartbeat IPC: 0.4285 cumulative IPC: 0.4202 (Simulation time: 03 hr 18 min 49 sec)
Heartbeat CPU 0 instructions: 870000136 cycles: 2070039561 heartbeat IPC: 0.4284 cumulative IPC: 0.4203 (Simulation time: 03 hr 20 min 54 sec)
Heartbeat CPU 0 instructions: 880000138 cycles: 2093643437 heartbeat IPC: 0.4237 cumulative IPC: 0.4203 (Simulation time: 03 hr 23 min 03 sec)
Heartbeat CPU 0 instructions: 890000138 cycles: 2116822657 heartbeat IPC: 0.4314 cumulative IPC: 0.4204 (Simulation time: 03 hr 25 min 35 sec)
Heartbeat CPU 0 instructions: 900000138 cycles: 2139442479 heartbeat IPC: 0.4421 cumulative IPC: 0.4207 (Simulation time: 03 hr 28 min 05 sec)
Heartbeat CPU 0 instructions: 910000141 cycles: 2162666541 heartbeat IPC: 0.4306 cumulative IPC: 0.4208 (Simulation time: 03 hr 30 min 38 sec)
Heartbeat CPU 0 instructions: 920000143 cycles: 2186142120 heartbeat IPC: 0.426 cumulative IPC: 0.4208 (Simulation time: 03 hr 33 min 13 sec)
Heartbeat CPU 0 instructions: 930000144 cycles: 2208869457 heartbeat IPC: 0.44 cumulative IPC: 0.421 (Simulation time: 03 hr 35 min 44 sec)
Heartbeat CPU 0 instructions: 940000145 cycles: 2231686602 heartbeat IPC: 0.4383 cumulative IPC: 0.4212 (Simulation time: 03 hr 38 min 16 sec)
Heartbeat CPU 0 instructions: 950000146 cycles: 2255056519 heartbeat IPC: 0.4279 cumulative IPC: 0.4213 (Simulation time: 03 hr 40 min 50 sec)
Heartbeat CPU 0 instructions: 960000149 cycles: 2278233310 heartbeat IPC: 0.4315 cumulative IPC: 0.4214 (Simulation time: 03 hr 43 min 24 sec)
Heartbeat CPU 0 instructions: 970000150 cycles: 2301611183 heartbeat IPC: 0.4278 cumulative IPC: 0.4214 (Simulation time: 03 hr 45 min 57 sec)
Heartbeat CPU 0 instructions: 980000151 cycles: 2324556734 heartbeat IPC: 0.4358 cumulative IPC: 0.4216 (Simulation time: 03 hr 47 min 49 sec)
Heartbeat CPU 0 instructions: 990000152 cycles: 2348027237 heartbeat IPC: 0.4261 cumulative IPC: 0.4216 (Simulation time: 03 hr 50 min 21 sec)
Heartbeat CPU 0 instructions: 1000000155 cycles: 2371440618 heartbeat IPC: 0.4271 cumulative IPC: 0.4217 (Simulation time: 03 hr 52 min 54 sec)
Heartbeat CPU 0 instructions: 1010000158 cycles: 2394658173 heartbeat IPC: 0.4307 cumulative IPC: 0.4218 (Simulation time: 03 hr 55 min 30 sec)
Heartbeat CPU 0 instructions: 1020000158 cycles: 2418099644 heartbeat IPC: 0.4266 cumulative IPC: 0.4218 (Simulation time: 03 hr 58 min 07 sec)
Heartbeat CPU 0 instructions: 1030000159 cycles: 2441384500 heartbeat IPC: 0.4295 cumulative IPC: 0.4219 (Simulation time: 04 hr 00 min 43 sec)
Heartbeat CPU 0 instructions: 1040000159 cycles: 2464387439 heartbeat IPC: 0.4347 cumulative IPC: 0.422 (Simulation time: 04 hr 03 min 17 sec)
Heartbeat CPU 0 instructions: 1050000161 cycles: 2487236950 heartbeat IPC: 0.4376 cumulative IPC: 0.4222 (Simulation time: 04 hr 05 min 51 sec)
Heartbeat CPU 0 instructions: 1060000161 cycles: 2509652602 heartbeat IPC: 0.4461 cumulative IPC: 0.4224 (Simulation time: 04 hr 08 min 21 sec)
Heartbeat CPU 0 instructions: 1070000165 cycles: 2532556275 heartbeat IPC: 0.4366 cumulative IPC: 0.4225 (Simulation time: 04 hr 10 min 56 sec)
Heartbeat CPU 0 instructions: 1080000166 cycles: 2555865935 heartbeat IPC: 0.429 cumulative IPC: 0.4226 (Simulation time: 04 hr 13 min 32 sec)
Heartbeat CPU 0 instructions: 1090000166 cycles: 2578975125 heartbeat IPC: 0.4327 cumulative IPC: 0.4226 (Simulation time: 04 hr 16 min 08 sec)
Heartbeat CPU 0 instructions: 1100000166 cycles: 2601479861 heartbeat IPC: 0.4444 cumulative IPC: 0.4228 (Simulation time: 04 hr 18 min 41 sec)
Heartbeat CPU 0 instructions: 1110000166 cycles: 2624728350 heartbeat IPC: 0.4301 cumulative IPC: 0.4229 (Simulation time: 04 hr 21 min 17 sec)
Heartbeat CPU 0 instructions: 1120000168 cycles: 2647556030 heartbeat IPC: 0.4381 cumulative IPC: 0.423 (Simulation time: 04 hr 23 min 25 sec)
Heartbeat CPU 0 instructions: 1130000172 cycles: 2670810546 heartbeat IPC: 0.43 cumulative IPC: 0.4231 (Simulation time: 04 hr 25 min 15 sec)
Heartbeat CPU 0 instructions: 1140000176 cycles: 2693560360 heartbeat IPC: 0.4396 cumulative IPC: 0.4232 (Simulation time: 04 hr 27 min 03 sec)
Heartbeat CPU 0 instructions: 1150000177 cycles: 2716107414 heartbeat IPC: 0.4435 cumulative IPC: 0.4234 (Simulation time: 04 hr 29 min 08 sec)
Heartbeat CPU 0 instructions: 1160000181 cycles: 2738832332 heartbeat IPC: 0.44 cumulative IPC: 0.4235 (Simulation time: 04 hr 31 min 30 sec)
Heartbeat CPU 0 instructions: 1170000183 cycles: 2761979989 heartbeat IPC: 0.432 cumulative IPC: 0.4236 (Simulation time: 04 hr 33 min 36 sec)
Heartbeat CPU 0 instructions: 1180000184 cycles: 2784544537 heartbeat IPC: 0.4432 cumulative IPC: 0.4238 (Simulation time: 04 hr 35 min 23 sec)
Heartbeat CPU 0 instructions: 1190000185 cycles: 2807815333 heartbeat IPC: 0.4297 cumulative IPC: 0.4238 (Simulation time: 04 hr 37 min 37 sec)
Heartbeat CPU 0 instructions: 1200000186 cycles: 2830652778 heartbeat IPC: 0.4379 cumulative IPC: 0.4239 (Simulation time: 04 hr 39 min 29 sec)
Heartbeat CPU 0 instructions: 1210000189 cycles: 2853489297 heartbeat IPC: 0.4379 cumulative IPC: 0.424 (Simulation time: 04 hr 42 min 04 sec)
Heartbeat CPU 0 instructions: 1220000191 cycles: 2876489047 heartbeat IPC: 0.4348 cumulative IPC: 0.4241 (Simulation time: 04 hr 44 min 25 sec)
Heartbeat CPU 0 instructions: 1230000191 cycles: 2899504211 heartbeat IPC: 0.4345 cumulative IPC: 0.4242 (Simulation time: 04 hr 46 min 58 sec)
[VMEM] WARNING: Out of physical memory, freeing ppages
Heartbeat CPU 0 instructions: 1240000192 cycles: 2922527758 heartbeat IPC: 0.4343 cumulative IPC: 0.4243 (Simulation time: 04 hr 49 min 34 sec)
Heartbeat CPU 0 instructions: 1250000193 cycles: 2945565581 heartbeat IPC: 0.4341 cumulative IPC: 0.4244 (Simulation time: 04 hr 52 min 09 sec)
Heartbeat CPU 0 instructions: 1260000195 cycles: 2968456278 heartbeat IPC: 0.4369 cumulative IPC: 0.4245 (Simulation time: 04 hr 54 min 44 sec)
Heartbeat CPU 0 instructions: 1270000195 cycles: 2991279689 heartbeat IPC: 0.4381 cumulative IPC: 0.4246 (Simulation time: 04 hr 57 min 05 sec)
Heartbeat CPU 0 instructions: 1280000195 cycles: 3014179372 heartbeat IPC: 0.4367 cumulative IPC: 0.4247 (Simulation time: 04 hr 59 min 10 sec)
Heartbeat CPU 0 instructions: 1290000197 cycles: 3037438526 heartbeat IPC: 0.4299 cumulative IPC: 0.4247 (Simulation time: 05 hr 01 min 11 sec)
Heartbeat CPU 0 instructions: 1300000199 cycles: 3060327168 heartbeat IPC: 0.4369 cumulative IPC: 0.4248 (Simulation time: 05 hr 03 min 18 sec)
Heartbeat CPU 0 instructions: 1310000199 cycles: 3082844655 heartbeat IPC: 0.4441 cumulative IPC: 0.4249 (Simulation time: 05 hr 05 min 50 sec)
Heartbeat CPU 0 instructions: 1320000200 cycles: 3106028417 heartbeat IPC: 0.4313 cumulative IPC: 0.425 (Simulation time: 05 hr 07 min 50 sec)
Heartbeat CPU 0 instructions: 1330000200 cycles: 3128926253 heartbeat IPC: 0.4367 cumulative IPC: 0.4251 (Simulation time: 05 hr 10 min 20 sec)
Heartbeat CPU 0 instructions: 1340000202 cycles: 3151630955 heartbeat IPC: 0.4404 cumulative IPC: 0.4252 (Simulation time: 05 hr 12 min 30 sec)
Heartbeat CPU 0 instructions: 1350000205 cycles: 3174793239 heartbeat IPC: 0.4317 cumulative IPC: 0.4252 (Simulation time: 05 hr 14 min 28 sec)
Heartbeat CPU 0 instructions: 1360000205 cycles: 3197310677 heartbeat IPC: 0.4441 cumulative IPC: 0.4254 (Simulation time: 05 hr 16 min 26 sec)
Heartbeat CPU 0 instructions: 1370000207 cycles: 3220506822 heartbeat IPC: 0.4311 cumulative IPC: 0.4254 (Simulation time: 05 hr 18 min 28 sec)
Heartbeat CPU 0 instructions: 1380000207 cycles: 3243735039 heartbeat IPC: 0.4305 cumulative IPC: 0.4254 (Simulation time: 05 hr 20 min 56 sec)
Heartbeat CPU 0 instructions: 1390000207 cycles: 3266975977 heartbeat IPC: 0.4303 cumulative IPC: 0.4255 (Simulation time: 05 hr 23 min 33 sec)
Heartbeat CPU 0 instructions: 1400000207 cycles: 3289923494 heartbeat IPC: 0.4358 cumulative IPC: 0.4255 (Simulation time: 05 hr 26 min 08 sec)
Heartbeat CPU 0 instructions: 1410000207 cycles: 3313180559 heartbeat IPC: 0.43 cumulative IPC: 0.4256 (Simulation time: 05 hr 28 min 45 sec)
Heartbeat CPU 0 instructions: 1420000207 cycles: 3336542420 heartbeat IPC: 0.428 cumulative IPC: 0.4256 (Simulation time: 05 hr 31 min 22 sec)
Heartbeat CPU 0 instructions: 1430000211 cycles: 3359780058 heartbeat IPC: 0.4303 cumulative IPC: 0.4256 (Simulation time: 05 hr 33 min 56 sec)
Heartbeat CPU 0 instructions: 1440000213 cycles: 3383226431 heartbeat IPC: 0.4265 cumulative IPC: 0.4256 (Simulation time: 05 hr 36 min 33 sec)
Heartbeat CPU 0 instructions: 1450000215 cycles: 3405587776 heartbeat IPC: 0.4472 cumulative IPC: 0.4258 (Simulation time: 05 hr 39 min 02 sec)
Heartbeat CPU 0 instructions: 1460000218 cycles: 3428718369 heartbeat IPC: 0.4323 cumulative IPC: 0.4258 (Simulation time: 05 hr 41 min 36 sec)
Heartbeat CPU 0 instructions: 1470000218 cycles: 3451597141 heartbeat IPC: 0.4371 cumulative IPC: 0.4259 (Simulation time: 05 hr 44 min 09 sec)
Heartbeat CPU 0 instructions: 1480000218 cycles: 3474716277 heartbeat IPC: 0.4325 cumulative IPC: 0.4259 (Simulation time: 05 hr 46 min 44 sec)
Heartbeat CPU 0 instructions: 1490000222 cycles: 3497757776 heartbeat IPC: 0.434 cumulative IPC: 0.426 (Simulation time: 05 hr 49 min 18 sec)
Heartbeat CPU 0 instructions: 1500000226 cycles: 3521040763 heartbeat IPC: 0.4295 cumulative IPC: 0.426 (Simulation time: 05 hr 51 min 14 sec)
Heartbeat CPU 0 instructions: 1510000228 cycles: 3544419633 heartbeat IPC: 0.4277 cumulative IPC: 0.426 (Simulation time: 05 hr 53 min 12 sec)
Heartbeat CPU 0 instructions: 1520000228 cycles: 3567813186 heartbeat IPC: 0.4275 cumulative IPC: 0.426 (Simulation time: 05 hr 55 min 49 sec)
Heartbeat CPU 0 instructions: 1530000229 cycles: 3591477122 heartbeat IPC: 0.4226 cumulative IPC: 0.426 (Simulation time: 05 hr 58 min 29 sec)
Heartbeat CPU 0 instructions: 1540000230 cycles: 3614796316 heartbeat IPC: 0.4288 cumulative IPC: 0.426 (Simulation time: 06 hr 01 min 07 sec)
Heartbeat CPU 0 instructions: 1550000233 cycles: 3638497401 heartbeat IPC: 0.4219 cumulative IPC: 0.426 (Simulation time: 06 hr 03 min 46 sec)
Heartbeat CPU 0 instructions: 1560000236 cycles: 3662063356 heartbeat IPC: 0.4243 cumulative IPC: 0.426 (Simulation time: 06 hr 06 min 26 sec)
Heartbeat CPU 0 instructions: 1570000239 cycles: 3685564913 heartbeat IPC: 0.4255 cumulative IPC: 0.426 (Simulation time: 06 hr 09 min 05 sec)
Heartbeat CPU 0 instructions: 1580000242 cycles: 3709298035 heartbeat IPC: 0.4214 cumulative IPC: 0.426 (Simulation time: 06 hr 11 min 45 sec)
Heartbeat CPU 0 instructions: 1590000245 cycles: 3732892914 heartbeat IPC: 0.4238 cumulative IPC: 0.4259 (Simulation time: 06 hr 14 min 22 sec)
Heartbeat CPU 0 instructions: 1600000249 cycles: 3756400281 heartbeat IPC: 0.4254 cumulative IPC: 0.4259 (Simulation time: 06 hr 16 min 16 sec)
Heartbeat CPU 0 instructions: 1610000250 cycles: 3780041374 heartbeat IPC: 0.423 cumulative IPC: 0.4259 (Simulation time: 06 hr 18 min 49 sec)
Heartbeat CPU 0 instructions: 1620000253 cycles: 3803348402 heartbeat IPC: 0.4291 cumulative IPC: 0.4259 (Simulation time: 06 hr 20 min 56 sec)
Heartbeat CPU 0 instructions: 1630000253 cycles: 3826864611 heartbeat IPC: 0.4252 cumulative IPC: 0.4259 (Simulation time: 06 hr 22 min 52 sec)
Heartbeat CPU 0 instructions: 1640000255 cycles: 3850176218 heartbeat IPC: 0.429 cumulative IPC: 0.426 (Simulation time: 06 hr 25 min 13 sec)
Heartbeat CPU 0 instructions: 1650000258 cycles: 3873490339 heartbeat IPC: 0.4289 cumulative IPC: 0.426 (Simulation time: 06 hr 27 min 09 sec)
Heartbeat CPU 0 instructions: 1660000261 cycles: 3897132047 heartbeat IPC: 0.423 cumulative IPC: 0.426 (Simulation time: 06 hr 29 min 20 sec)
Heartbeat CPU 0 instructions: 1670000263 cycles: 3920430077 heartbeat IPC: 0.4292 cumulative IPC: 0.426 (Simulation time: 06 hr 31 min 56 sec)
Heartbeat CPU 0 instructions: 1680000266 cycles: 3944117627 heartbeat IPC: 0.4222 cumulative IPC: 0.426 (Simulation time: 06 hr 34 min 34 sec)
Heartbeat CPU 0 instructions: 1690000270 cycles: 3967458530 heartbeat IPC: 0.4284 cumulative IPC: 0.426 (Simulation time: 06 hr 37 min 09 sec)
Heartbeat CPU 0 instructions: 1700000270 cycles: 3991077558 heartbeat IPC: 0.4234 cumulative IPC: 0.426 (Simulation time: 06 hr 39 min 47 sec)
Heartbeat CPU 0 instructions: 1710000271 cycles: 4014346533 heartbeat IPC: 0.4298 cumulative IPC: 0.426 (Simulation time: 06 hr 42 min 15 sec)
Heartbeat CPU 0 instructions: 1720000274 cycles: 4037943975 heartbeat IPC: 0.4238 cumulative IPC: 0.426 (Simulation time: 06 hr 44 min 22 sec)
Heartbeat CPU 0 instructions: 1730000275 cycles: 4061984465 heartbeat IPC: 0.416 cumulative IPC: 0.4259 (Simulation time: 06 hr 46 min 48 sec)
Heartbeat CPU 0 instructions: 1740000278 cycles: 4085001949 heartbeat IPC: 0.4345 cumulative IPC: 0.4259 (Simulation time: 06 hr 49 min 23 sec)
Heartbeat CPU 0 instructions: 1750000280 cycles: 4108385164 heartbeat IPC: 0.4277 cumulative IPC: 0.426 (Simulation time: 06 hr 51 min 51 sec)
Heartbeat CPU 0 instructions: 1760000280 cycles: 4132718793 heartbeat IPC: 0.411 cumulative IPC: 0.4259 (Simulation time: 06 hr 54 min 33 sec)
Heartbeat CPU 0 instructions: 1770000282 cycles: 4156780044 heartbeat IPC: 0.4156 cumulative IPC: 0.4258 (Simulation time: 06 hr 57 min 16 sec)
Heartbeat CPU 0 instructions: 1780000282 cycles: 4180405374 heartbeat IPC: 0.4233 cumulative IPC: 0.4258 (Simulation time: 06 hr 59 min 56 sec)
Heartbeat CPU 0 instructions: 1790000283 cycles: 4204036278 heartbeat IPC: 0.4232 cumulative IPC: 0.4258 (Simulation time: 07 hr 02 min 35 sec)
Heartbeat CPU 0 instructions: 1800000284 cycles: 4227904803 heartbeat IPC: 0.419 cumulative IPC: 0.4257 (Simulation time: 07 hr 05 min 15 sec)
Heartbeat CPU 0 instructions: 1810000288 cycles: 4251348852 heartbeat IPC: 0.4265 cumulative IPC: 0.4257 (Simulation time: 07 hr 07 min 53 sec)
Heartbeat CPU 0 instructions: 1820000288 cycles: 4275247862 heartbeat IPC: 0.4184 cumulative IPC: 0.4257 (Simulation time: 07 hr 10 min 36 sec)
Heartbeat CPU 0 instructions: 1830000289 cycles: 4298680691 heartbeat IPC: 0.4268 cumulative IPC: 0.4257 (Simulation time: 07 hr 12 min 41 sec)
Heartbeat CPU 0 instructions: 1840000289 cycles: 4322052115 heartbeat IPC: 0.4279 cumulative IPC: 0.4257 (Simulation time: 07 hr 14 min 35 sec)
Heartbeat CPU 0 instructions: 1850000292 cycles: 4345435183 heartbeat IPC: 0.4277 cumulative IPC: 0.4257 (Simulation time: 07 hr 16 min 35 sec)
Heartbeat CPU 0 instructions: 1860000292 cycles: 4368883800 heartbeat IPC: 0.4265 cumulative IPC: 0.4257 (Simulation time: 07 hr 18 min 27 sec)
Heartbeat CPU 0 instructions: 1870000296 cycles: 4392433178 heartbeat IPC: 0.4246 cumulative IPC: 0.4257 (Simulation time: 07 hr 20 min 21 sec)
Heartbeat CPU 0 instructions: 1880000298 cycles: 4415883465 heartbeat IPC: 0.4264 cumulative IPC: 0.4257 (Simulation time: 07 hr 22 min 58 sec)
Heartbeat CPU 0 instructions: 1890000302 cycles: 4439162760 heartbeat IPC: 0.4296 cumulative IPC: 0.4258 (Simulation time: 07 hr 25 min 33 sec)
Heartbeat CPU 0 instructions: 1900000303 cycles: 4462360621 heartbeat IPC: 0.4311 cumulative IPC: 0.4258 (Simulation time: 07 hr 28 min 03 sec)
Heartbeat CPU 0 instructions: 1910000303 cycles: 4485380684 heartbeat IPC: 0.4344 cumulative IPC: 0.4258 (Simulation time: 07 hr 30 min 23 sec)
Heartbeat CPU 0 instructions: 1920000307 cycles: 4509179159 heartbeat IPC: 0.4202 cumulative IPC: 0.4258 (Simulation time: 07 hr 33 min 04 sec)
Heartbeat CPU 0 instructions: 1930000310 cycles: 4533093858 heartbeat IPC: 0.4182 cumulative IPC: 0.4258 (Simulation time: 07 hr 35 min 46 sec)
Heartbeat CPU 0 instructions: 1940000313 cycles: 4556324352 heartbeat IPC: 0.4305 cumulative IPC: 0.4258 (Simulation time: 07 hr 37 min 52 sec)
Heartbeat CPU 0 instructions: 1950000316 cycles: 4579755507 heartbeat IPC: 0.4268 cumulative IPC: 0.4258 (Simulation time: 07 hr 39 min 39 sec)
Heartbeat CPU 0 instructions: 1960000319 cycles: 4603014149 heartbeat IPC: 0.4299 cumulative IPC: 0.4258 (Simulation time: 07 hr 41 min 27 sec)
Heartbeat CPU 0 instructions: 1970000319 cycles: 4626244613 heartbeat IPC: 0.4305 cumulative IPC: 0.4258 (Simulation time: 07 hr 43 min 39 sec)
Heartbeat CPU 0 instructions: 1980000319 cycles: 4649513250 heartbeat IPC: 0.4298 cumulative IPC: 0.4259 (Simulation time: 07 hr 46 min 14 sec)
Heartbeat CPU 0 instructions: 1990000319 cycles: 4672537346 heartbeat IPC: 0.4343 cumulative IPC: 0.4259 (Simulation time: 07 hr 48 min 49 sec)

=== ERROR PAGE STATISTICS ===
Mode: OFF
Total Error Accesses: 0
==============================
Simulation finished CPU 0 instructions: 1999999986 cycles: 4695701197 cumulative IPC: 0.4259 (Simulation time: 07 hr 50 min 59 sec)
Simulation complete CPU 0 instructions: 1999999986 cycles: 4695701197 cumulative IPC: 0.4259 (Simulation time: 07 hr 50 min 59 sec)

ChampSim completed all CPUs

=== Simulation ===
CPU 0 runs test_traces/620.omnetpp_s-141B.champsimtrace.xz

Region of Interest Statistics

CPU 0 cumulative IPC: 0.4259 instructions: 1999999986 cycles: 4695701197
CPU 0 Branch Prediction Accuracy: 92.96% MPKI: 14.8 Average ROB Occupancy at Mispredict: 41.91
Branch type MPKI
BRANCH_DIRECT_JUMP: 0.8484
BRANCH_INDIRECT: 0.3555
BRANCH_CONDITIONAL: 12.32
BRANCH_DIRECT_CALL: 0.0001295
BRANCH_INDIRECT_CALL: 0.8457
BRANCH_RETURN: 0.4309

cpu0->cpu0_STLB TOTAL        ACCESS:   44698722 HIT:   35105150 MISS:    9593572 MSHR_MERGE:          0
cpu0->cpu0_STLB LOAD         ACCESS:   44698722 HIT:   35105150 MISS:    9593572 MSHR_MERGE:          0
cpu0->cpu0_STLB RFO          ACCESS:          0 HIT:          0 MISS:          0 MSHR_MERGE:          0
cpu0->cpu0_STLB PREFETCH     ACCESS:          0 HIT:          0 MISS:          0 MSHR_MERGE:          0
cpu0->cpu0_STLB WRITE        ACCESS:          0 HIT:          0 MISS:          0 MSHR_MERGE:          0
cpu0->cpu0_STLB TRANSLATION  ACCESS:          0 HIT:          0 MISS:          0 MSHR_MERGE:          0
cpu0->cpu0_STLB PREFETCH REQUESTED:          0 ISSUED:          0 USEFUL:          0 USELESS:          0
cpu0->cpu0_STLB AVERAGE MISS LATENCY: 211.2 cycles
cpu0->cpu0_L2C TOTAL        ACCESS:   56650636 HIT:   29466043 MISS:   27184593 MSHR_MERGE:          0
cpu0->cpu0_L2C LOAD         ACCESS:   33708893 HIT:   10149445 MISS:   23559448 MSHR_MERGE:          0
cpu0->cpu0_L2C RFO          ACCESS:    4838663 HIT:    1237696 MISS:    3600967 MSHR_MERGE:          0
cpu0->cpu0_L2C PREFETCH     ACCESS:          0 HIT:          0 MISS:          0 MSHR_MERGE:          0
cpu0->cpu0_L2C WRITE        ACCESS:   18103080 HIT:   18078902 MISS:      24178 MSHR_MERGE:          0
cpu0->cpu0_L2C TRANSLATION  ACCESS:          0 HIT:          0 MISS:          0 MSHR_MERGE:          0
cpu0->cpu0_L2C PREFETCH REQUESTED:          0 ISSUED:          0 USEFUL:          0 USELESS:          0
cpu0->cpu0_L2C AVERAGE MISS LATENCY: 88.62 cycles
cpu0->cpu0_L1I TOTAL        ACCESS:  269082676 HIT:  267367279 MISS:    1715397 MSHR_MERGE:     426421
cpu0->cpu0_L1I LOAD         ACCESS:  269082676 HIT:  267367279 MISS:    1715397 MSHR_MERGE:     426421
cpu0->cpu0_L1I RFO          ACCESS:          0 HIT:          0 MISS:          0 MSHR_MERGE:          0
cpu0->cpu0_L1I PREFETCH     ACCESS:          0 HIT:          0 MISS:          0 MSHR_MERGE:          0
cpu0->cpu0_L1I WRITE        ACCESS:          0 HIT:          0 MISS:          0 MSHR_MERGE:          0
cpu0->cpu0_L1I TRANSLATION  ACCESS:          0 HIT:          0 MISS:          0 MSHR_MERGE:          0
cpu0->cpu0_L1I PREFETCH REQUESTED:          0 ISSUED:          0 USEFUL:          0 USELESS:          0
cpu0->cpu0_L1I AVERAGE MISS LATENCY: 12.07 cycles
cpu0->cpu0_L1D TOTAL        ACCESS:  807222819 HIT:  750529793 MISS:   56693026 MSHR_MERGE:   19434352
cpu0->cpu0_L1D LOAD         ACCESS:  439365592 HIT:  396762261 MISS:   42603331 MSHR_MERGE:   10183346
cpu0->cpu0_L1D RFO          ACCESS:          0 HIT:          0 MISS:          0 MSHR_MERGE:          0
cpu0->cpu0_L1D PREFETCH     ACCESS:          0 HIT:          0 MISS:          0 MSHR_MERGE:          0
cpu0->cpu0_L1D WRITE        ACCESS:  367857227 HIT:  353767532 MISS:   14089695 MSHR_MERGE:    9251006
cpu0->cpu0_L1D TRANSLATION  ACCESS:          0 HIT:          0 MISS:          0 MSHR_MERGE:          0
cpu0->cpu0_L1D PREFETCH REQUESTED:          0 ISSUED:          0 USEFUL:          0 USELESS:          0
cpu0->cpu0_L1D AVERAGE MISS LATENCY: 73.3 cycles
cpu0->cpu0_ITLB TOTAL        ACCESS:  237498689 HIT:  231440804 MISS:    6057885 MSHR_MERGE:    2945864
cpu0->cpu0_ITLB LOAD         ACCESS:  237498689 HIT:  231440804 MISS:    6057885 MSHR_MERGE:    2945864
cpu0->cpu0_ITLB RFO          ACCESS:          0 HIT:          0 MISS:          0 MSHR_MERGE:          0
cpu0->cpu0_ITLB PREFETCH     ACCESS:          0 HIT:          0 MISS:          0 MSHR_MERGE:          0
cpu0->cpu0_ITLB WRITE        ACCESS:          0 HIT:          0 MISS:          0 MSHR_MERGE:          0
cpu0->cpu0_ITLB TRANSLATION  ACCESS:          0 HIT:          0 MISS:          0 MSHR_MERGE:          0
cpu0->cpu0_ITLB PREFETCH REQUESTED:          0 ISSUED:          0 USEFUL:          0 USELESS:          0
cpu0->cpu0_ITLB AVERAGE MISS LATENCY: 7.245 cycles
cpu0->cpu0_DTLB TOTAL        ACCESS:  695414570 HIT:  647432309 MISS:   47982261 MSHR_MERGE:    6395560
cpu0->cpu0_DTLB LOAD         ACCESS:  695414570 HIT:  647432309 MISS:   47982261 MSHR_MERGE:    6395560
cpu0->cpu0_DTLB RFO          ACCESS:          0 HIT:          0 MISS:          0 MSHR_MERGE:          0
cpu0->cpu0_DTLB PREFETCH     ACCESS:          0 HIT:          0 MISS:          0 MSHR_MERGE:          0
cpu0->cpu0_DTLB WRITE        ACCESS:          0 HIT:          0 MISS:          0 MSHR_MERGE:          0
cpu0->cpu0_DTLB TRANSLATION  ACCESS:          0 HIT:          0 MISS:          0 MSHR_MERGE:          0
cpu0->cpu0_DTLB PREFETCH REQUESTED:          0 ISSUED:          0 USEFUL:          0 USELESS:          0
cpu0->cpu0_DTLB AVERAGE MISS LATENCY: 53.81 cycles
cpu0->LLC TOTAL        ACCESS:   40321934 HIT:   19748430 MISS:   20573504 MSHR_MERGE:          0
cpu0->LLC LOAD         ACCESS:   23559446 HIT:    5193900 MISS:   18365546 MSHR_MERGE:          0
cpu0->LLC RFO          ACCESS:    3600967 HIT:    1441312 MISS:    2159655 MSHR_MERGE:          0
cpu0->LLC PREFETCH     ACCESS:          0 HIT:          0 MISS:          0 MSHR_MERGE:          0
cpu0->LLC WRITE        ACCESS:   13161521 HIT:   13113218 MISS:      48303 MSHR_MERGE:          0
cpu0->LLC TRANSLATION  ACCESS:          0 HIT:          0 MISS:          0 MSHR_MERGE:          0
cpu0->LLC PREFETCH REQUESTED:          0 ISSUED:          0 USEFUL:          0 USELESS:          0
cpu0->LLC AVERAGE MISS LATENCY: 96.32 cycles

DRAM Statistics

Channel 0 RQ ROW_BUFFER_HIT:     441505
  ROW_BUFFER_MISS:   21169239
  AVG DBUS CONGESTED CYCLE: 13.51
Channel 0 WQ ROW_BUFFER_HIT:     983909
  ROW_BUFFER_MISS:    3754152
  FULL:          0
Channel 0 REFRESHES ISSUED:     391283

Channel 1 RQ ROW_BUFFER_HIT:     469162
  ROW_BUFFER_MISS:   21442150
  AVG DBUS CONGESTED CYCLE: 13.5
Channel 1 WQ ROW_BUFFER_HIT:     990599
  ROW_BUFFER_MISS:    3776059
  FULL:          0
Channel 1 REFRESHES ISSUED:     391283
