[VMEM] WARNING: physical memory size is smaller than virtual memory size.

*** ChampSim Multicore Out-of-Order Simulator ***
Warmup Instructions: 0
Simulation Instructions: 9223372036854775807
Number of CPUs: 1
Page size: 4096

Off-chip DRAM Size: 32 GiB Channels: 2 Width: 32-bit Data Rate: 4807 MT/s
[ERROR_PAGE_MANAGER] Error latency: 173500 
[ERROR_PAGE_MANAGER] Random seed: 54321 (fixed for preload reproducibility)
[ERROR_PAGE_MANAGER] Cycle-based error modeling enabled
[ERROR_PAGE_MANAGER] Errors per interval: 1
[ERROR_PAGE_MANAGER] Error cycle interval: 7053240154 cycles

=== ERROR PAGE STATISTICS ===
Mode: CYCLE
Error Cycle Interval: 7053240154 CPU cycles
Total Error Accesses: 0
==============================
Warmup finished CPU 0 instructions: 0 cycles: 1 cumulative IPC: 0 (Simulation time: 00 hr 00 min 01 sec)
Warmup complete CPU 0 instructions: 0 cycles: 1 cumulative IPC: 0 (Simulation time: 00 hr 00 min 01 sec)
Heartbeat CPU 0 instructions: 10000001 cycles: 16836481 heartbeat IPC: 0.5939 cumulative IPC: 0.5939 (Simulation time: 00 hr 01 min 30 sec)
Heartbeat CPU 0 instructions: 20000002 cycles: 38827584 heartbeat IPC: 0.4547 cumulative IPC: 0.5151 (Simulation time: 00 hr 03 min 08 sec)
Heartbeat CPU 0 instructions: 30000002 cycles: 64487892 heartbeat IPC: 0.3897 cumulative IPC: 0.4652 (Simulation time: 00 hr 04 min 45 sec)
Heartbeat CPU 0 instructions: 40000005 cycles: 81935836 heartbeat IPC: 0.5731 cumulative IPC: 0.4882 (Simulation time: 00 hr 06 min 00 sec)
Heartbeat CPU 0 instructions: 50000005 cycles: 161337808 heartbeat IPC: 0.1259 cumulative IPC: 0.3099 (Simulation time: 00 hr 11 min 13 sec)
Heartbeat CPU 0 instructions: 60000005 cycles: 187181297 heartbeat IPC: 0.3869 cumulative IPC: 0.3205 (Simulation time: 00 hr 13 min 00 sec)
Heartbeat CPU 0 instructions: 70000005 cycles: 220556123 heartbeat IPC: 0.2996 cumulative IPC: 0.3174 (Simulation time: 00 hr 15 min 11 sec)
Heartbeat CPU 0 instructions: 80000005 cycles: 239160349 heartbeat IPC: 0.5375 cumulative IPC: 0.3345 (Simulation time: 00 hr 16 min 45 sec)
Heartbeat CPU 0 instructions: 90000007 cycles: 255723696 heartbeat IPC: 0.6037 cumulative IPC: 0.3519 (Simulation time: 00 hr 18 min 02 sec)
Heartbeat CPU 0 instructions: 100000007 cycles: 271473652 heartbeat IPC: 0.6349 cumulative IPC: 0.3684 (Simulation time: 00 hr 19 min 24 sec)
Heartbeat CPU 0 instructions: 110000007 cycles: 308778485 heartbeat IPC: 0.2681 cumulative IPC: 0.3562 (Simulation time: 00 hr 22 min 13 sec)
Heartbeat CPU 0 instructions: 120000009 cycles: 335828523 heartbeat IPC: 0.3697 cumulative IPC: 0.3573 (Simulation time: 00 hr 24 min 55 sec)
Heartbeat CPU 0 instructions: 130000009 cycles: 358966627 heartbeat IPC: 0.4322 cumulative IPC: 0.3622 (Simulation time: 00 hr 27 min 19 sec)
Heartbeat CPU 0 instructions: 140000010 cycles: 391584252 heartbeat IPC: 0.3066 cumulative IPC: 0.3575 (Simulation time: 00 hr 30 min 26 sec)
Heartbeat CPU 0 instructions: 150000010 cycles: 441215487 heartbeat IPC: 0.2015 cumulative IPC: 0.34 (Simulation time: 00 hr 35 min 03 sec)
Heartbeat CPU 0 instructions: 160000012 cycles: 457453118 heartbeat IPC: 0.6159 cumulative IPC: 0.3498 (Simulation time: 00 hr 36 min 49 sec)
Heartbeat CPU 0 instructions: 170000016 cycles: 467961652 heartbeat IPC: 0.9516 cumulative IPC: 0.3633 (Simulation time: 00 hr 38 min 05 sec)
Heartbeat CPU 0 instructions: 180000016 cycles: 515642190 heartbeat IPC: 0.2097 cumulative IPC: 0.3491 (Simulation time: 00 hr 41 min 54 sec)
Heartbeat CPU 0 instructions: 190000016 cycles: 526889194 heartbeat IPC: 0.8891 cumulative IPC: 0.3606 (Simulation time: 00 hr 42 min 49 sec)
Heartbeat CPU 0 instructions: 200000019 cycles: 545015676 heartbeat IPC: 0.5517 cumulative IPC: 0.367 (Simulation time: 00 hr 44 min 32 sec)
Heartbeat CPU 0 instructions: 210000021 cycles: 577030029 heartbeat IPC: 0.3124 cumulative IPC: 0.3639 (Simulation time: 00 hr 46 min 46 sec)
Heartbeat CPU 0 instructions: 220000024 cycles: 620009188 heartbeat IPC: 0.2327 cumulative IPC: 0.3548 (Simulation time: 00 hr 50 min 13 sec)
Heartbeat CPU 0 instructions: 230000024 cycles: 641425355 heartbeat IPC: 0.4669 cumulative IPC: 0.3586 (Simulation time: 00 hr 51 min 53 sec)
Heartbeat CPU 0 instructions: 240000024 cycles: 662675308 heartbeat IPC: 0.4706 cumulative IPC: 0.3622 (Simulation time: 00 hr 54 min 00 sec)
Heartbeat CPU 0 instructions: 250000028 cycles: 674688865 heartbeat IPC: 0.8324 cumulative IPC: 0.3705 (Simulation time: 00 hr 55 min 20 sec)
Heartbeat CPU 0 instructions: 260000028 cycles: 739314717 heartbeat IPC: 0.1547 cumulative IPC: 0.3517 (Simulation time: 01 hr 00 min 53 sec)
Heartbeat CPU 0 instructions: 270000028 cycles: 819304832 heartbeat IPC: 0.125 cumulative IPC: 0.3295 (Simulation time: 01 hr 07 min 53 sec)
Heartbeat CPU 0 instructions: 280000028 cycles: 845097012 heartbeat IPC: 0.3877 cumulative IPC: 0.3313 (Simulation time: 01 hr 09 min 51 sec)
Heartbeat CPU 0 instructions: 290000029 cycles: 877436017 heartbeat IPC: 0.3092 cumulative IPC: 0.3305 (Simulation time: 01 hr 12 min 49 sec)
Heartbeat CPU 0 instructions: 300000030 cycles: 911374287 heartbeat IPC: 0.2947 cumulative IPC: 0.3292 (Simulation time: 01 hr 15 min 51 sec)
Heartbeat CPU 0 instructions: 310000030 cycles: 932276604 heartbeat IPC: 0.4784 cumulative IPC: 0.3325 (Simulation time: 01 hr 18 min 02 sec)
Heartbeat CPU 0 instructions: 320000030 cycles: 954327487 heartbeat IPC: 0.4535 cumulative IPC: 0.3353 (Simulation time: 01 hr 20 min 03 sec)
Heartbeat CPU 0 instructions: 330000032 cycles: 991675704 heartbeat IPC: 0.2678 cumulative IPC: 0.3328 (Simulation time: 01 hr 23 min 08 sec)
Heartbeat CPU 0 instructions: 340000032 cycles: 1006793536 heartbeat IPC: 0.6615 cumulative IPC: 0.3377 (Simulation time: 01 hr 24 min 19 sec)
Heartbeat CPU 0 instructions: 350000032 cycles: 1017338402 heartbeat IPC: 0.9483 cumulative IPC: 0.344 (Simulation time: 01 hr 25 min 13 sec)
Heartbeat CPU 0 instructions: 360000032 cycles: 1050374753 heartbeat IPC: 0.3027 cumulative IPC: 0.3427 (Simulation time: 01 hr 28 min 24 sec)
Heartbeat CPU 0 instructions: 370000034 cycles: 1071708416 heartbeat IPC: 0.4687 cumulative IPC: 0.3452 (Simulation time: 01 hr 30 min 02 sec)
Heartbeat CPU 0 instructions: 380000034 cycles: 1088627579 heartbeat IPC: 0.591 cumulative IPC: 0.3491 (Simulation time: 01 hr 31 min 46 sec)
Heartbeat CPU 0 instructions: 390000037 cycles: 1129013876 heartbeat IPC: 0.2476 cumulative IPC: 0.3454 (Simulation time: 01 hr 35 min 36 sec)
Heartbeat CPU 0 instructions: 400000039 cycles: 1173619060 heartbeat IPC: 0.2242 cumulative IPC: 0.3408 (Simulation time: 01 hr 39 min 11 sec)
Heartbeat CPU 0 instructions: 410000039 cycles: 1190743039 heartbeat IPC: 0.584 cumulative IPC: 0.3443 (Simulation time: 01 hr 40 min 51 sec)
Heartbeat CPU 0 instructions: 420000042 cycles: 1201749976 heartbeat IPC: 0.9085 cumulative IPC: 0.3495 (Simulation time: 01 hr 42 min 07 sec)
Heartbeat CPU 0 instructions: 430000043 cycles: 1220760508 heartbeat IPC: 0.526 cumulative IPC: 0.3522 (Simulation time: 01 hr 43 min 46 sec)
Heartbeat CPU 0 instructions: 440000044 cycles: 1269307755 heartbeat IPC: 0.206 cumulative IPC: 0.3466 (Simulation time: 01 hr 47 min 35 sec)
Heartbeat CPU 0 instructions: 450000046 cycles: 1279742285 heartbeat IPC: 0.9584 cumulative IPC: 0.3516 (Simulation time: 01 hr 48 min 50 sec)
Heartbeat CPU 0 instructions: 460000049 cycles: 1298772902 heartbeat IPC: 0.5255 cumulative IPC: 0.3542 (Simulation time: 01 hr 50 min 53 sec)
Heartbeat CPU 0 instructions: 470000051 cycles: 1310740804 heartbeat IPC: 0.8356 cumulative IPC: 0.3586 (Simulation time: 01 hr 52 min 17 sec)
Heartbeat CPU 0 instructions: 480000051 cycles: 1325405766 heartbeat IPC: 0.6819 cumulative IPC: 0.3622 (Simulation time: 01 hr 53 min 56 sec)
Heartbeat CPU 0 instructions: 490000051 cycles: 1371287487 heartbeat IPC: 0.218 cumulative IPC: 0.3573 (Simulation time: 01 hr 57 min 26 sec)
Heartbeat CPU 0 instructions: 500000051 cycles: 1390481021 heartbeat IPC: 0.521 cumulative IPC: 0.3596 (Simulation time: 01 hr 59 min 22 sec)
Heartbeat CPU 0 instructions: 510000055 cycles: 1410046536 heartbeat IPC: 0.5111 cumulative IPC: 0.3617 (Simulation time: 02 hr 01 min 23 sec)
Heartbeat CPU 0 instructions: 520000058 cycles: 1423088687 heartbeat IPC: 0.7667 cumulative IPC: 0.3654 (Simulation time: 02 hr 02 min 51 sec)
Heartbeat CPU 0 instructions: 530000062 cycles: 1439996341 heartbeat IPC: 0.5914 cumulative IPC: 0.3681 (Simulation time: 02 hr 04 min 40 sec)
Heartbeat CPU 0 instructions: 540000063 cycles: 1482454620 heartbeat IPC: 0.2355 cumulative IPC: 0.3643 (Simulation time: 02 hr 08 min 11 sec)
Heartbeat CPU 0 instructions: 550000063 cycles: 1536318633 heartbeat IPC: 0.1857 cumulative IPC: 0.358 (Simulation time: 02 hr 11 min 30 sec)
Heartbeat CPU 0 instructions: 560000063 cycles: 1588937607 heartbeat IPC: 0.19 cumulative IPC: 0.3524 (Simulation time: 02 hr 16 min 17 sec)
Heartbeat CPU 0 instructions: 570000063 cycles: 1640245692 heartbeat IPC: 0.1949 cumulative IPC: 0.3475 (Simulation time: 02 hr 21 min 03 sec)
Heartbeat CPU 0 instructions: 580000066 cycles: 1690682942 heartbeat IPC: 0.1983 cumulative IPC: 0.3431 (Simulation time: 02 hr 25 min 46 sec)
Heartbeat CPU 0 instructions: 590000067 cycles: 1742000365 heartbeat IPC: 0.1949 cumulative IPC: 0.3387 (Simulation time: 02 hr 30 min 34 sec)
Heartbeat CPU 0 instructions: 600000069 cycles: 1792319470 heartbeat IPC: 0.1987 cumulative IPC: 0.3348 (Simulation time: 02 hr 34 min 12 sec)
Heartbeat CPU 0 instructions: 610000072 cycles: 1842627182 heartbeat IPC: 0.1988 cumulative IPC: 0.331 (Simulation time: 02 hr 38 min 43 sec)
Heartbeat CPU 0 instructions: 620000073 cycles: 1890462958 heartbeat IPC: 0.209 cumulative IPC: 0.328 (Simulation time: 02 hr 42 min 12 sec)
Heartbeat CPU 0 instructions: 630000075 cycles: 1937642122 heartbeat IPC: 0.212 cumulative IPC: 0.3251 (Simulation time: 02 hr 46 min 03 sec)
Heartbeat CPU 0 instructions: 640000075 cycles: 1983320716 heartbeat IPC: 0.2189 cumulative IPC: 0.3227 (Simulation time: 02 hr 50 min 27 sec)
Heartbeat CPU 0 instructions: 650000075 cycles: 2037451830 heartbeat IPC: 0.1847 cumulative IPC: 0.319 (Simulation time: 02 hr 55 min 31 sec)
Heartbeat CPU 0 instructions: 660000079 cycles: 2097257028 heartbeat IPC: 0.1672 cumulative IPC: 0.3147 (Simulation time: 03 hr 01 min 05 sec)
Heartbeat CPU 0 instructions: 670000080 cycles: 2159403582 heartbeat IPC: 0.1609 cumulative IPC: 0.3103 (Simulation time: 03 hr 06 min 01 sec)
Heartbeat CPU 0 instructions: 680000082 cycles: 2228855408 heartbeat IPC: 0.144 cumulative IPC: 0.3051 (Simulation time: 03 hr 11 min 22 sec)
Heartbeat CPU 0 instructions: 690000086 cycles: 2287064545 heartbeat IPC: 0.1718 cumulative IPC: 0.3017 (Simulation time: 03 hr 17 min 09 sec)
Heartbeat CPU 0 instructions: 700000089 cycles: 2320883077 heartbeat IPC: 0.2957 cumulative IPC: 0.3016 (Simulation time: 03 hr 20 min 36 sec)
Heartbeat CPU 0 instructions: 710000089 cycles: 2338501451 heartbeat IPC: 0.5676 cumulative IPC: 0.3036 (Simulation time: 03 hr 22 min 07 sec)
Heartbeat CPU 0 instructions: 720000089 cycles: 2359134938 heartbeat IPC: 0.4846 cumulative IPC: 0.3052 (Simulation time: 03 hr 24 min 18 sec)
Heartbeat CPU 0 instructions: 730000090 cycles: 2375495284 heartbeat IPC: 0.6112 cumulative IPC: 0.3073 (Simulation time: 03 hr 25 min 54 sec)
Heartbeat CPU 0 instructions: 740000091 cycles: 2386570468 heartbeat IPC: 0.9029 cumulative IPC: 0.3101 (Simulation time: 03 hr 26 min 53 sec)
Heartbeat CPU 0 instructions: 750000093 cycles: 2409808735 heartbeat IPC: 0.4303 cumulative IPC: 0.3112 (Simulation time: 03 hr 28 min 51 sec)
Heartbeat CPU 0 instructions: 760000093 cycles: 2420943868 heartbeat IPC: 0.8981 cumulative IPC: 0.3139 (Simulation time: 03 hr 30 min 11 sec)
Heartbeat CPU 0 instructions: 770000094 cycles: 2435679801 heartbeat IPC: 0.6786 cumulative IPC: 0.3161 (Simulation time: 03 hr 31 min 51 sec)
Heartbeat CPU 0 instructions: 780000094 cycles: 2461161286 heartbeat IPC: 0.3924 cumulative IPC: 0.3169 (Simulation time: 03 hr 34 min 29 sec)
Heartbeat CPU 0 instructions: 790000095 cycles: 2486897192 heartbeat IPC: 0.3886 cumulative IPC: 0.3177 (Simulation time: 03 hr 37 min 09 sec)
[VMEM] WARNING: Out of physical memory, freeing ppages
Heartbeat CPU 0 instructions: 800000097 cycles: 2531270176 heartbeat IPC: 0.2254 cumulative IPC: 0.316 (Simulation time: 03 hr 41 min 03 sec)
Heartbeat CPU 0 instructions: 810000099 cycles: 2565630629 heartbeat IPC: 0.291 cumulative IPC: 0.3157 (Simulation time: 03 hr 43 min 59 sec)
Heartbeat CPU 0 instructions: 820000099 cycles: 2593176982 heartbeat IPC: 0.363 cumulative IPC: 0.3162 (Simulation time: 03 hr 46 min 47 sec)
Heartbeat CPU 0 instructions: 830000099 cycles: 2613433975 heartbeat IPC: 0.4937 cumulative IPC: 0.3176 (Simulation time: 03 hr 48 min 59 sec)
Heartbeat CPU 0 instructions: 840000102 cycles: 2656014460 heartbeat IPC: 0.2348 cumulative IPC: 0.3163 (Simulation time: 03 hr 52 min 51 sec)
Heartbeat CPU 0 instructions: 850000102 cycles: 2689657395 heartbeat IPC: 0.2972 cumulative IPC: 0.316 (Simulation time: 03 hr 56 min 21 sec)
Heartbeat CPU 0 instructions: 860000105 cycles: 2707003323 heartbeat IPC: 0.5765 cumulative IPC: 0.3177 (Simulation time: 03 hr 58 min 12 sec)
Heartbeat CPU 0 instructions: 870000108 cycles: 2718014531 heartbeat IPC: 0.9082 cumulative IPC: 0.3201 (Simulation time: 03 hr 59 min 13 sec)
Heartbeat CPU 0 instructions: 880000108 cycles: 2739676891 heartbeat IPC: 0.4616 cumulative IPC: 0.3212 (Simulation time: 04 hr 01 min 31 sec)
Heartbeat CPU 0 instructions: 890000108 cycles: 2757963088 heartbeat IPC: 0.5469 cumulative IPC: 0.3227 (Simulation time: 04 hr 03 min 31 sec)
Heartbeat CPU 0 instructions: 900000112 cycles: 2795269602 heartbeat IPC: 0.268 cumulative IPC: 0.322 (Simulation time: 04 hr 07 min 10 sec)
Heartbeat CPU 0 instructions: 910000112 cycles: 2811520808 heartbeat IPC: 0.6153 cumulative IPC: 0.3237 (Simulation time: 04 hr 08 min 58 sec)
Heartbeat CPU 0 instructions: 920000112 cycles: 2835581892 heartbeat IPC: 0.4156 cumulative IPC: 0.3244 (Simulation time: 04 hr 11 min 07 sec)
Heartbeat CPU 0 instructions: 930000112 cycles: 2854161629 heartbeat IPC: 0.5382 cumulative IPC: 0.3258 (Simulation time: 04 hr 12 min 48 sec)
Heartbeat CPU 0 instructions: 940000116 cycles: 2907823200 heartbeat IPC: 0.1864 cumulative IPC: 0.3233 (Simulation time: 04 hr 17 min 36 sec)
Heartbeat CPU 0 instructions: 950000116 cycles: 2969294707 heartbeat IPC: 0.1627 cumulative IPC: 0.3199 (Simulation time: 04 hr 22 min 37 sec)
Heartbeat CPU 0 instructions: 960000116 cycles: 3000773287 heartbeat IPC: 0.3177 cumulative IPC: 0.3199 (Simulation time: 04 hr 25 min 33 sec)
Heartbeat CPU 0 instructions: 970000116 cycles: 3016058342 heartbeat IPC: 0.6542 cumulative IPC: 0.3216 (Simulation time: 04 hr 27 min 13 sec)
Heartbeat CPU 0 instructions: 980000118 cycles: 3029028612 heartbeat IPC: 0.771 cumulative IPC: 0.3235 (Simulation time: 04 hr 28 min 28 sec)
Heartbeat CPU 0 instructions: 990000118 cycles: 3054745643 heartbeat IPC: 0.3888 cumulative IPC: 0.3241 (Simulation time: 04 hr 30 min 25 sec)
Heartbeat CPU 0 instructions: 1000000120 cycles: 3070096894 heartbeat IPC: 0.6514 cumulative IPC: 0.3257 (Simulation time: 04 hr 31 min 59 sec)
Heartbeat CPU 0 instructions: 1010000121 cycles: 3087573122 heartbeat IPC: 0.5722 cumulative IPC: 0.3271 (Simulation time: 04 hr 33 min 48 sec)
Heartbeat CPU 0 instructions: 1020000121 cycles: 3107901875 heartbeat IPC: 0.4919 cumulative IPC: 0.3282 (Simulation time: 04 hr 35 min 55 sec)
Heartbeat CPU 0 instructions: 1030000121 cycles: 3125193476 heartbeat IPC: 0.5783 cumulative IPC: 0.3296 (Simulation time: 04 hr 37 min 16 sec)
Heartbeat CPU 0 instructions: 1040000123 cycles: 3145247789 heartbeat IPC: 0.4986 cumulative IPC: 0.3307 (Simulation time: 04 hr 38 min 55 sec)
Heartbeat CPU 0 instructions: 1050000126 cycles: 3217875163 heartbeat IPC: 0.1377 cumulative IPC: 0.3263 (Simulation time: 04 hr 43 min 33 sec)
Heartbeat CPU 0 instructions: 1060000130 cycles: 3276585830 heartbeat IPC: 0.1703 cumulative IPC: 0.3235 (Simulation time: 04 hr 47 min 44 sec)
Heartbeat CPU 0 instructions: 1070000132 cycles: 3290335005 heartbeat IPC: 0.7273 cumulative IPC: 0.3252 (Simulation time: 04 hr 48 min 46 sec)
Heartbeat CPU 0 instructions: 1080000134 cycles: 3304557360 heartbeat IPC: 0.7031 cumulative IPC: 0.3268 (Simulation time: 04 hr 49 min 56 sec)
Heartbeat CPU 0 instructions: 1090000137 cycles: 3361825133 heartbeat IPC: 0.1746 cumulative IPC: 0.3242 (Simulation time: 04 hr 54 min 00 sec)
Heartbeat CPU 0 instructions: 1100000137 cycles: 3386656986 heartbeat IPC: 0.4027 cumulative IPC: 0.3248 (Simulation time: 04 hr 56 min 31 sec)
Heartbeat CPU 0 instructions: 1110000137 cycles: 3402410601 heartbeat IPC: 0.6348 cumulative IPC: 0.3262 (Simulation time: 04 hr 58 min 17 sec)
Heartbeat CPU 0 instructions: 1120000138 cycles: 3416055544 heartbeat IPC: 0.7329 cumulative IPC: 0.3279 (Simulation time: 04 hr 59 min 49 sec)
Heartbeat CPU 0 instructions: 1130000138 cycles: 3427489881 heartbeat IPC: 0.8746 cumulative IPC: 0.3297 (Simulation time: 05 hr 01 min 12 sec)
Heartbeat CPU 0 instructions: 1140000142 cycles: 3468713282 heartbeat IPC: 0.2426 cumulative IPC: 0.3287 (Simulation time: 05 hr 04 min 53 sec)
Heartbeat CPU 0 instructions: 1150000145 cycles: 3487574200 heartbeat IPC: 0.5302 cumulative IPC: 0.3297 (Simulation time: 05 hr 06 min 33 sec)
Heartbeat CPU 0 instructions: 1160000149 cycles: 3520624109 heartbeat IPC: 0.3026 cumulative IPC: 0.3295 (Simulation time: 05 hr 09 min 34 sec)
Heartbeat CPU 0 instructions: 1170000151 cycles: 3536427416 heartbeat IPC: 0.6328 cumulative IPC: 0.3308 (Simulation time: 05 hr 11 min 17 sec)
Heartbeat CPU 0 instructions: 1180000152 cycles: 3556033362 heartbeat IPC: 0.51 cumulative IPC: 0.3318 (Simulation time: 05 hr 13 min 26 sec)
Heartbeat CPU 0 instructions: 1190000154 cycles: 3605414818 heartbeat IPC: 0.2025 cumulative IPC: 0.3301 (Simulation time: 05 hr 18 min 13 sec)
Heartbeat CPU 0 instructions: 1200000156 cycles: 3621290011 heartbeat IPC: 0.6299 cumulative IPC: 0.3314 (Simulation time: 05 hr 19 min 53 sec)
Heartbeat CPU 0 instructions: 1210000156 cycles: 3647128011 heartbeat IPC: 0.387 cumulative IPC: 0.3318 (Simulation time: 05 hr 22 min 08 sec)
Heartbeat CPU 0 instructions: 1220000159 cycles: 3670377326 heartbeat IPC: 0.4301 cumulative IPC: 0.3324 (Simulation time: 05 hr 24 min 20 sec)
Heartbeat CPU 0 instructions: 1230000162 cycles: 3682172540 heartbeat IPC: 0.8478 cumulative IPC: 0.334 (Simulation time: 05 hr 25 min 25 sec)
Heartbeat CPU 0 instructions: 1240000164 cycles: 3695442858 heartbeat IPC: 0.7536 cumulative IPC: 0.3355 (Simulation time: 05 hr 26 min 29 sec)
Heartbeat CPU 0 instructions: 1250000167 cycles: 3733535971 heartbeat IPC: 0.2625 cumulative IPC: 0.3348 (Simulation time: 05 hr 29 min 59 sec)
Heartbeat CPU 0 instructions: 1260000170 cycles: 3750284628 heartbeat IPC: 0.5971 cumulative IPC: 0.336 (Simulation time: 05 hr 31 min 19 sec)
Heartbeat CPU 0 instructions: 1270000170 cycles: 3771491847 heartbeat IPC: 0.4715 cumulative IPC: 0.3367 (Simulation time: 05 hr 33 min 30 sec)
Heartbeat CPU 0 instructions: 1280000172 cycles: 3796572974 heartbeat IPC: 0.3987 cumulative IPC: 0.3371 (Simulation time: 05 hr 35 min 43 sec)
Heartbeat CPU 0 instructions: 1290000173 cycles: 3844009119 heartbeat IPC: 0.2108 cumulative IPC: 0.3356 (Simulation time: 05 hr 39 min 39 sec)
Heartbeat CPU 0 instructions: 1300000174 cycles: 3857303019 heartbeat IPC: 0.7522 cumulative IPC: 0.337 (Simulation time: 05 hr 41 min 02 sec)
Heartbeat CPU 0 instructions: 1310000175 cycles: 3872343714 heartbeat IPC: 0.6649 cumulative IPC: 0.3383 (Simulation time: 05 hr 42 min 27 sec)
Heartbeat CPU 0 instructions: 1320000178 cycles: 3885146339 heartbeat IPC: 0.7811 cumulative IPC: 0.3398 (Simulation time: 05 hr 43 min 41 sec)
Heartbeat CPU 0 instructions: 1330000178 cycles: 3916614372 heartbeat IPC: 0.3178 cumulative IPC: 0.3396 (Simulation time: 05 hr 45 min 53 sec)
Heartbeat CPU 0 instructions: 1340000182 cycles: 3973134288 heartbeat IPC: 0.1769 cumulative IPC: 0.3373 (Simulation time: 05 hr 50 min 21 sec)
Heartbeat CPU 0 instructions: 1350000182 cycles: 4010003460 heartbeat IPC: 0.2712 cumulative IPC: 0.3367 (Simulation time: 05 hr 54 min 06 sec)
Heartbeat CPU 0 instructions: 1360000185 cycles: 4023197360 heartbeat IPC: 0.7579 cumulative IPC: 0.338 (Simulation time: 05 hr 55 min 21 sec)
Heartbeat CPU 0 instructions: 1370000185 cycles: 4046462124 heartbeat IPC: 0.4298 cumulative IPC: 0.3386 (Simulation time: 05 hr 57 min 49 sec)
Heartbeat CPU 0 instructions: 1380000188 cycles: 4062465750 heartbeat IPC: 0.6249 cumulative IPC: 0.3397 (Simulation time: 05 hr 59 min 40 sec)
Heartbeat CPU 0 instructions: 1390000191 cycles: 4075681186 heartbeat IPC: 0.7567 cumulative IPC: 0.341 (Simulation time: 06 hr 01 min 12 sec)
Heartbeat CPU 0 instructions: 1400000193 cycles: 4090142945 heartbeat IPC: 0.6915 cumulative IPC: 0.3423 (Simulation time: 06 hr 02 min 53 sec)
Heartbeat CPU 0 instructions: 1410000194 cycles: 4113631708 heartbeat IPC: 0.4257 cumulative IPC: 0.3428 (Simulation time: 06 hr 04 min 52 sec)
Heartbeat CPU 0 instructions: 1420000195 cycles: 4125587402 heartbeat IPC: 0.8364 cumulative IPC: 0.3442 (Simulation time: 06 hr 05 min 53 sec)
Heartbeat CPU 0 instructions: 1430000197 cycles: 4140277159 heartbeat IPC: 0.6807 cumulative IPC: 0.3454 (Simulation time: 06 hr 07 min 01 sec)
Heartbeat CPU 0 instructions: 1440000197 cycles: 4184946667 heartbeat IPC: 0.2239 cumulative IPC: 0.3441 (Simulation time: 06 hr 10 min 50 sec)
Heartbeat CPU 0 instructions: 1450000200 cycles: 4208347650 heartbeat IPC: 0.4273 cumulative IPC: 0.3446 (Simulation time: 06 hr 13 min 21 sec)
Heartbeat CPU 0 instructions: 1460000200 cycles: 4222624771 heartbeat IPC: 0.7004 cumulative IPC: 0.3458 (Simulation time: 06 hr 15 min 01 sec)
Heartbeat CPU 0 instructions: 1470000204 cycles: 4237469305 heartbeat IPC: 0.6736 cumulative IPC: 0.3469 (Simulation time: 06 hr 16 min 45 sec)
Heartbeat CPU 0 instructions: 1480000208 cycles: 4253915266 heartbeat IPC: 0.6081 cumulative IPC: 0.3479 (Simulation time: 06 hr 18 min 35 sec)
Heartbeat CPU 0 instructions: 1490000208 cycles: 4302731865 heartbeat IPC: 0.2048 cumulative IPC: 0.3463 (Simulation time: 06 hr 23 min 12 sec)
Heartbeat CPU 0 instructions: 1500000211 cycles: 4317428993 heartbeat IPC: 0.6804 cumulative IPC: 0.3474 (Simulation time: 06 hr 24 min 53 sec)
Heartbeat CPU 0 instructions: 1510000214 cycles: 4330993512 heartbeat IPC: 0.7372 cumulative IPC: 0.3486 (Simulation time: 06 hr 26 min 28 sec)
Heartbeat CPU 0 instructions: 1520000214 cycles: 4346695184 heartbeat IPC: 0.6369 cumulative IPC: 0.3497 (Simulation time: 06 hr 28 min 10 sec)
Heartbeat CPU 0 instructions: 1530000214 cycles: 4386434431 heartbeat IPC: 0.2516 cumulative IPC: 0.3488 (Simulation time: 06 hr 32 min 05 sec)
Heartbeat CPU 0 instructions: 1540000218 cycles: 4435359504 heartbeat IPC: 0.2044 cumulative IPC: 0.3472 (Simulation time: 06 hr 36 min 46 sec)
Heartbeat CPU 0 instructions: 1550000221 cycles: 4484904058 heartbeat IPC: 0.2018 cumulative IPC: 0.3456 (Simulation time: 06 hr 41 min 31 sec)
Heartbeat CPU 0 instructions: 1560000225 cycles: 4533831672 heartbeat IPC: 0.2044 cumulative IPC: 0.3441 (Simulation time: 06 hr 45 min 07 sec)
Heartbeat CPU 0 instructions: 1570000228 cycles: 4585938330 heartbeat IPC: 0.1919 cumulative IPC: 0.3424 (Simulation time: 06 hr 48 min 59 sec)
Heartbeat CPU 0 instructions: 1580000232 cycles: 4653637343 heartbeat IPC: 0.1477 cumulative IPC: 0.3395 (Simulation time: 06 hr 54 min 32 sec)
Heartbeat CPU 0 instructions: 1590000233 cycles: 4723421920 heartbeat IPC: 0.1433 cumulative IPC: 0.3366 (Simulation time: 07 hr 00 min 46 sec)
Heartbeat CPU 0 instructions: 1600000236 cycles: 4775063369 heartbeat IPC: 0.1936 cumulative IPC: 0.3351 (Simulation time: 07 hr 05 min 43 sec)
Heartbeat CPU 0 instructions: 1610000236 cycles: 4791987399 heartbeat IPC: 0.5909 cumulative IPC: 0.336 (Simulation time: 07 hr 07 min 07 sec)
Heartbeat CPU 0 instructions: 1620000237 cycles: 4804708266 heartbeat IPC: 0.7861 cumulative IPC: 0.3372 (Simulation time: 07 hr 08 min 28 sec)
[VMEM] WARNING: Out of physical memory, freeing ppages
Heartbeat CPU 0 instructions: 1630000241 cycles: 4833951068 heartbeat IPC: 0.342 cumulative IPC: 0.3372 (Simulation time: 07 hr 11 min 24 sec)
Heartbeat CPU 0 instructions: 1640000244 cycles: 4852359261 heartbeat IPC: 0.5432 cumulative IPC: 0.338 (Simulation time: 07 hr 13 min 06 sec)
Heartbeat CPU 0 instructions: 1650000248 cycles: 4869361876 heartbeat IPC: 0.5881 cumulative IPC: 0.3389 (Simulation time: 07 hr 14 min 41 sec)
Heartbeat CPU 0 instructions: 1660000248 cycles: 4888892186 heartbeat IPC: 0.512 cumulative IPC: 0.3395 (Simulation time: 07 hr 16 min 21 sec)
Heartbeat CPU 0 instructions: 1670000252 cycles: 4931916196 heartbeat IPC: 0.2324 cumulative IPC: 0.3386 (Simulation time: 07 hr 20 min 25 sec)
Heartbeat CPU 0 instructions: 1680000256 cycles: 4970067699 heartbeat IPC: 0.2621 cumulative IPC: 0.338 (Simulation time: 07 hr 23 min 23 sec)
Heartbeat CPU 0 instructions: 1690000256 cycles: 4980788309 heartbeat IPC: 0.9328 cumulative IPC: 0.3393 (Simulation time: 07 hr 24 min 15 sec)
Heartbeat CPU 0 instructions: 1700000257 cycles: 4999923370 heartbeat IPC: 0.5226 cumulative IPC: 0.34 (Simulation time: 07 hr 25 min 38 sec)
Heartbeat CPU 0 instructions: 1710000257 cycles: 5018818917 heartbeat IPC: 0.5292 cumulative IPC: 0.3407 (Simulation time: 07 hr 27 min 01 sec)
Heartbeat CPU 0 instructions: 1720000261 cycles: 5035307380 heartbeat IPC: 0.6065 cumulative IPC: 0.3416 (Simulation time: 07 hr 28 min 13 sec)
Heartbeat CPU 0 instructions: 1730000262 cycles: 5047817062 heartbeat IPC: 0.7994 cumulative IPC: 0.3427 (Simulation time: 07 hr 29 min 12 sec)
Heartbeat CPU 0 instructions: 1740000265 cycles: 5077973133 heartbeat IPC: 0.3316 cumulative IPC: 0.3427 (Simulation time: 07 hr 31 min 45 sec)
Heartbeat CPU 0 instructions: 1750000265 cycles: 5091377698 heartbeat IPC: 0.746 cumulative IPC: 0.3437 (Simulation time: 07 hr 33 min 21 sec)
Heartbeat CPU 0 instructions: 1760000265 cycles: 5117539906 heartbeat IPC: 0.3822 cumulative IPC: 0.3439 (Simulation time: 07 hr 35 min 44 sec)
Heartbeat CPU 0 instructions: 1770000265 cycles: 5134688060 heartbeat IPC: 0.5832 cumulative IPC: 0.3447 (Simulation time: 07 hr 37 min 15 sec)
Heartbeat CPU 0 instructions: 1780000266 cycles: 5164837316 heartbeat IPC: 0.3317 cumulative IPC: 0.3446 (Simulation time: 07 hr 39 min 41 sec)
Heartbeat CPU 0 instructions: 1790000268 cycles: 5233790829 heartbeat IPC: 0.145 cumulative IPC: 0.342 (Simulation time: 07 hr 44 min 35 sec)
Heartbeat CPU 0 instructions: 1800000269 cycles: 5269175208 heartbeat IPC: 0.2826 cumulative IPC: 0.3416 (Simulation time: 07 hr 47 min 14 sec)
Heartbeat CPU 0 instructions: 1810000270 cycles: 5282847894 heartbeat IPC: 0.7314 cumulative IPC: 0.3426 (Simulation time: 07 hr 48 min 18 sec)
Heartbeat CPU 0 instructions: 1820000274 cycles: 5315773305 heartbeat IPC: 0.3037 cumulative IPC: 0.3424 (Simulation time: 07 hr 51 min 39 sec)
Heartbeat CPU 0 instructions: 1830000275 cycles: 5329526100 heartbeat IPC: 0.7271 cumulative IPC: 0.3434 (Simulation time: 07 hr 52 min 59 sec)
Heartbeat CPU 0 instructions: 1840000276 cycles: 5338984265 heartbeat IPC: 1.057 cumulative IPC: 0.3446 (Simulation time: 07 hr 54 min 11 sec)
Heartbeat CPU 0 instructions: 1850000276 cycles: 5355559825 heartbeat IPC: 0.6033 cumulative IPC: 0.3454 (Simulation time: 07 hr 55 min 43 sec)
Heartbeat CPU 0 instructions: 1860000280 cycles: 5380949869 heartbeat IPC: 0.3939 cumulative IPC: 0.3457 (Simulation time: 07 hr 58 min 12 sec)
Heartbeat CPU 0 instructions: 1870000280 cycles: 5406835326 heartbeat IPC: 0.3863 cumulative IPC: 0.3459 (Simulation time: 08 hr 00 min 59 sec)
Heartbeat CPU 0 instructions: 1880000281 cycles: 5419695165 heartbeat IPC: 0.7776 cumulative IPC: 0.3469 (Simulation time: 08 hr 02 min 31 sec)
Heartbeat CPU 0 instructions: 1890000283 cycles: 5444575005 heartbeat IPC: 0.4019 cumulative IPC: 0.3471 (Simulation time: 08 hr 05 min 09 sec)
Heartbeat CPU 0 instructions: 1900000283 cycles: 5456137900 heartbeat IPC: 0.8648 cumulative IPC: 0.3482 (Simulation time: 08 hr 06 min 14 sec)
Heartbeat CPU 0 instructions: 1910000283 cycles: 5469957138 heartbeat IPC: 0.7236 cumulative IPC: 0.3492 (Simulation time: 08 hr 07 min 46 sec)
Heartbeat CPU 0 instructions: 1920000283 cycles: 5481502583 heartbeat IPC: 0.8661 cumulative IPC: 0.3503 (Simulation time: 08 hr 09 min 05 sec)
Heartbeat CPU 0 instructions: 1930000286 cycles: 5505891297 heartbeat IPC: 0.41 cumulative IPC: 0.3505 (Simulation time: 08 hr 11 min 10 sec)
Heartbeat CPU 0 instructions: 1940000287 cycles: 5519844525 heartbeat IPC: 0.7167 cumulative IPC: 0.3515 (Simulation time: 08 hr 12 min 25 sec)
Heartbeat CPU 0 instructions: 1950000291 cycles: 5540570433 heartbeat IPC: 0.4825 cumulative IPC: 0.3519 (Simulation time: 08 hr 14 min 04 sec)
Heartbeat CPU 0 instructions: 1960000291 cycles: 5554996141 heartbeat IPC: 0.6932 cumulative IPC: 0.3528 (Simulation time: 08 hr 15 min 44 sec)
Heartbeat CPU 0 instructions: 1970000292 cycles: 5587105130 heartbeat IPC: 0.3114 cumulative IPC: 0.3526 (Simulation time: 08 hr 18 min 55 sec)
Heartbeat CPU 0 instructions: 1980000293 cycles: 5646819277 heartbeat IPC: 0.1675 cumulative IPC: 0.3506 (Simulation time: 08 hr 24 min 32 sec)
Heartbeat CPU 0 instructions: 1990000293 cycles: 5706536577 heartbeat IPC: 0.1675 cumulative IPC: 0.3487 (Simulation time: 08 hr 30 min 08 sec)

=== ERROR PAGE STATISTICS ===
Mode: CYCLE
Error Cycle Interval: 7053240154 CPU cycles
Total Error Accesses: 0
==============================
Simulation finished CPU 0 instructions: 1999999938 cycles: 5763382848 cumulative IPC: 0.347 (Simulation time: 08 hr 35 min 29 sec)
Simulation complete CPU 0 instructions: 1999999938 cycles: 5763382848 cumulative IPC: 0.347 (Simulation time: 08 hr 35 min 29 sec)

ChampSim completed all CPUs

=== Simulation ===
CPU 0 runs test_traces/605.mcf_s-994B.champsimtrace.xz

Region of Interest Statistics

CPU 0 cumulative IPC: 0.347 instructions: 1999999938 cycles: 5763382848
CPU 0 Branch Prediction Accuracy: 92.62% MPKI: 18.99 Average ROB Occupancy at Mispredict: 34.57
Branch type MPKI
BRANCH_DIRECT_JUMP: 0.123
BRANCH_INDIRECT: 0
BRANCH_CONDITIONAL: 18.86
BRANCH_DIRECT_CALL: 6.5e-06
BRANCH_INDIRECT_CALL: 0.0004185
BRANCH_RETURN: 1e-05

cpu0->cpu0_STLB TOTAL        ACCESS:   24265380 HIT:   11227743 MISS:   13037637 MSHR_MERGE:          0
cpu0->cpu0_STLB LOAD         ACCESS:   24265380 HIT:   11227743 MISS:   13037637 MSHR_MERGE:          0
cpu0->cpu0_STLB RFO          ACCESS:          0 HIT:          0 MISS:          0 MSHR_MERGE:          0
cpu0->cpu0_STLB PREFETCH     ACCESS:          0 HIT:          0 MISS:          0 MSHR_MERGE:          0
cpu0->cpu0_STLB WRITE        ACCESS:          0 HIT:          0 MISS:          0 MSHR_MERGE:          0
cpu0->cpu0_STLB TRANSLATION  ACCESS:          0 HIT:          0 MISS:          0 MSHR_MERGE:          0
cpu0->cpu0_STLB PREFETCH REQUESTED:          0 ISSUED:          0 USEFUL:          0 USELESS:          0
cpu0->cpu0_STLB AVERAGE MISS LATENCY: 234.1 cycles
cpu0->cpu0_L2C TOTAL        ACCESS:   81182088 HIT:   27442003 MISS:   53740085 MSHR_MERGE:          0
cpu0->cpu0_L2C LOAD         ACCESS:   75044090 HIT:   21368202 MISS:   53675888 MSHR_MERGE:          0
cpu0->cpu0_L2C RFO          ACCESS:     492998 HIT:     433128 MISS:      59870 MSHR_MERGE:          0
cpu0->cpu0_L2C PREFETCH     ACCESS:          0 HIT:          0 MISS:          0 MSHR_MERGE:          0
cpu0->cpu0_L2C WRITE        ACCESS:    5645000 HIT:    5640673 MISS:       4327 MSHR_MERGE:          0
cpu0->cpu0_L2C TRANSLATION  ACCESS:          0 HIT:          0 MISS:          0 MSHR_MERGE:          0
cpu0->cpu0_L2C PREFETCH REQUESTED:          0 ISSUED:          0 USEFUL:          0 USELESS:          0
cpu0->cpu0_L2C AVERAGE MISS LATENCY: 92.29 cycles
cpu0->cpu0_L1I TOTAL        ACCESS:    3226821 HIT:    3226730 MISS:         91 MSHR_MERGE:         25
cpu0->cpu0_L1I LOAD         ACCESS:    3226821 HIT:    3226730 MISS:         91 MSHR_MERGE:         25
cpu0->cpu0_L1I RFO          ACCESS:          0 HIT:          0 MISS:          0 MSHR_MERGE:          0
cpu0->cpu0_L1I PREFETCH     ACCESS:          0 HIT:          0 MISS:          0 MSHR_MERGE:          0
cpu0->cpu0_L1I WRITE        ACCESS:          0 HIT:          0 MISS:          0 MSHR_MERGE:          0
cpu0->cpu0_L1I TRANSLATION  ACCESS:          0 HIT:          0 MISS:          0 MSHR_MERGE:          0
cpu0->cpu0_L1I PREFETCH REQUESTED:          0 ISSUED:          0 USEFUL:          0 USELESS:          0
cpu0->cpu0_L1I AVERAGE MISS LATENCY: 125.5 cycles
cpu0->cpu0_L1D TOTAL        ACCESS:  806976859 HIT:  724739136 MISS:   82237723 MSHR_MERGE:    6700041
cpu0->cpu0_L1D LOAD         ACCESS:  606395211 HIT:  525539520 MISS:   80855691 MSHR_MERGE:    5811645
cpu0->cpu0_L1D RFO          ACCESS:          0 HIT:          0 MISS:          0 MSHR_MERGE:          0
cpu0->cpu0_L1D PREFETCH     ACCESS:          0 HIT:          0 MISS:          0 MSHR_MERGE:          0
cpu0->cpu0_L1D WRITE        ACCESS:  200581648 HIT:  199199616 MISS:    1382032 MSHR_MERGE:     888396
cpu0->cpu0_L1D TRANSLATION  ACCESS:          0 HIT:          0 MISS:          0 MSHR_MERGE:          0
cpu0->cpu0_L1D PREFETCH REQUESTED:          0 ISSUED:          0 USEFUL:          0 USELESS:          0
cpu0->cpu0_L1D AVERAGE MISS LATENCY: 74.57 cycles
cpu0->cpu0_ITLB TOTAL        ACCESS:    3076484 HIT:    3076477 MISS:          7 MSHR_MERGE:          1
cpu0->cpu0_ITLB LOAD         ACCESS:    3076484 HIT:    3076477 MISS:          7 MSHR_MERGE:          1
cpu0->cpu0_ITLB RFO          ACCESS:          0 HIT:          0 MISS:          0 MSHR_MERGE:          0
cpu0->cpu0_ITLB PREFETCH     ACCESS:          0 HIT:          0 MISS:          0 MSHR_MERGE:          0
cpu0->cpu0_ITLB WRITE        ACCESS:          0 HIT:          0 MISS:          0 MSHR_MERGE:          0
cpu0->cpu0_ITLB TRANSLATION  ACCESS:          0 HIT:          0 MISS:          0 MSHR_MERGE:          0
cpu0->cpu0_ITLB PREFETCH REQUESTED:          0 ISSUED:          0 USEFUL:          0 USELESS:          0
cpu0->cpu0_ITLB AVERAGE MISS LATENCY: 690 cycles
cpu0->cpu0_DTLB TOTAL        ACCESS:  721871966 HIT:  688508059 MISS:   33363907 MSHR_MERGE:    9098533
cpu0->cpu0_DTLB LOAD         ACCESS:  721871966 HIT:  688508059 MISS:   33363907 MSHR_MERGE:    9098533
cpu0->cpu0_DTLB RFO          ACCESS:          0 HIT:          0 MISS:          0 MSHR_MERGE:          0
cpu0->cpu0_DTLB PREFETCH     ACCESS:          0 HIT:          0 MISS:          0 MSHR_MERGE:          0
cpu0->cpu0_DTLB WRITE        ACCESS:          0 HIT:          0 MISS:          0 MSHR_MERGE:          0
cpu0->cpu0_DTLB TRANSLATION  ACCESS:          0 HIT:          0 MISS:          0 MSHR_MERGE:          0
cpu0->cpu0_DTLB PREFETCH REQUESTED:          0 ISSUED:          0 USEFUL:          0 USELESS:          0
cpu0->cpu0_DTLB AVERAGE MISS LATENCY: 131.4 cycles
cpu0->LLC TOTAL        ACCESS:   57699149 HIT:   16604513 MISS:   41094636 MSHR_MERGE:          0
cpu0->LLC LOAD         ACCESS:   53675888 HIT:   12600961 MISS:   41074927 MSHR_MERGE:          0
cpu0->LLC RFO          ACCESS:      59870 HIT:      41431 MISS:      18439 MSHR_MERGE:          0
cpu0->LLC PREFETCH     ACCESS:          0 HIT:          0 MISS:          0 MSHR_MERGE:          0
cpu0->LLC WRITE        ACCESS:    3963391 HIT:    3962121 MISS:       1270 MSHR_MERGE:          0
cpu0->LLC TRANSLATION  ACCESS:          0 HIT:          0 MISS:          0 MSHR_MERGE:          0
cpu0->LLC PREFETCH REQUESTED:          0 ISSUED:          0 USEFUL:          0 USELESS:          0
cpu0->LLC AVERAGE MISS LATENCY: 100.1 cycles

DRAM Statistics

Channel 0 RQ ROW_BUFFER_HIT:     487691
  ROW_BUFFER_MISS:   36059386
  AVG DBUS CONGESTED CYCLE: 9.428
Channel 0 WQ ROW_BUFFER_HIT:     379683
  ROW_BUFFER_MISS:    1201212
  FULL:          0
Channel 0 REFRESHES ISSUED:     480251

Channel 1 RQ ROW_BUFFER_HIT:     499495
  ROW_BUFFER_MISS:   36280623
  AVG DBUS CONGESTED CYCLE: 9.422
Channel 1 WQ ROW_BUFFER_HIT:     380624
  ROW_BUFFER_MISS:    1200055
  FULL:          0
Channel 1 REFRESHES ISSUED:     480251
