[VMEM] WARNING: physical memory size is smaller than virtual memory size.

*** ChampSim Multicore Out-of-Order Simulator ***
Warmup Instructions: 0
Simulation Instructions: 9223372036854775807
Number of CPUs: 1
Page size: 4096

Off-chip DRAM Size: 32 GiB Channels: 2 Width: 32-bit Data Rate: 4807 MT/s
[ERROR_PAGE_MANAGER] Error latency: 173500 
[ERROR_PAGE_MANAGER] Random seed: 54321 (fixed for preload reproducibility)
[ERROR_PAGE_MANAGER] Cycle-based error modeling enabled
[ERROR_PAGE_MANAGER] Errors per interval: 1
[ERROR_PAGE_MANAGER] Error cycle interval: 7053240154 cycles

=== ERROR PAGE STATISTICS ===
Mode: CYCLE
Error Cycle Interval: 7053240154 CPU cycles
Total Error Accesses: 0
==============================
Warmup finished CPU 0 instructions: 0 cycles: 1 cumulative IPC: 0 (Simulation time: 00 hr 00 min 01 sec)
Warmup complete CPU 0 instructions: 0 cycles: 1 cumulative IPC: 0 (Simulation time: 00 hr 00 min 01 sec)
Heartbeat CPU 0 instructions: 10000002 cycles: 6804523 heartbeat IPC: 1.47 cumulative IPC: 1.47 (Simulation time: 00 hr 00 min 56 sec)
Heartbeat CPU 0 instructions: 20000003 cycles: 13058993 heartbeat IPC: 1.599 cumulative IPC: 1.532 (Simulation time: 00 hr 01 min 49 sec)
Heartbeat CPU 0 instructions: 30000006 cycles: 19304243 heartbeat IPC: 1.601 cumulative IPC: 1.554 (Simulation time: 00 hr 02 min 37 sec)
Heartbeat CPU 0 instructions: 40000006 cycles: 25531036 heartbeat IPC: 1.606 cumulative IPC: 1.567 (Simulation time: 00 hr 03 min 19 sec)
Heartbeat CPU 0 instructions: 50000010 cycles: 31640791 heartbeat IPC: 1.637 cumulative IPC: 1.58 (Simulation time: 00 hr 03 min 54 sec)
Heartbeat CPU 0 instructions: 60000011 cycles: 37730560 heartbeat IPC: 1.642 cumulative IPC: 1.59 (Simulation time: 00 hr 04 min 46 sec)
Heartbeat CPU 0 instructions: 70000011 cycles: 43650088 heartbeat IPC: 1.689 cumulative IPC: 1.604 (Simulation time: 00 hr 05 min 36 sec)
Heartbeat CPU 0 instructions: 80000014 cycles: 49212251 heartbeat IPC: 1.798 cumulative IPC: 1.626 (Simulation time: 00 hr 06 min 21 sec)
Heartbeat CPU 0 instructions: 90000016 cycles: 55629423 heartbeat IPC: 1.558 cumulative IPC: 1.618 (Simulation time: 00 hr 07 min 11 sec)
Heartbeat CPU 0 instructions: 100000020 cycles: 61336563 heartbeat IPC: 1.752 cumulative IPC: 1.63 (Simulation time: 00 hr 08 min 00 sec)
Heartbeat CPU 0 instructions: 110000020 cycles: 67474801 heartbeat IPC: 1.629 cumulative IPC: 1.63 (Simulation time: 00 hr 08 min 51 sec)
Heartbeat CPU 0 instructions: 120000021 cycles: 72865714 heartbeat IPC: 1.855 cumulative IPC: 1.647 (Simulation time: 00 hr 09 min 34 sec)
Heartbeat CPU 0 instructions: 130000023 cycles: 78031239 heartbeat IPC: 1.936 cumulative IPC: 1.666 (Simulation time: 00 hr 10 min 17 sec)
Heartbeat CPU 0 instructions: 140000023 cycles: 82185902 heartbeat IPC: 2.407 cumulative IPC: 1.703 (Simulation time: 00 hr 10 min 53 sec)
Heartbeat CPU 0 instructions: 150000026 cycles: 86682501 heartbeat IPC: 2.224 cumulative IPC: 1.73 (Simulation time: 00 hr 11 min 29 sec)
Heartbeat CPU 0 instructions: 160000026 cycles: 91047271 heartbeat IPC: 2.291 cumulative IPC: 1.757 (Simulation time: 00 hr 12 min 06 sec)
Heartbeat CPU 0 instructions: 170000030 cycles: 96093965 heartbeat IPC: 1.981 cumulative IPC: 1.769 (Simulation time: 00 hr 12 min 49 sec)
Heartbeat CPU 0 instructions: 180000030 cycles: 102388006 heartbeat IPC: 1.589 cumulative IPC: 1.758 (Simulation time: 00 hr 13 min 42 sec)
Heartbeat CPU 0 instructions: 190000030 cycles: 108697805 heartbeat IPC: 1.585 cumulative IPC: 1.748 (Simulation time: 00 hr 14 min 37 sec)
Heartbeat CPU 0 instructions: 200000032 cycles: 115027202 heartbeat IPC: 1.58 cumulative IPC: 1.739 (Simulation time: 00 hr 15 min 32 sec)
Heartbeat CPU 0 instructions: 210000032 cycles: 121363897 heartbeat IPC: 1.578 cumulative IPC: 1.73 (Simulation time: 00 hr 16 min 24 sec)
Heartbeat CPU 0 instructions: 220000032 cycles: 127674199 heartbeat IPC: 1.585 cumulative IPC: 1.723 (Simulation time: 00 hr 17 min 01 sec)
Heartbeat CPU 0 instructions: 230000035 cycles: 133978394 heartbeat IPC: 1.586 cumulative IPC: 1.717 (Simulation time: 00 hr 17 min 55 sec)
Heartbeat CPU 0 instructions: 240000036 cycles: 140241975 heartbeat IPC: 1.597 cumulative IPC: 1.711 (Simulation time: 00 hr 18 min 50 sec)
Heartbeat CPU 0 instructions: 250000039 cycles: 146255314 heartbeat IPC: 1.663 cumulative IPC: 1.709 (Simulation time: 00 hr 19 min 44 sec)
Heartbeat CPU 0 instructions: 260000043 cycles: 152755338 heartbeat IPC: 1.538 cumulative IPC: 1.702 (Simulation time: 00 hr 20 min 38 sec)
Heartbeat CPU 0 instructions: 270000044 cycles: 159005043 heartbeat IPC: 1.6 cumulative IPC: 1.698 (Simulation time: 00 hr 21 min 28 sec)
Heartbeat CPU 0 instructions: 280000046 cycles: 165015993 heartbeat IPC: 1.664 cumulative IPC: 1.697 (Simulation time: 00 hr 22 min 21 sec)
Heartbeat CPU 0 instructions: 290000050 cycles: 171240738 heartbeat IPC: 1.606 cumulative IPC: 1.694 (Simulation time: 00 hr 23 min 14 sec)
Heartbeat CPU 0 instructions: 300000050 cycles: 176798308 heartbeat IPC: 1.799 cumulative IPC: 1.697 (Simulation time: 00 hr 24 min 02 sec)
Heartbeat CPU 0 instructions: 310000051 cycles: 182173651 heartbeat IPC: 1.86 cumulative IPC: 1.702 (Simulation time: 00 hr 24 min 47 sec)
Heartbeat CPU 0 instructions: 320000051 cycles: 186583651 heartbeat IPC: 2.268 cumulative IPC: 1.715 (Simulation time: 00 hr 25 min 25 sec)
Heartbeat CPU 0 instructions: 330000055 cycles: 192045811 heartbeat IPC: 1.831 cumulative IPC: 1.718 (Simulation time: 00 hr 26 min 08 sec)
Heartbeat CPU 0 instructions: 340000056 cycles: 196843463 heartbeat IPC: 2.084 cumulative IPC: 1.727 (Simulation time: 00 hr 26 min 48 sec)
Heartbeat CPU 0 instructions: 350000056 cycles: 201806862 heartbeat IPC: 2.015 cumulative IPC: 1.734 (Simulation time: 00 hr 27 min 30 sec)
Heartbeat CPU 0 instructions: 360000058 cycles: 208109623 heartbeat IPC: 1.587 cumulative IPC: 1.73 (Simulation time: 00 hr 28 min 23 sec)
Heartbeat CPU 0 instructions: 370000059 cycles: 214570850 heartbeat IPC: 1.548 cumulative IPC: 1.724 (Simulation time: 00 hr 29 min 20 sec)
Heartbeat CPU 0 instructions: 380000059 cycles: 221052534 heartbeat IPC: 1.543 cumulative IPC: 1.719 (Simulation time: 00 hr 30 min 17 sec)
Heartbeat CPU 0 instructions: 390000059 cycles: 227548906 heartbeat IPC: 1.539 cumulative IPC: 1.714 (Simulation time: 00 hr 30 min 59 sec)
Heartbeat CPU 0 instructions: 400000059 cycles: 234011970 heartbeat IPC: 1.547 cumulative IPC: 1.709 (Simulation time: 00 hr 31 min 39 sec)
Heartbeat CPU 0 instructions: 410000063 cycles: 240449403 heartbeat IPC: 1.553 cumulative IPC: 1.705 (Simulation time: 00 hr 32 min 19 sec)
Heartbeat CPU 0 instructions: 420000063 cycles: 246810204 heartbeat IPC: 1.572 cumulative IPC: 1.702 (Simulation time: 00 hr 32 min 59 sec)
Heartbeat CPU 0 instructions: 430000065 cycles: 252999764 heartbeat IPC: 1.616 cumulative IPC: 1.7 (Simulation time: 00 hr 33 min 38 sec)
Heartbeat CPU 0 instructions: 440000065 cycles: 258644792 heartbeat IPC: 1.771 cumulative IPC: 1.701 (Simulation time: 00 hr 34 min 15 sec)
Heartbeat CPU 0 instructions: 450000066 cycles: 265876475 heartbeat IPC: 1.383 cumulative IPC: 1.693 (Simulation time: 00 hr 35 min 07 sec)
Heartbeat CPU 0 instructions: 460000069 cycles: 271445685 heartbeat IPC: 1.796 cumulative IPC: 1.695 (Simulation time: 00 hr 35 min 56 sec)
Heartbeat CPU 0 instructions: 470000072 cycles: 277915809 heartbeat IPC: 1.546 cumulative IPC: 1.691 (Simulation time: 00 hr 36 min 51 sec)
Heartbeat CPU 0 instructions: 480000072 cycles: 283710269 heartbeat IPC: 1.726 cumulative IPC: 1.692 (Simulation time: 00 hr 37 min 42 sec)
Heartbeat CPU 0 instructions: 490000072 cycles: 288620701 heartbeat IPC: 2.036 cumulative IPC: 1.698 (Simulation time: 00 hr 38 min 23 sec)
Heartbeat CPU 0 instructions: 500000075 cycles: 293565005 heartbeat IPC: 2.023 cumulative IPC: 1.703 (Simulation time: 00 hr 39 min 04 sec)
Heartbeat CPU 0 instructions: 510000076 cycles: 298227953 heartbeat IPC: 2.145 cumulative IPC: 1.71 (Simulation time: 00 hr 39 min 42 sec)
Heartbeat CPU 0 instructions: 520000078 cycles: 303839667 heartbeat IPC: 1.782 cumulative IPC: 1.711 (Simulation time: 00 hr 40 min 27 sec)
Heartbeat CPU 0 instructions: 530000079 cycles: 308372512 heartbeat IPC: 2.206 cumulative IPC: 1.719 (Simulation time: 00 hr 41 min 05 sec)
Heartbeat CPU 0 instructions: 540000079 cycles: 314390999 heartbeat IPC: 1.662 cumulative IPC: 1.718 (Simulation time: 00 hr 41 min 55 sec)
Heartbeat CPU 0 instructions: 550000079 cycles: 320721117 heartbeat IPC: 1.58 cumulative IPC: 1.715 (Simulation time: 00 hr 42 min 50 sec)
Heartbeat CPU 0 instructions: 560000081 cycles: 327064196 heartbeat IPC: 1.577 cumulative IPC: 1.712 (Simulation time: 00 hr 43 min 47 sec)
Heartbeat CPU 0 instructions: 570000084 cycles: 333441993 heartbeat IPC: 1.568 cumulative IPC: 1.709 (Simulation time: 00 hr 44 min 43 sec)
Heartbeat CPU 0 instructions: 580000084 cycles: 339791981 heartbeat IPC: 1.575 cumulative IPC: 1.707 (Simulation time: 00 hr 45 min 39 sec)
Heartbeat CPU 0 instructions: 590000084 cycles: 346119205 heartbeat IPC: 1.58 cumulative IPC: 1.705 (Simulation time: 00 hr 46 min 35 sec)
Heartbeat CPU 0 instructions: 600000087 cycles: 352387797 heartbeat IPC: 1.595 cumulative IPC: 1.703 (Simulation time: 00 hr 47 min 30 sec)
Heartbeat CPU 0 instructions: 610000090 cycles: 358720602 heartbeat IPC: 1.579 cumulative IPC: 1.7 (Simulation time: 00 hr 48 min 26 sec)
Heartbeat CPU 0 instructions: 620000094 cycles: 363670121 heartbeat IPC: 2.02 cumulative IPC: 1.705 (Simulation time: 00 hr 49 min 11 sec)
Heartbeat CPU 0 instructions: 630000096 cycles: 371859058 heartbeat IPC: 1.221 cumulative IPC: 1.694 (Simulation time: 00 hr 50 min 13 sec)
Heartbeat CPU 0 instructions: 640000096 cycles: 377885302 heartbeat IPC: 1.659 cumulative IPC: 1.694 (Simulation time: 00 hr 51 min 03 sec)
Heartbeat CPU 0 instructions: 650000096 cycles: 384148262 heartbeat IPC: 1.597 cumulative IPC: 1.692 (Simulation time: 00 hr 51 min 56 sec)
Heartbeat CPU 0 instructions: 660000097 cycles: 390351367 heartbeat IPC: 1.612 cumulative IPC: 1.691 (Simulation time: 00 hr 52 min 52 sec)
Heartbeat CPU 0 instructions: 670000097 cycles: 395069837 heartbeat IPC: 2.119 cumulative IPC: 1.696 (Simulation time: 00 hr 53 min 32 sec)
Heartbeat CPU 0 instructions: 680000097 cycles: 400766903 heartbeat IPC: 1.755 cumulative IPC: 1.697 (Simulation time: 00 hr 54 min 19 sec)
Heartbeat CPU 0 instructions: 690000101 cycles: 404371297 heartbeat IPC: 2.774 cumulative IPC: 1.706 (Simulation time: 00 hr 54 min 50 sec)
Heartbeat CPU 0 instructions: 700000105 cycles: 410629505 heartbeat IPC: 1.598 cumulative IPC: 1.705 (Simulation time: 00 hr 55 min 38 sec)
Heartbeat CPU 0 instructions: 710000106 cycles: 415558352 heartbeat IPC: 2.029 cumulative IPC: 1.709 (Simulation time: 00 hr 56 min 20 sec)
Heartbeat CPU 0 instructions: 720000107 cycles: 421068098 heartbeat IPC: 1.815 cumulative IPC: 1.71 (Simulation time: 00 hr 57 min 06 sec)
Heartbeat CPU 0 instructions: 730000109 cycles: 427716100 heartbeat IPC: 1.504 cumulative IPC: 1.707 (Simulation time: 00 hr 58 min 04 sec)
Heartbeat CPU 0 instructions: 740000109 cycles: 434039035 heartbeat IPC: 1.582 cumulative IPC: 1.705 (Simulation time: 00 hr 59 min 01 sec)
Heartbeat CPU 0 instructions: 750000112 cycles: 440419243 heartbeat IPC: 1.567 cumulative IPC: 1.703 (Simulation time: 00 hr 59 min 58 sec)
Heartbeat CPU 0 instructions: 760000113 cycles: 446764231 heartbeat IPC: 1.576 cumulative IPC: 1.701 (Simulation time: 01 hr 00 min 55 sec)
Heartbeat CPU 0 instructions: 770000113 cycles: 453169515 heartbeat IPC: 1.561 cumulative IPC: 1.699 (Simulation time: 01 hr 01 min 52 sec)
Heartbeat CPU 0 instructions: 780000113 cycles: 459608990 heartbeat IPC: 1.553 cumulative IPC: 1.697 (Simulation time: 01 hr 02 min 50 sec)
Heartbeat CPU 0 instructions: 790000117 cycles: 466050678 heartbeat IPC: 1.552 cumulative IPC: 1.695 (Simulation time: 01 hr 03 min 46 sec)
Heartbeat CPU 0 instructions: 800000117 cycles: 471594220 heartbeat IPC: 1.804 cumulative IPC: 1.696 (Simulation time: 01 hr 04 min 35 sec)
Heartbeat CPU 0 instructions: 810000118 cycles: 479082029 heartbeat IPC: 1.336 cumulative IPC: 1.691 (Simulation time: 01 hr 05 min 34 sec)
Heartbeat CPU 0 instructions: 820000118 cycles: 485162562 heartbeat IPC: 1.645 cumulative IPC: 1.69 (Simulation time: 01 hr 06 min 22 sec)
Heartbeat CPU 0 instructions: 830000119 cycles: 491063217 heartbeat IPC: 1.695 cumulative IPC: 1.69 (Simulation time: 01 hr 07 min 06 sec)
Heartbeat CPU 0 instructions: 840000120 cycles: 496885499 heartbeat IPC: 1.718 cumulative IPC: 1.691 (Simulation time: 01 hr 07 min 55 sec)
Heartbeat CPU 0 instructions: 850000121 cycles: 502366642 heartbeat IPC: 1.824 cumulative IPC: 1.692 (Simulation time: 01 hr 08 min 43 sec)
Heartbeat CPU 0 instructions: 860000122 cycles: 507896984 heartbeat IPC: 1.808 cumulative IPC: 1.693 (Simulation time: 01 hr 09 min 31 sec)
Heartbeat CPU 0 instructions: 870000123 cycles: 512180957 heartbeat IPC: 2.334 cumulative IPC: 1.699 (Simulation time: 01 hr 10 min 07 sec)
Heartbeat CPU 0 instructions: 880000126 cycles: 518247571 heartbeat IPC: 1.648 cumulative IPC: 1.698 (Simulation time: 01 hr 10 min 56 sec)
Heartbeat CPU 0 instructions: 890000126 cycles: 523369924 heartbeat IPC: 1.952 cumulative IPC: 1.701 (Simulation time: 01 hr 11 min 38 sec)
Heartbeat CPU 0 instructions: 900000130 cycles: 528328806 heartbeat IPC: 2.017 cumulative IPC: 1.703 (Simulation time: 01 hr 12 min 11 sec)
Heartbeat CPU 0 instructions: 910000130 cycles: 534587842 heartbeat IPC: 1.598 cumulative IPC: 1.702 (Simulation time: 01 hr 12 min 49 sec)
Heartbeat CPU 0 instructions: 920000132 cycles: 540900086 heartbeat IPC: 1.584 cumulative IPC: 1.701 (Simulation time: 01 hr 13 min 31 sec)
Heartbeat CPU 0 instructions: 930000133 cycles: 547245994 heartbeat IPC: 1.576 cumulative IPC: 1.699 (Simulation time: 01 hr 14 min 07 sec)
Heartbeat CPU 0 instructions: 940000133 cycles: 553543161 heartbeat IPC: 1.588 cumulative IPC: 1.698 (Simulation time: 01 hr 14 min 47 sec)
Heartbeat CPU 0 instructions: 950000133 cycles: 559821201 heartbeat IPC: 1.593 cumulative IPC: 1.697 (Simulation time: 01 hr 15 min 26 sec)
Heartbeat CPU 0 instructions: 960000134 cycles: 566098430 heartbeat IPC: 1.593 cumulative IPC: 1.696 (Simulation time: 01 hr 16 min 03 sec)
Heartbeat CPU 0 instructions: 970000137 cycles: 572489382 heartbeat IPC: 1.565 cumulative IPC: 1.694 (Simulation time: 01 hr 16 min 41 sec)
Heartbeat CPU 0 instructions: 980000138 cycles: 578909133 heartbeat IPC: 1.558 cumulative IPC: 1.693 (Simulation time: 01 hr 17 min 24 sec)
Heartbeat CPU 0 instructions: 990000139 cycles: 584327493 heartbeat IPC: 1.846 cumulative IPC: 1.694 (Simulation time: 01 hr 18 min 02 sec)
Heartbeat CPU 0 instructions: 1000000141 cycles: 591840258 heartbeat IPC: 1.331 cumulative IPC: 1.69 (Simulation time: 01 hr 18 min 49 sec)
Heartbeat CPU 0 instructions: 1010000142 cycles: 597544374 heartbeat IPC: 1.753 cumulative IPC: 1.69 (Simulation time: 01 hr 19 min 40 sec)
Heartbeat CPU 0 instructions: 1020000143 cycles: 604003916 heartbeat IPC: 1.548 cumulative IPC: 1.689 (Simulation time: 01 hr 20 min 35 sec)
Heartbeat CPU 0 instructions: 1030000147 cycles: 609904028 heartbeat IPC: 1.695 cumulative IPC: 1.689 (Simulation time: 01 hr 21 min 27 sec)
Heartbeat CPU 0 instructions: 1040000147 cycles: 614967209 heartbeat IPC: 1.975 cumulative IPC: 1.691 (Simulation time: 01 hr 22 min 01 sec)
Heartbeat CPU 0 instructions: 1050000147 cycles: 620213834 heartbeat IPC: 1.906 cumulative IPC: 1.693 (Simulation time: 01 hr 22 min 29 sec)
Heartbeat CPU 0 instructions: 1060000151 cycles: 624801253 heartbeat IPC: 2.18 cumulative IPC: 1.697 (Simulation time: 01 hr 22 min 53 sec)
Heartbeat CPU 0 instructions: 1070000151 cycles: 631183776 heartbeat IPC: 1.567 cumulative IPC: 1.695 (Simulation time: 01 hr 23 min 25 sec)
Heartbeat CPU 0 instructions: 1080000154 cycles: 635662305 heartbeat IPC: 2.233 cumulative IPC: 1.699 (Simulation time: 01 hr 23 min 49 sec)
Heartbeat CPU 0 instructions: 1090000154 cycles: 641503177 heartbeat IPC: 1.712 cumulative IPC: 1.699 (Simulation time: 01 hr 24 min 23 sec)
Heartbeat CPU 0 instructions: 1100000154 cycles: 647968881 heartbeat IPC: 1.547 cumulative IPC: 1.698 (Simulation time: 01 hr 25 min 20 sec)
Heartbeat CPU 0 instructions: 1110000154 cycles: 654299342 heartbeat IPC: 1.58 cumulative IPC: 1.696 (Simulation time: 01 hr 26 min 15 sec)
Heartbeat CPU 0 instructions: 1120000154 cycles: 660644919 heartbeat IPC: 1.576 cumulative IPC: 1.695 (Simulation time: 01 hr 26 min 57 sec)
Heartbeat CPU 0 instructions: 1130000154 cycles: 667010581 heartbeat IPC: 1.571 cumulative IPC: 1.694 (Simulation time: 01 hr 27 min 37 sec)
Heartbeat CPU 0 instructions: 1140000156 cycles: 673345885 heartbeat IPC: 1.578 cumulative IPC: 1.693 (Simulation time: 01 hr 28 min 32 sec)
Heartbeat CPU 0 instructions: 1150000156 cycles: 679678250 heartbeat IPC: 1.579 cumulative IPC: 1.692 (Simulation time: 01 hr 29 min 21 sec)
Heartbeat CPU 0 instructions: 1160000158 cycles: 686164633 heartbeat IPC: 1.542 cumulative IPC: 1.691 (Simulation time: 01 hr 30 min 01 sec)
Heartbeat CPU 0 instructions: 1170000162 cycles: 691352079 heartbeat IPC: 1.928 cumulative IPC: 1.692 (Simulation time: 01 hr 30 min 42 sec)
Heartbeat CPU 0 instructions: 1180000163 cycles: 699252096 heartbeat IPC: 1.266 cumulative IPC: 1.688 (Simulation time: 01 hr 31 min 45 sec)
Heartbeat CPU 0 instructions: 1190000166 cycles: 705415777 heartbeat IPC: 1.622 cumulative IPC: 1.687 (Simulation time: 01 hr 32 min 37 sec)
Heartbeat CPU 0 instructions: 1200000166 cycles: 711700709 heartbeat IPC: 1.591 cumulative IPC: 1.686 (Simulation time: 01 hr 33 min 33 sec)
Heartbeat CPU 0 instructions: 1210000170 cycles: 717144418 heartbeat IPC: 1.837 cumulative IPC: 1.687 (Simulation time: 01 hr 34 min 24 sec)
Heartbeat CPU 0 instructions: 1220000171 cycles: 722509200 heartbeat IPC: 1.864 cumulative IPC: 1.689 (Simulation time: 01 hr 35 min 10 sec)
Heartbeat CPU 0 instructions: 1230000175 cycles: 728505473 heartbeat IPC: 1.668 cumulative IPC: 1.688 (Simulation time: 01 hr 36 min 01 sec)
Heartbeat CPU 0 instructions: 1240000175 cycles: 731798384 heartbeat IPC: 3.037 cumulative IPC: 1.694 (Simulation time: 01 hr 36 min 31 sec)
Heartbeat CPU 0 instructions: 1250000175 cycles: 738481155 heartbeat IPC: 1.496 cumulative IPC: 1.693 (Simulation time: 01 hr 37 min 24 sec)
Heartbeat CPU 0 instructions: 1260000176 cycles: 743214382 heartbeat IPC: 2.113 cumulative IPC: 1.695 (Simulation time: 01 hr 38 min 04 sec)
Heartbeat CPU 0 instructions: 1270000176 cycles: 748575319 heartbeat IPC: 1.865 cumulative IPC: 1.697 (Simulation time: 01 hr 38 min 50 sec)
Heartbeat CPU 0 instructions: 1280000180 cycles: 755050719 heartbeat IPC: 1.544 cumulative IPC: 1.695 (Simulation time: 01 hr 39 min 44 sec)
Heartbeat CPU 0 instructions: 1290000184 cycles: 761362019 heartbeat IPC: 1.584 cumulative IPC: 1.694 (Simulation time: 01 hr 40 min 41 sec)
Heartbeat CPU 0 instructions: 1300000185 cycles: 767704320 heartbeat IPC: 1.577 cumulative IPC: 1.693 (Simulation time: 01 hr 41 min 38 sec)
Heartbeat CPU 0 instructions: 1310000187 cycles: 774011211 heartbeat IPC: 1.586 cumulative IPC: 1.692 (Simulation time: 01 hr 42 min 35 sec)
Heartbeat CPU 0 instructions: 1320000189 cycles: 780281764 heartbeat IPC: 1.595 cumulative IPC: 1.692 (Simulation time: 01 hr 43 min 32 sec)
Heartbeat CPU 0 instructions: 1330000189 cycles: 786547908 heartbeat IPC: 1.596 cumulative IPC: 1.691 (Simulation time: 01 hr 44 min 29 sec)
Heartbeat CPU 0 instructions: 1340000191 cycles: 793059704 heartbeat IPC: 1.536 cumulative IPC: 1.69 (Simulation time: 01 hr 45 min 27 sec)
Heartbeat CPU 0 instructions: 1350000194 cycles: 799149463 heartbeat IPC: 1.642 cumulative IPC: 1.689 (Simulation time: 01 hr 46 min 10 sec)
Heartbeat CPU 0 instructions: 1360000198 cycles: 806223929 heartbeat IPC: 1.414 cumulative IPC: 1.687 (Simulation time: 01 hr 46 min 47 sec)
Heartbeat CPU 0 instructions: 1370000199 cycles: 812310329 heartbeat IPC: 1.643 cumulative IPC: 1.687 (Simulation time: 01 hr 47 min 29 sec)
Heartbeat CPU 0 instructions: 1380000200 cycles: 818372031 heartbeat IPC: 1.65 cumulative IPC: 1.686 (Simulation time: 01 hr 48 min 08 sec)
Heartbeat CPU 0 instructions: 1390000200 cycles: 824389422 heartbeat IPC: 1.662 cumulative IPC: 1.686 (Simulation time: 01 hr 48 min 54 sec)
Heartbeat CPU 0 instructions: 1400000203 cycles: 829928191 heartbeat IPC: 1.805 cumulative IPC: 1.687 (Simulation time: 01 hr 49 min 28 sec)
Heartbeat CPU 0 instructions: 1410000203 cycles: 835569344 heartbeat IPC: 1.773 cumulative IPC: 1.687 (Simulation time: 01 hr 50 min 02 sec)
Heartbeat CPU 0 instructions: 1420000204 cycles: 839874265 heartbeat IPC: 2.323 cumulative IPC: 1.691 (Simulation time: 01 hr 50 min 37 sec)
Heartbeat CPU 0 instructions: 1430000204 cycles: 845954972 heartbeat IPC: 1.645 cumulative IPC: 1.69 (Simulation time: 01 hr 51 min 24 sec)
Heartbeat CPU 0 instructions: 1440000207 cycles: 851225634 heartbeat IPC: 1.897 cumulative IPC: 1.692 (Simulation time: 01 hr 51 min 55 sec)
Heartbeat CPU 0 instructions: 1450000207 cycles: 856195563 heartbeat IPC: 2.012 cumulative IPC: 1.694 (Simulation time: 01 hr 52 min 25 sec)
Heartbeat CPU 0 instructions: 1460000210 cycles: 862549943 heartbeat IPC: 1.574 cumulative IPC: 1.693 (Simulation time: 01 hr 53 min 04 sec)
Heartbeat CPU 0 instructions: 1470000211 cycles: 868944216 heartbeat IPC: 1.564 cumulative IPC: 1.692 (Simulation time: 01 hr 53 min 54 sec)
Heartbeat CPU 0 instructions: 1480000215 cycles: 875374339 heartbeat IPC: 1.555 cumulative IPC: 1.691 (Simulation time: 01 hr 54 min 42 sec)
Heartbeat CPU 0 instructions: 1490000219 cycles: 881797686 heartbeat IPC: 1.557 cumulative IPC: 1.69 (Simulation time: 01 hr 55 min 33 sec)
Heartbeat CPU 0 instructions: 1500000219 cycles: 888152762 heartbeat IPC: 1.574 cumulative IPC: 1.689 (Simulation time: 01 hr 56 min 13 sec)
Heartbeat CPU 0 instructions: 1510000219 cycles: 894562575 heartbeat IPC: 1.56 cumulative IPC: 1.688 (Simulation time: 01 hr 56 min 53 sec)
Heartbeat CPU 0 instructions: 1520000222 cycles: 901086044 heartbeat IPC: 1.533 cumulative IPC: 1.687 (Simulation time: 01 hr 57 min 44 sec)
Heartbeat CPU 0 instructions: 1530000222 cycles: 907578262 heartbeat IPC: 1.54 cumulative IPC: 1.686 (Simulation time: 01 hr 58 min 29 sec)
Heartbeat CPU 0 instructions: 1540000224 cycles: 913040939 heartbeat IPC: 1.831 cumulative IPC: 1.687 (Simulation time: 01 hr 59 min 01 sec)
Heartbeat CPU 0 instructions: 1550000225 cycles: 920316895 heartbeat IPC: 1.374 cumulative IPC: 1.684 (Simulation time: 01 hr 59 min 46 sec)
Heartbeat CPU 0 instructions: 1560000225 cycles: 926272191 heartbeat IPC: 1.679 cumulative IPC: 1.684 (Simulation time: 02 hr 00 min 27 sec)
Heartbeat CPU 0 instructions: 1570000229 cycles: 932692842 heartbeat IPC: 1.557 cumulative IPC: 1.683 (Simulation time: 02 hr 01 min 19 sec)
Heartbeat CPU 0 instructions: 1580000230 cycles: 938723242 heartbeat IPC: 1.658 cumulative IPC: 1.683 (Simulation time: 02 hr 02 min 12 sec)
Heartbeat CPU 0 instructions: 1590000234 cycles: 943547476 heartbeat IPC: 2.073 cumulative IPC: 1.685 (Simulation time: 02 hr 02 min 51 sec)
Heartbeat CPU 0 instructions: 1600000234 cycles: 949010762 heartbeat IPC: 1.83 cumulative IPC: 1.686 (Simulation time: 02 hr 03 min 34 sec)
Heartbeat CPU 0 instructions: 1610000238 cycles: 953069041 heartbeat IPC: 2.464 cumulative IPC: 1.689 (Simulation time: 02 hr 04 min 08 sec)
Heartbeat CPU 0 instructions: 1620000240 cycles: 959414332 heartbeat IPC: 1.576 cumulative IPC: 1.689 (Simulation time: 02 hr 04 min 53 sec)
Heartbeat CPU 0 instructions: 1630000242 cycles: 964204257 heartbeat IPC: 2.088 cumulative IPC: 1.691 (Simulation time: 02 hr 05 min 28 sec)
Heartbeat CPU 0 instructions: 1640000244 cycles: 969795550 heartbeat IPC: 1.788 cumulative IPC: 1.691 (Simulation time: 02 hr 06 min 08 sec)
Heartbeat CPU 0 instructions: 1650000245 cycles: 976479579 heartbeat IPC: 1.496 cumulative IPC: 1.69 (Simulation time: 02 hr 07 min 07 sec)
Heartbeat CPU 0 instructions: 1660000248 cycles: 982860595 heartbeat IPC: 1.567 cumulative IPC: 1.689 (Simulation time: 02 hr 07 min 55 sec)
Heartbeat CPU 0 instructions: 1670000251 cycles: 989219491 heartbeat IPC: 1.573 cumulative IPC: 1.688 (Simulation time: 02 hr 08 min 46 sec)
Heartbeat CPU 0 instructions: 1680000254 cycles: 995605178 heartbeat IPC: 1.566 cumulative IPC: 1.687 (Simulation time: 02 hr 09 min 42 sec)
Heartbeat CPU 0 instructions: 1690000256 cycles: 1001997619 heartbeat IPC: 1.564 cumulative IPC: 1.687 (Simulation time: 02 hr 10 min 38 sec)
Heartbeat CPU 0 instructions: 1700000257 cycles: 1008384362 heartbeat IPC: 1.566 cumulative IPC: 1.686 (Simulation time: 02 hr 11 min 34 sec)
Heartbeat CPU 0 instructions: 1710000257 cycles: 1014936497 heartbeat IPC: 1.526 cumulative IPC: 1.685 (Simulation time: 02 hr 12 min 22 sec)
Heartbeat CPU 0 instructions: 1720000260 cycles: 1020331003 heartbeat IPC: 1.854 cumulative IPC: 1.686 (Simulation time: 02 hr 12 min 55 sec)
Heartbeat CPU 0 instructions: 1730000262 cycles: 1028084517 heartbeat IPC: 1.29 cumulative IPC: 1.683 (Simulation time: 02 hr 13 min 53 sec)
Heartbeat CPU 0 instructions: 1740000262 cycles: 1034183050 heartbeat IPC: 1.64 cumulative IPC: 1.682 (Simulation time: 02 hr 14 min 46 sec)
Heartbeat CPU 0 instructions: 1750000265 cycles: 1040621994 heartbeat IPC: 1.553 cumulative IPC: 1.682 (Simulation time: 02 hr 15 min 43 sec)
Heartbeat CPU 0 instructions: 1760000267 cycles: 1046330574 heartbeat IPC: 1.752 cumulative IPC: 1.682 (Simulation time: 02 hr 16 min 37 sec)
Heartbeat CPU 0 instructions: 1770000271 cycles: 1051526129 heartbeat IPC: 1.925 cumulative IPC: 1.683 (Simulation time: 02 hr 17 min 22 sec)
Heartbeat CPU 0 instructions: 1780000274 cycles: 1057484020 heartbeat IPC: 1.678 cumulative IPC: 1.683 (Simulation time: 02 hr 17 min 59 sec)
Heartbeat CPU 0 instructions: 1790000276 cycles: 1060708912 heartbeat IPC: 3.101 cumulative IPC: 1.688 (Simulation time: 02 hr 18 min 21 sec)
Heartbeat CPU 0 instructions: 1800000277 cycles: 1067592571 heartbeat IPC: 1.453 cumulative IPC: 1.686 (Simulation time: 02 hr 19 min 13 sec)
Heartbeat CPU 0 instructions: 1810000281 cycles: 1072301317 heartbeat IPC: 2.124 cumulative IPC: 1.688 (Simulation time: 02 hr 19 min 54 sec)
Heartbeat CPU 0 instructions: 1820000281 cycles: 1077867683 heartbeat IPC: 1.797 cumulative IPC: 1.689 (Simulation time: 02 hr 20 min 42 sec)
Heartbeat CPU 0 instructions: 1830000284 cycles: 1084576967 heartbeat IPC: 1.49 cumulative IPC: 1.687 (Simulation time: 02 hr 21 min 34 sec)
Heartbeat CPU 0 instructions: 1840000284 cycles: 1091057852 heartbeat IPC: 1.543 cumulative IPC: 1.686 (Simulation time: 02 hr 22 min 26 sec)
Heartbeat CPU 0 instructions: 1850000284 cycles: 1097501712 heartbeat IPC: 1.552 cumulative IPC: 1.686 (Simulation time: 02 hr 23 min 23 sec)
Heartbeat CPU 0 instructions: 1860000284 cycles: 1103975965 heartbeat IPC: 1.545 cumulative IPC: 1.685 (Simulation time: 02 hr 24 min 21 sec)
Heartbeat CPU 0 instructions: 1870000285 cycles: 1110506319 heartbeat IPC: 1.531 cumulative IPC: 1.684 (Simulation time: 02 hr 25 min 15 sec)
Heartbeat CPU 0 instructions: 1880000285 cycles: 1117032252 heartbeat IPC: 1.532 cumulative IPC: 1.683 (Simulation time: 02 hr 26 min 13 sec)
Heartbeat CPU 0 instructions: 1890000287 cycles: 1123660533 heartbeat IPC: 1.509 cumulative IPC: 1.682 (Simulation time: 02 hr 27 min 11 sec)
Heartbeat CPU 0 instructions: 1900000288 cycles: 1129584095 heartbeat IPC: 1.688 cumulative IPC: 1.682 (Simulation time: 02 hr 27 min 55 sec)
Heartbeat CPU 0 instructions: 1910000292 cycles: 1137008135 heartbeat IPC: 1.347 cumulative IPC: 1.68 (Simulation time: 02 hr 28 min 54 sec)
Heartbeat CPU 0 instructions: 1920000295 cycles: 1142846771 heartbeat IPC: 1.713 cumulative IPC: 1.68 (Simulation time: 02 hr 29 min 26 sec)
Heartbeat CPU 0 instructions: 1930000299 cycles: 1148196380 heartbeat IPC: 1.869 cumulative IPC: 1.681 (Simulation time: 02 hr 30 min 01 sec)
Heartbeat CPU 0 instructions: 1940000299 cycles: 1154968156 heartbeat IPC: 1.477 cumulative IPC: 1.68 (Simulation time: 02 hr 30 min 49 sec)
Heartbeat CPU 0 instructions: 1950000299 cycles: 1160877249 heartbeat IPC: 1.692 cumulative IPC: 1.68 (Simulation time: 02 hr 31 min 43 sec)
Heartbeat CPU 0 instructions: 1960000301 cycles: 1165956224 heartbeat IPC: 1.969 cumulative IPC: 1.681 (Simulation time: 02 hr 32 min 15 sec)
Heartbeat CPU 0 instructions: 1970000302 cycles: 1170855499 heartbeat IPC: 2.041 cumulative IPC: 1.683 (Simulation time: 02 hr 32 min 45 sec)
Heartbeat CPU 0 instructions: 1980000303 cycles: 1175740728 heartbeat IPC: 2.047 cumulative IPC: 1.684 (Simulation time: 02 hr 33 min 20 sec)
Heartbeat CPU 0 instructions: 1990000303 cycles: 1181823407 heartbeat IPC: 1.644 cumulative IPC: 1.684 (Simulation time: 02 hr 34 min 00 sec)

=== ERROR PAGE STATISTICS ===
Mode: CYCLE
Error Cycle Interval: 7053240154 CPU cycles
Total Error Accesses: 0
==============================
Simulation finished CPU 0 instructions: 1999999926 cycles: 1186518260 cumulative IPC: 1.686 (Simulation time: 02 hr 34 min 36 sec)
Simulation complete CPU 0 instructions: 1999999926 cycles: 1186518260 cumulative IPC: 1.686 (Simulation time: 02 hr 34 min 36 sec)

ChampSim completed all CPUs

=== Simulation ===
CPU 0 runs test_traces/628.pop2_s-17B.champsimtrace.xz

Region of Interest Statistics

CPU 0 cumulative IPC: 1.686 instructions: 1999999926 cycles: 1186518260
CPU 0 Branch Prediction Accuracy: 97.16% MPKI: 4.393 Average ROB Occupancy at Mispredict: 78.84
Branch type MPKI
BRANCH_DIRECT_JUMP: 0.02883
BRANCH_INDIRECT: 0.0006925
BRANCH_CONDITIONAL: 4.321
BRANCH_DIRECT_CALL: 0.0002875
BRANCH_INDIRECT_CALL: 0
BRANCH_RETURN: 0.04196

cpu0->cpu0_STLB TOTAL        ACCESS:     970131 HIT:     874929 MISS:      95202 MSHR_MERGE:          0
cpu0->cpu0_STLB LOAD         ACCESS:     970131 HIT:     874929 MISS:      95202 MSHR_MERGE:          0
cpu0->cpu0_STLB RFO          ACCESS:          0 HIT:          0 MISS:          0 MSHR_MERGE:          0
cpu0->cpu0_STLB PREFETCH     ACCESS:          0 HIT:          0 MISS:          0 MSHR_MERGE:          0
cpu0->cpu0_STLB WRITE        ACCESS:          0 HIT:          0 MISS:          0 MSHR_MERGE:          0
cpu0->cpu0_STLB TRANSLATION  ACCESS:          0 HIT:          0 MISS:          0 MSHR_MERGE:          0
cpu0->cpu0_STLB PREFETCH REQUESTED:          0 ISSUED:          0 USEFUL:          0 USELESS:          0
cpu0->cpu0_STLB AVERAGE MISS LATENCY: 431.5 cycles
cpu0->cpu0_L2C TOTAL        ACCESS:   43525213 HIT:   30676239 MISS:   12848974 MSHR_MERGE:          0
cpu0->cpu0_L2C LOAD         ACCESS:   20311201 HIT:   11678611 MISS:    8632590 MSHR_MERGE:          0
cpu0->cpu0_L2C RFO          ACCESS:    9924856 HIT:    5716258 MISS:    4208598 MSHR_MERGE:          0
cpu0->cpu0_L2C PREFETCH     ACCESS:          0 HIT:          0 MISS:          0 MSHR_MERGE:          0
cpu0->cpu0_L2C WRITE        ACCESS:   13289156 HIT:   13281370 MISS:       7786 MSHR_MERGE:          0
cpu0->cpu0_L2C TRANSLATION  ACCESS:          0 HIT:          0 MISS:          0 MSHR_MERGE:          0
cpu0->cpu0_L2C PREFETCH REQUESTED:          0 ISSUED:          0 USEFUL:          0 USELESS:          0
cpu0->cpu0_L2C AVERAGE MISS LATENCY: 71.03 cycles
cpu0->cpu0_L1I TOTAL        ACCESS:  104496176 HIT:  102562587 MISS:    1933589 MSHR_MERGE:     943042
cpu0->cpu0_L1I LOAD         ACCESS:  104496176 HIT:  102562587 MISS:    1933589 MSHR_MERGE:     943042
cpu0->cpu0_L1I RFO          ACCESS:          0 HIT:          0 MISS:          0 MSHR_MERGE:          0
cpu0->cpu0_L1I PREFETCH     ACCESS:          0 HIT:          0 MISS:          0 MSHR_MERGE:          0
cpu0->cpu0_L1I WRITE        ACCESS:          0 HIT:          0 MISS:          0 MSHR_MERGE:          0
cpu0->cpu0_L1I TRANSLATION  ACCESS:          0 HIT:          0 MISS:          0 MSHR_MERGE:          0
cpu0->cpu0_L1I PREFETCH REQUESTED:          0 ISSUED:          0 USEFUL:          0 USELESS:          0
cpu0->cpu0_L1I AVERAGE MISS LATENCY: 26.99 cycles
cpu0->cpu0_L1D TOTAL        ACCESS:  487385731 HIT:  414951172 MISS:   72434559 MSHR_MERGE:   43188743
cpu0->cpu0_L1D LOAD         ACCESS:  353235863 HIT:  315350756 MISS:   37885107 MSHR_MERGE:   18564267
cpu0->cpu0_L1D RFO          ACCESS:          0 HIT:          0 MISS:          0 MSHR_MERGE:          0
cpu0->cpu0_L1D PREFETCH     ACCESS:          0 HIT:          0 MISS:          0 MSHR_MERGE:          0
cpu0->cpu0_L1D WRITE        ACCESS:  134149868 HIT:   99600416 MISS:   34549452 MSHR_MERGE:   24624476
cpu0->cpu0_L1D TRANSLATION  ACCESS:          0 HIT:          0 MISS:          0 MSHR_MERGE:          0
cpu0->cpu0_L1D PREFETCH REQUESTED:          0 ISSUED:          0 USEFUL:          0 USELESS:          0
cpu0->cpu0_L1D AVERAGE MISS LATENCY: 39.07 cycles
cpu0->cpu0_ITLB TOTAL        ACCESS:   87501353 HIT:   87395417 MISS:     105936 MSHR_MERGE:      64523
cpu0->cpu0_ITLB LOAD         ACCESS:   87501353 HIT:   87395417 MISS:     105936 MSHR_MERGE:      64523
cpu0->cpu0_ITLB RFO          ACCESS:          0 HIT:          0 MISS:          0 MSHR_MERGE:          0
cpu0->cpu0_ITLB PREFETCH     ACCESS:          0 HIT:          0 MISS:          0 MSHR_MERGE:          0
cpu0->cpu0_ITLB WRITE        ACCESS:          0 HIT:          0 MISS:          0 MSHR_MERGE:          0
cpu0->cpu0_ITLB TRANSLATION  ACCESS:          0 HIT:          0 MISS:          0 MSHR_MERGE:          0
cpu0->cpu0_ITLB PREFETCH REQUESTED:          0 ISSUED:          0 USEFUL:          0 USELESS:          0
cpu0->cpu0_ITLB AVERAGE MISS LATENCY: 12.89 cycles
cpu0->cpu0_DTLB TOTAL        ACCESS:  453788756 HIT:  451782786 MISS:    2005970 MSHR_MERGE:    1077252
cpu0->cpu0_DTLB LOAD         ACCESS:  453788756 HIT:  451782786 MISS:    2005970 MSHR_MERGE:    1077252
cpu0->cpu0_DTLB RFO          ACCESS:          0 HIT:          0 MISS:          0 MSHR_MERGE:          0
cpu0->cpu0_DTLB PREFETCH     ACCESS:          0 HIT:          0 MISS:          0 MSHR_MERGE:          0
cpu0->cpu0_DTLB WRITE        ACCESS:          0 HIT:          0 MISS:          0 MSHR_MERGE:          0
cpu0->cpu0_DTLB TRANSLATION  ACCESS:          0 HIT:          0 MISS:          0 MSHR_MERGE:          0
cpu0->cpu0_DTLB PREFETCH REQUESTED:          0 ISSUED:          0 USEFUL:          0 USELESS:          0
cpu0->cpu0_DTLB AVERAGE MISS LATENCY: 49.02 cycles
cpu0->LLC TOTAL        ACCESS:   18829378 HIT:   11647053 MISS:    7182325 MSHR_MERGE:          0
cpu0->LLC LOAD         ACCESS:    8632590 HIT:    4192942 MISS:    4439648 MSHR_MERGE:          0
cpu0->LLC RFO          ACCESS:    4208593 HIT:    1524920 MISS:    2683673 MSHR_MERGE:          0
cpu0->LLC PREFETCH     ACCESS:          0 HIT:          0 MISS:          0 MSHR_MERGE:          0
cpu0->LLC WRITE        ACCESS:    5988195 HIT:    5929191 MISS:      59004 MSHR_MERGE:          0
cpu0->LLC TRANSLATION  ACCESS:          0 HIT:          0 MISS:          0 MSHR_MERGE:          0
cpu0->LLC PREFETCH REQUESTED:          0 ISSUED:          0 USEFUL:          0 USELESS:          0
cpu0->LLC AVERAGE MISS LATENCY: 99.29 cycles

DRAM Statistics

Channel 0 RQ ROW_BUFFER_HIT:       2172
  ROW_BUFFER_MISS:    3660719
  AVG DBUS CONGESTED CYCLE: 10.3
Channel 0 WQ ROW_BUFFER_HIT:     268871
  ROW_BUFFER_MISS:    1546054
  FULL:         33
Channel 0 REFRESHES ISSUED:      98870

Channel 1 RQ ROW_BUFFER_HIT:       2219
  ROW_BUFFER_MISS:    3660959
  AVG DBUS CONGESTED CYCLE: 10.3
Channel 1 WQ ROW_BUFFER_HIT:     268680
  ROW_BUFFER_MISS:    1546476
  FULL:        144
Channel 1 REFRESHES ISSUED:      98870
