[VMEM] WARNING: physical memory size is smaller than virtual memory size.

*** ChampSim Multicore Out-of-Order Simulator ***
Warmup Instructions: 0
Simulation Instructions: 9223372036854775807
Number of CPUs: 1
Page size: 2097152

Off-chip DRAM Size: 32 GiB Channels: 2 Width: 32-bit Data Rate: 4807 MT/s
[ERROR_PAGE_MANAGER] Error latency: 1990500 
[ERROR_PAGE_MANAGER] Random seed: 54321 (fixed for preload reproducibility)
[ERROR_PAGE_MANAGER] Cycle-based error modeling enabled
[ERROR_PAGE_MANAGER] Errors per interval: 1
[ERROR_PAGE_MANAGER] Error cycle interval: 70532401 cycles

=== ERROR PAGE STATISTICS ===
Mode: CYCLE
Error Cycle Interval: 70532401 CPU cycles
Total Error Accesses: 0
==============================
Warmup finished CPU 0 instructions: 0 cycles: 1 cumulative IPC: 0 (Simulation time: 00 hr 00 min 00 sec)
Warmup complete CPU 0 instructions: 0 cycles: 1 cumulative IPC: 0 (Simulation time: 00 hr 00 min 00 sec)
Heartbeat CPU 0 instructions: 10000003 cycles: 8626330 heartbeat IPC: 1.159 cumulative IPC: 1.159 (Simulation time: 00 hr 01 min 02 sec)
Heartbeat CPU 0 instructions: 20000006 cycles: 18631989 heartbeat IPC: 0.9994 cumulative IPC: 1.073 (Simulation time: 00 hr 02 min 32 sec)
Heartbeat CPU 0 instructions: 30000006 cycles: 30159464 heartbeat IPC: 0.8675 cumulative IPC: 0.9947 (Simulation time: 00 hr 04 min 12 sec)
Heartbeat CPU 0 instructions: 40000008 cycles: 44982958 heartbeat IPC: 0.6746 cumulative IPC: 0.8892 (Simulation time: 00 hr 06 min 36 sec)
Heartbeat CPU 0 instructions: 50000009 cycles: 55160108 heartbeat IPC: 0.9826 cumulative IPC: 0.9065 (Simulation time: 00 hr 08 min 04 sec)
Heartbeat CPU 0 instructions: 60000012 cycles: 66454093 heartbeat IPC: 0.8854 cumulative IPC: 0.9029 (Simulation time: 00 hr 09 min 11 sec)
[ERROR_CYCLE] Error added at CPU cycle 70532402, interval 1, pending count: 1
[DRAM_CYCLE_ERROR] Cycle-based error applied! address=0x6edfe4808 additional_latency=1990500 cycles
Heartbeat CPU 0 instructions: 70000016 cycles: 79955473 heartbeat IPC: 0.7407 cumulative IPC: 0.8755 (Simulation time: 00 hr 10 min 33 sec)
Heartbeat CPU 0 instructions: 80000017 cycles: 90938663 heartbeat IPC: 0.9105 cumulative IPC: 0.8797 (Simulation time: 00 hr 11 min 39 sec)
Heartbeat CPU 0 instructions: 90000020 cycles: 102793008 heartbeat IPC: 0.8436 cumulative IPC: 0.8755 (Simulation time: 00 hr 13 min 19 sec)
Heartbeat CPU 0 instructions: 100000021 cycles: 119057947 heartbeat IPC: 0.6148 cumulative IPC: 0.8399 (Simulation time: 00 hr 15 min 38 sec)
Heartbeat CPU 0 instructions: 110000024 cycles: 124803066 heartbeat IPC: 1.741 cumulative IPC: 0.8814 (Simulation time: 00 hr 16 min 37 sec)
Heartbeat CPU 0 instructions: 120000024 cycles: 131831697 heartbeat IPC: 1.423 cumulative IPC: 0.9103 (Simulation time: 00 hr 17 min 41 sec)
Heartbeat CPU 0 instructions: 130000026 cycles: 137334448 heartbeat IPC: 1.817 cumulative IPC: 0.9466 (Simulation time: 00 hr 18 min 38 sec)
[ERROR_CYCLE] Error added at CPU cycle 141064802, interval 2, pending count: 1
[DRAM_CYCLE_ERROR] Cycle-based error applied! address=0x3db09ac0 additional_latency=1990500 cycles
Heartbeat CPU 0 instructions: 140000028 cycles: 144715258 heartbeat IPC: 1.355 cumulative IPC: 0.9674 (Simulation time: 00 hr 19 min 30 sec)
Heartbeat CPU 0 instructions: 150000029 cycles: 150298165 heartbeat IPC: 1.791 cumulative IPC: 0.998 (Simulation time: 00 hr 20 min 07 sec)
Heartbeat CPU 0 instructions: 160000032 cycles: 157103490 heartbeat IPC: 1.469 cumulative IPC: 1.018 (Simulation time: 00 hr 21 min 12 sec)
Heartbeat CPU 0 instructions: 170000035 cycles: 164107377 heartbeat IPC: 1.428 cumulative IPC: 1.036 (Simulation time: 00 hr 22 min 19 sec)
Heartbeat CPU 0 instructions: 180000037 cycles: 169662750 heartbeat IPC: 1.8 cumulative IPC: 1.061 (Simulation time: 00 hr 23 min 16 sec)
Heartbeat CPU 0 instructions: 190000038 cycles: 177539935 heartbeat IPC: 1.269 cumulative IPC: 1.07 (Simulation time: 00 hr 24 min 31 sec)
Heartbeat CPU 0 instructions: 200000039 cycles: 183853212 heartbeat IPC: 1.584 cumulative IPC: 1.088 (Simulation time: 00 hr 25 min 35 sec)
Heartbeat CPU 0 instructions: 210000039 cycles: 190195617 heartbeat IPC: 1.577 cumulative IPC: 1.104 (Simulation time: 00 hr 26 min 39 sec)
Heartbeat CPU 0 instructions: 220000040 cycles: 196604108 heartbeat IPC: 1.56 cumulative IPC: 1.119 (Simulation time: 00 hr 27 min 44 sec)
Heartbeat CPU 0 instructions: 230000041 cycles: 208555091 heartbeat IPC: 0.8368 cumulative IPC: 1.103 (Simulation time: 00 hr 29 min 27 sec)
[ERROR_CYCLE] Error added at CPU cycle 211597203, interval 3, pending count: 1
[DRAM_CYCLE_ERROR] Cycle-based error applied! address=0x18ac1e884 additional_latency=1990500 cycles
Heartbeat CPU 0 instructions: 240000041 cycles: 220535520 heartbeat IPC: 0.8347 cumulative IPC: 1.088 (Simulation time: 00 hr 31 min 15 sec)
Heartbeat CPU 0 instructions: 250000041 cycles: 226142926 heartbeat IPC: 1.783 cumulative IPC: 1.105 (Simulation time: 00 hr 32 min 13 sec)
Heartbeat CPU 0 instructions: 260000045 cycles: 232344313 heartbeat IPC: 1.613 cumulative IPC: 1.119 (Simulation time: 00 hr 33 min 16 sec)
Heartbeat CPU 0 instructions: 270000046 cycles: 238203335 heartbeat IPC: 1.707 cumulative IPC: 1.133 (Simulation time: 00 hr 34 min 17 sec)
Heartbeat CPU 0 instructions: 280000049 cycles: 243618022 heartbeat IPC: 1.847 cumulative IPC: 1.149 (Simulation time: 00 hr 35 min 14 sec)
Heartbeat CPU 0 instructions: 290000052 cycles: 249668376 heartbeat IPC: 1.653 cumulative IPC: 1.162 (Simulation time: 00 hr 36 min 15 sec)
Heartbeat CPU 0 instructions: 300000052 cycles: 257094311 heartbeat IPC: 1.347 cumulative IPC: 1.167 (Simulation time: 00 hr 37 min 24 sec)
Heartbeat CPU 0 instructions: 310000054 cycles: 268719473 heartbeat IPC: 0.8602 cumulative IPC: 1.154 (Simulation time: 00 hr 39 min 05 sec)
Heartbeat CPU 0 instructions: 320000057 cycles: 277223669 heartbeat IPC: 1.176 cumulative IPC: 1.154 (Simulation time: 00 hr 40 min 26 sec)
[ERROR_CYCLE] Error added at CPU cycle 282129604, interval 4, pending count: 1
[DRAM_CYCLE_ERROR] Cycle-based error applied! address=0x1db8cfd54 additional_latency=1990500 cycles
Heartbeat CPU 0 instructions: 330000059 cycles: 287485043 heartbeat IPC: 0.9745 cumulative IPC: 1.148 (Simulation time: 00 hr 41 min 57 sec)
Heartbeat CPU 0 instructions: 340000061 cycles: 299158355 heartbeat IPC: 0.8567 cumulative IPC: 1.137 (Simulation time: 00 hr 43 min 37 sec)
Heartbeat CPU 0 instructions: 350000062 cycles: 314126306 heartbeat IPC: 0.6681 cumulative IPC: 1.114 (Simulation time: 00 hr 46 min 01 sec)
Heartbeat CPU 0 instructions: 360000064 cycles: 324814844 heartbeat IPC: 0.9356 cumulative IPC: 1.108 (Simulation time: 00 hr 47 min 34 sec)
Heartbeat CPU 0 instructions: 370000064 cycles: 336358381 heartbeat IPC: 0.8663 cumulative IPC: 1.1 (Simulation time: 00 hr 49 min 11 sec)
Heartbeat CPU 0 instructions: 380000065 cycles: 350080206 heartbeat IPC: 0.7288 cumulative IPC: 1.085 (Simulation time: 00 hr 51 min 14 sec)
[ERROR_CYCLE] Error added at CPU cycle 352662006, interval 5, pending count: 1
[DRAM_CYCLE_ERROR] Cycle-based error applied! address=0x40c3390a4 additional_latency=1990500 cycles
Heartbeat CPU 0 instructions: 390000066 cycles: 361483920 heartbeat IPC: 0.8769 cumulative IPC: 1.079 (Simulation time: 00 hr 52 min 48 sec)
Heartbeat CPU 0 instructions: 400000066 cycles: 373638471 heartbeat IPC: 0.8227 cumulative IPC: 1.071 (Simulation time: 00 hr 54 min 30 sec)
Heartbeat CPU 0 instructions: 410000067 cycles: 386928552 heartbeat IPC: 0.7524 cumulative IPC: 1.06 (Simulation time: 00 hr 56 min 26 sec)
Heartbeat CPU 0 instructions: 420000071 cycles: 398465075 heartbeat IPC: 0.8668 cumulative IPC: 1.054 (Simulation time: 00 hr 58 min 02 sec)
Heartbeat CPU 0 instructions: 430000073 cycles: 411953697 heartbeat IPC: 0.7414 cumulative IPC: 1.044 (Simulation time: 00 hr 59 min 55 sec)
[ERROR_CYCLE] Error added at CPU cycle 423194407, interval 6, pending count: 1
[DRAM_CYCLE_ERROR] Cycle-based error applied! address=0x68501c8 additional_latency=1990500 cycles
Heartbeat CPU 0 instructions: 440000075 cycles: 424542887 heartbeat IPC: 0.7943 cumulative IPC: 1.036 (Simulation time: 01 hr 01 min 43 sec)
Heartbeat CPU 0 instructions: 450000079 cycles: 436044835 heartbeat IPC: 0.8694 cumulative IPC: 1.032 (Simulation time: 01 hr 03 min 02 sec)
Heartbeat CPU 0 instructions: 460000080 cycles: 450940615 heartbeat IPC: 0.6713 cumulative IPC: 1.02 (Simulation time: 01 hr 04 min 46 sec)
Heartbeat CPU 0 instructions: 470000083 cycles: 467007905 heartbeat IPC: 0.6224 cumulative IPC: 1.006 (Simulation time: 01 hr 06 min 53 sec)
Heartbeat CPU 0 instructions: 480000085 cycles: 472881076 heartbeat IPC: 1.703 cumulative IPC: 1.015 (Simulation time: 01 hr 07 min 58 sec)
Heartbeat CPU 0 instructions: 490000085 cycles: 479913723 heartbeat IPC: 1.422 cumulative IPC: 1.021 (Simulation time: 01 hr 09 min 12 sec)
Heartbeat CPU 0 instructions: 500000085 cycles: 488527699 heartbeat IPC: 1.161 cumulative IPC: 1.023 (Simulation time: 01 hr 10 min 38 sec)
[ERROR_CYCLE] Error added at CPU cycle 493726807, interval 7, pending count: 1
[DRAM_CYCLE_ERROR] Cycle-based error applied! address=0x230a0b70c additional_latency=1990500 cycles
Heartbeat CPU 0 instructions: 510000085 cycles: 499323478 heartbeat IPC: 0.9263 cumulative IPC: 1.021 (Simulation time: 01 hr 12 min 12 sec)
Heartbeat CPU 0 instructions: 520000087 cycles: 505287350 heartbeat IPC: 1.677 cumulative IPC: 1.029 (Simulation time: 01 hr 13 min 17 sec)
Heartbeat CPU 0 instructions: 530000091 cycles: 512415442 heartbeat IPC: 1.403 cumulative IPC: 1.034 (Simulation time: 01 hr 14 min 32 sec)
Heartbeat CPU 0 instructions: 540000092 cycles: 521794577 heartbeat IPC: 1.066 cumulative IPC: 1.035 (Simulation time: 01 hr 15 min 57 sec)
Heartbeat CPU 0 instructions: 550000092 cycles: 532902028 heartbeat IPC: 0.9003 cumulative IPC: 1.032 (Simulation time: 01 hr 17 min 31 sec)
Heartbeat CPU 0 instructions: 560000093 cycles: 538945262 heartbeat IPC: 1.655 cumulative IPC: 1.039 (Simulation time: 01 hr 18 min 37 sec)
Heartbeat CPU 0 instructions: 570000093 cycles: 546122779 heartbeat IPC: 1.393 cumulative IPC: 1.044 (Simulation time: 01 hr 19 min 51 sec)
Heartbeat CPU 0 instructions: 580000093 cycles: 555481732 heartbeat IPC: 1.068 cumulative IPC: 1.044 (Simulation time: 01 hr 21 min 16 sec)
[ERROR_CYCLE] Error added at CPU cycle 564259208, interval 8, pending count: 1
[DRAM_CYCLE_ERROR] Cycle-based error applied! address=0x18ac5a244 additional_latency=1990500 cycles
Heartbeat CPU 0 instructions: 590000093 cycles: 566283265 heartbeat IPC: 0.9258 cumulative IPC: 1.042 (Simulation time: 01 hr 22 min 49 sec)
Heartbeat CPU 0 instructions: 600000094 cycles: 572368350 heartbeat IPC: 1.643 cumulative IPC: 1.048 (Simulation time: 01 hr 23 min 55 sec)
Heartbeat CPU 0 instructions: 610000094 cycles: 579567263 heartbeat IPC: 1.389 cumulative IPC: 1.053 (Simulation time: 01 hr 25 min 10 sec)
Heartbeat CPU 0 instructions: 620000094 cycles: 589279873 heartbeat IPC: 1.03 cumulative IPC: 1.052 (Simulation time: 01 hr 26 min 35 sec)
Heartbeat CPU 0 instructions: 630000097 cycles: 600303947 heartbeat IPC: 0.9071 cumulative IPC: 1.049 (Simulation time: 01 hr 28 min 06 sec)
Heartbeat CPU 0 instructions: 640000097 cycles: 606400893 heartbeat IPC: 1.64 cumulative IPC: 1.055 (Simulation time: 01 hr 29 min 12 sec)
Heartbeat CPU 0 instructions: 650000097 cycles: 613624132 heartbeat IPC: 1.384 cumulative IPC: 1.059 (Simulation time: 01 hr 30 min 27 sec)
Heartbeat CPU 0 instructions: 660000098 cycles: 623364562 heartbeat IPC: 1.027 cumulative IPC: 1.059 (Simulation time: 01 hr 31 min 52 sec)
[ERROR_CYCLE] Error added at CPU cycle 634791609, interval 9, pending count: 1
[DRAM_CYCLE_ERROR] Cycle-based error applied! address=0x40c329700 additional_latency=1990500 cycles
Heartbeat CPU 0 instructions: 670000098 cycles: 634914723 heartbeat IPC: 0.8658 cumulative IPC: 1.055 (Simulation time: 01 hr 33 min 28 sec)
Heartbeat CPU 0 instructions: 680000100 cycles: 641230434 heartbeat IPC: 1.583 cumulative IPC: 1.06 (Simulation time: 01 hr 34 min 12 sec)
Heartbeat CPU 0 instructions: 690000101 cycles: 647572425 heartbeat IPC: 1.577 cumulative IPC: 1.066 (Simulation time: 01 hr 35 min 00 sec)
Heartbeat CPU 0 instructions: 700000102 cycles: 653922811 heartbeat IPC: 1.575 cumulative IPC: 1.07 (Simulation time: 01 hr 36 min 03 sec)
Heartbeat CPU 0 instructions: 710000102 cycles: 661070140 heartbeat IPC: 1.399 cumulative IPC: 1.074 (Simulation time: 01 hr 37 min 13 sec)
Heartbeat CPU 0 instructions: 720000103 cycles: 668004822 heartbeat IPC: 1.442 cumulative IPC: 1.078 (Simulation time: 01 hr 38 min 22 sec)
Heartbeat CPU 0 instructions: 730000104 cycles: 674855390 heartbeat IPC: 1.46 cumulative IPC: 1.082 (Simulation time: 01 hr 39 min 31 sec)
Heartbeat CPU 0 instructions: 740000105 cycles: 682570624 heartbeat IPC: 1.296 cumulative IPC: 1.084 (Simulation time: 01 hr 40 min 43 sec)
Heartbeat CPU 0 instructions: 750000105 cycles: 690258600 heartbeat IPC: 1.301 cumulative IPC: 1.087 (Simulation time: 01 hr 41 min 42 sec)
Heartbeat CPU 0 instructions: 760000105 cycles: 698045684 heartbeat IPC: 1.284 cumulative IPC: 1.089 (Simulation time: 01 hr 42 min 41 sec)
[ERROR_CYCLE] Error added at CPU cycle 705324011, interval 10, pending count: 1
Heartbeat CPU 0 instructions: 770000105 cycles: 705808804 heartbeat IPC: 1.288 cumulative IPC: 1.091 (Simulation time: 01 hr 43 min 40 sec)
[DRAM_CYCLE_ERROR] Cycle-based error applied! address=0x18ac91968 additional_latency=1990500 cycles
Heartbeat CPU 0 instructions: 780000105 cycles: 713589327 heartbeat IPC: 1.285 cumulative IPC: 1.093 (Simulation time: 01 hr 44 min 39 sec)
Heartbeat CPU 0 instructions: 790000105 cycles: 721460668 heartbeat IPC: 1.27 cumulative IPC: 1.095 (Simulation time: 01 hr 45 min 38 sec)
Heartbeat CPU 0 instructions: 800000107 cycles: 729206848 heartbeat IPC: 1.291 cumulative IPC: 1.097 (Simulation time: 01 hr 46 min 38 sec)
Heartbeat CPU 0 instructions: 810000108 cycles: 737028747 heartbeat IPC: 1.278 cumulative IPC: 1.099 (Simulation time: 01 hr 47 min 37 sec)
Heartbeat CPU 0 instructions: 820000108 cycles: 744949815 heartbeat IPC: 1.262 cumulative IPC: 1.101 (Simulation time: 01 hr 48 min 37 sec)
Heartbeat CPU 0 instructions: 830000109 cycles: 752602185 heartbeat IPC: 1.307 cumulative IPC: 1.103 (Simulation time: 01 hr 49 min 35 sec)
Heartbeat CPU 0 instructions: 840000109 cycles: 760658257 heartbeat IPC: 1.241 cumulative IPC: 1.104 (Simulation time: 01 hr 50 min 36 sec)
Heartbeat CPU 0 instructions: 850000111 cycles: 768381093 heartbeat IPC: 1.295 cumulative IPC: 1.106 (Simulation time: 01 hr 51 min 34 sec)
[ERROR_CYCLE] Error added at CPU cycle 775856412, interval 11, pending count: 1
Heartbeat CPU 0 instructions: 860000115 cycles: 776446664 heartbeat IPC: 1.24 cumulative IPC: 1.108 (Simulation time: 01 hr 52 min 35 sec)
[DRAM_CYCLE_ERROR] Cycle-based error applied! address=0x18acaf728 additional_latency=1990500 cycles
Heartbeat CPU 0 instructions: 870000115 cycles: 784224959 heartbeat IPC: 1.286 cumulative IPC: 1.109 (Simulation time: 01 hr 53 min 34 sec)
Heartbeat CPU 0 instructions: 880000118 cycles: 792201902 heartbeat IPC: 1.254 cumulative IPC: 1.111 (Simulation time: 01 hr 54 min 27 sec)
Heartbeat CPU 0 instructions: 890000118 cycles: 800246189 heartbeat IPC: 1.243 cumulative IPC: 1.112 (Simulation time: 01 hr 55 min 12 sec)
Heartbeat CPU 0 instructions: 900000118 cycles: 807977271 heartbeat IPC: 1.293 cumulative IPC: 1.114 (Simulation time: 01 hr 55 min 53 sec)
Heartbeat CPU 0 instructions: 910000118 cycles: 816306195 heartbeat IPC: 1.201 cumulative IPC: 1.115 (Simulation time: 01 hr 56 min 34 sec)
Heartbeat CPU 0 instructions: 920000118 cycles: 824213740 heartbeat IPC: 1.265 cumulative IPC: 1.116 (Simulation time: 01 hr 57 min 32 sec)
Heartbeat CPU 0 instructions: 930000121 cycles: 832191818 heartbeat IPC: 1.253 cumulative IPC: 1.118 (Simulation time: 01 hr 58 min 34 sec)
Heartbeat CPU 0 instructions: 940000124 cycles: 840254809 heartbeat IPC: 1.24 cumulative IPC: 1.119 (Simulation time: 01 hr 59 min 37 sec)
[ERROR_CYCLE] Error added at CPU cycle 846388812, interval 12, pending count: 1
Heartbeat CPU 0 instructions: 950000124 cycles: 848089992 heartbeat IPC: 1.276 cumulative IPC: 1.12 (Simulation time: 02 hr 00 min 38 sec)
[DRAM_CYCLE_ERROR] Cycle-based error applied! address=0x2c117b580 additional_latency=1990500 cycles
Heartbeat CPU 0 instructions: 960000124 cycles: 856244324 heartbeat IPC: 1.226 cumulative IPC: 1.121 (Simulation time: 02 hr 01 min 41 sec)
Heartbeat CPU 0 instructions: 970000124 cycles: 864040509 heartbeat IPC: 1.283 cumulative IPC: 1.123 (Simulation time: 02 hr 02 min 42 sec)
Heartbeat CPU 0 instructions: 980000124 cycles: 872279248 heartbeat IPC: 1.214 cumulative IPC: 1.123 (Simulation time: 02 hr 03 min 45 sec)
Heartbeat CPU 0 instructions: 990000125 cycles: 880006116 heartbeat IPC: 1.294 cumulative IPC: 1.125 (Simulation time: 02 hr 04 min 46 sec)
Heartbeat CPU 0 instructions: 1000000128 cycles: 888233834 heartbeat IPC: 1.215 cumulative IPC: 1.126 (Simulation time: 02 hr 05 min 50 sec)
Heartbeat CPU 0 instructions: 1010000128 cycles: 895908461 heartbeat IPC: 1.303 cumulative IPC: 1.127 (Simulation time: 02 hr 06 min 51 sec)
Heartbeat CPU 0 instructions: 1020000128 cycles: 904030938 heartbeat IPC: 1.231 cumulative IPC: 1.128 (Simulation time: 02 hr 07 min 54 sec)
Heartbeat CPU 0 instructions: 1030000128 cycles: 911902521 heartbeat IPC: 1.27 cumulative IPC: 1.13 (Simulation time: 02 hr 08 min 56 sec)
[ERROR_CYCLE] Error added at CPU cycle 916921213, interval 13, pending count: 1
[DRAM_CYCLE_ERROR] Cycle-based error applied! address=0x47e3a5028 additional_latency=1990500 cycles
Heartbeat CPU 0 instructions: 1040000128 cycles: 920088418 heartbeat IPC: 1.222 cumulative IPC: 1.13 (Simulation time: 02 hr 10 min 00 sec)
Heartbeat CPU 0 instructions: 1050000129 cycles: 928065399 heartbeat IPC: 1.254 cumulative IPC: 1.131 (Simulation time: 02 hr 11 min 02 sec)
Heartbeat CPU 0 instructions: 1060000133 cycles: 935792343 heartbeat IPC: 1.294 cumulative IPC: 1.133 (Simulation time: 02 hr 11 min 50 sec)
Heartbeat CPU 0 instructions: 1070000136 cycles: 943924305 heartbeat IPC: 1.23 cumulative IPC: 1.134 (Simulation time: 02 hr 12 min 32 sec)
Heartbeat CPU 0 instructions: 1080000139 cycles: 951835632 heartbeat IPC: 1.264 cumulative IPC: 1.135 (Simulation time: 02 hr 13 min 19 sec)
Heartbeat CPU 0 instructions: 1090000139 cycles: 959779891 heartbeat IPC: 1.259 cumulative IPC: 1.136 (Simulation time: 02 hr 14 min 06 sec)
Heartbeat CPU 0 instructions: 1100000139 cycles: 967576876 heartbeat IPC: 1.283 cumulative IPC: 1.137 (Simulation time: 02 hr 14 min 46 sec)
Heartbeat CPU 0 instructions: 1110000140 cycles: 975515384 heartbeat IPC: 1.26 cumulative IPC: 1.138 (Simulation time: 02 hr 15 min 34 sec)
Heartbeat CPU 0 instructions: 1120000140 cycles: 983152406 heartbeat IPC: 1.309 cumulative IPC: 1.139 (Simulation time: 02 hr 16 min 34 sec)
[ERROR_CYCLE] Error added at CPU cycle 987453615, interval 14, pending count: 1
[DRAM_CYCLE_ERROR] Cycle-based error applied! address=0x2c117d898 additional_latency=1990500 cycles
Heartbeat CPU 0 instructions: 1130000142 cycles: 991542305 heartbeat IPC: 1.192 cumulative IPC: 1.14 (Simulation time: 02 hr 17 min 41 sec)
Heartbeat CPU 0 instructions: 1140000142 cycles: 999302879 heartbeat IPC: 1.289 cumulative IPC: 1.141 (Simulation time: 02 hr 18 min 56 sec)
Heartbeat CPU 0 instructions: 1150000143 cycles: 1005638760 heartbeat IPC: 1.578 cumulative IPC: 1.144 (Simulation time: 02 hr 20 min 00 sec)
Heartbeat CPU 0 instructions: 1160000147 cycles: 1012006007 heartbeat IPC: 1.571 cumulative IPC: 1.146 (Simulation time: 02 hr 21 min 05 sec)
Heartbeat CPU 0 instructions: 1170000151 cycles: 1021724069 heartbeat IPC: 1.029 cumulative IPC: 1.145 (Simulation time: 02 hr 22 min 40 sec)
Heartbeat CPU 0 instructions: 1180000153 cycles: 1037122747 heartbeat IPC: 0.6494 cumulative IPC: 1.138 (Simulation time: 02 hr 24 min 33 sec)
Heartbeat CPU 0 instructions: 1190000154 cycles: 1046314731 heartbeat IPC: 1.088 cumulative IPC: 1.137 (Simulation time: 02 hr 26 min 11 sec)
Heartbeat CPU 0 instructions: 1200000154 cycles: 1053397540 heartbeat IPC: 1.412 cumulative IPC: 1.139 (Simulation time: 02 hr 27 min 24 sec)
[ERROR_CYCLE] Error added at CPU cycle 1057986016, interval 15, pending count: 1
[DRAM_CYCLE_ERROR] Cycle-based error applied! address=0x249a1f140 additional_latency=1990500 cycles
Heartbeat CPU 0 instructions: 1210000157 cycles: 1060487822 heartbeat IPC: 1.41 cumulative IPC: 1.141 (Simulation time: 02 hr 28 min 37 sec)
Heartbeat CPU 0 instructions: 1220000159 cycles: 1067587717 heartbeat IPC: 1.408 cumulative IPC: 1.143 (Simulation time: 02 hr 29 min 50 sec)
Heartbeat CPU 0 instructions: 1230000163 cycles: 1083037755 heartbeat IPC: 0.6472 cumulative IPC: 1.136 (Simulation time: 02 hr 31 min 42 sec)
Heartbeat CPU 0 instructions: 1240000163 cycles: 1093867590 heartbeat IPC: 0.9234 cumulative IPC: 1.134 (Simulation time: 02 hr 33 min 11 sec)
Heartbeat CPU 0 instructions: 1250000165 cycles: 1101656210 heartbeat IPC: 1.284 cumulative IPC: 1.135 (Simulation time: 02 hr 34 min 11 sec)
Heartbeat CPU 0 instructions: 1260000165 cycles: 1109406241 heartbeat IPC: 1.29 cumulative IPC: 1.136 (Simulation time: 02 hr 35 min 10 sec)
Heartbeat CPU 0 instructions: 1270000168 cycles: 1117156265 heartbeat IPC: 1.29 cumulative IPC: 1.137 (Simulation time: 02 hr 36 min 10 sec)
Heartbeat CPU 0 instructions: 1280000169 cycles: 1124904470 heartbeat IPC: 1.291 cumulative IPC: 1.138 (Simulation time: 02 hr 37 min 09 sec)
[ERROR_CYCLE] Error added at CPU cycle 1128518416, interval 16, pending count: 1
[DRAM_CYCLE_ERROR] Cycle-based error applied! address=0x3e844a0c0 additional_latency=1990500 cycles
Heartbeat CPU 0 instructions: 1290000171 cycles: 1132648027 heartbeat IPC: 1.291 cumulative IPC: 1.139 (Simulation time: 02 hr 38 min 08 sec)
Heartbeat CPU 0 instructions: 1300000171 cycles: 1140393961 heartbeat IPC: 1.291 cumulative IPC: 1.14 (Simulation time: 02 hr 39 min 00 sec)
Heartbeat CPU 0 instructions: 1310000175 cycles: 1148123631 heartbeat IPC: 1.294 cumulative IPC: 1.141 (Simulation time: 02 hr 39 min 54 sec)
Heartbeat CPU 0 instructions: 1320000176 cycles: 1155838407 heartbeat IPC: 1.296 cumulative IPC: 1.142 (Simulation time: 02 hr 40 min 53 sec)
Heartbeat CPU 0 instructions: 1330000180 cycles: 1163540893 heartbeat IPC: 1.298 cumulative IPC: 1.143 (Simulation time: 02 hr 41 min 52 sec)
Heartbeat CPU 0 instructions: 1340000180 cycles: 1171231778 heartbeat IPC: 1.3 cumulative IPC: 1.144 (Simulation time: 02 hr 42 min 38 sec)
Heartbeat CPU 0 instructions: 1350000181 cycles: 1178905597 heartbeat IPC: 1.303 cumulative IPC: 1.145 (Simulation time: 02 hr 43 min 23 sec)
Heartbeat CPU 0 instructions: 1360000182 cycles: 1186564599 heartbeat IPC: 1.306 cumulative IPC: 1.146 (Simulation time: 02 hr 44 min 15 sec)
Heartbeat CPU 0 instructions: 1370000185 cycles: 1194235883 heartbeat IPC: 1.304 cumulative IPC: 1.147 (Simulation time: 02 hr 45 min 05 sec)
[ERROR_CYCLE] Error added at CPU cycle 1199050817, interval 17, pending count: 1
[DRAM_CYCLE_ERROR] Cycle-based error applied! address=0x230b3bcc0 additional_latency=1990500 cycles
Heartbeat CPU 0 instructions: 1380000189 cycles: 1201903428 heartbeat IPC: 1.304 cumulative IPC: 1.148 (Simulation time: 02 hr 46 min 02 sec)
Heartbeat CPU 0 instructions: 1390000190 cycles: 1209571113 heartbeat IPC: 1.304 cumulative IPC: 1.149 (Simulation time: 02 hr 46 min 49 sec)
Heartbeat CPU 0 instructions: 1400000190 cycles: 1217240663 heartbeat IPC: 1.304 cumulative IPC: 1.15 (Simulation time: 02 hr 47 min 33 sec)
Heartbeat CPU 0 instructions: 1410000193 cycles: 1224911280 heartbeat IPC: 1.304 cumulative IPC: 1.151 (Simulation time: 02 hr 48 min 15 sec)
Heartbeat CPU 0 instructions: 1420000194 cycles: 1232594258 heartbeat IPC: 1.302 cumulative IPC: 1.152 (Simulation time: 02 hr 48 min 56 sec)
Heartbeat CPU 0 instructions: 1430000194 cycles: 1240279634 heartbeat IPC: 1.301 cumulative IPC: 1.153 (Simulation time: 02 hr 49 min 43 sec)
Heartbeat CPU 0 instructions: 1440000194 cycles: 1247964520 heartbeat IPC: 1.301 cumulative IPC: 1.154 (Simulation time: 02 hr 50 min 30 sec)
Heartbeat CPU 0 instructions: 1450000194 cycles: 1255640906 heartbeat IPC: 1.303 cumulative IPC: 1.155 (Simulation time: 02 hr 51 min 09 sec)
Heartbeat CPU 0 instructions: 1460000194 cycles: 1263318034 heartbeat IPC: 1.303 cumulative IPC: 1.156 (Simulation time: 02 hr 52 min 00 sec)
[ERROR_CYCLE] Error added at CPU cycle 1269583218, interval 18, pending count: 1
[DRAM_CYCLE_ERROR] Cycle-based error applied! address=0xfddca840 additional_latency=1990500 cycles
Heartbeat CPU 0 instructions: 1470000194 cycles: 1271005842 heartbeat IPC: 1.301 cumulative IPC: 1.157 (Simulation time: 02 hr 52 min 45 sec)
Heartbeat CPU 0 instructions: 1480000194 cycles: 1278688739 heartbeat IPC: 1.302 cumulative IPC: 1.157 (Simulation time: 02 hr 53 min 24 sec)
Heartbeat CPU 0 instructions: 1490000195 cycles: 1286374779 heartbeat IPC: 1.301 cumulative IPC: 1.158 (Simulation time: 02 hr 54 min 03 sec)
Heartbeat CPU 0 instructions: 1500000196 cycles: 1294060027 heartbeat IPC: 1.301 cumulative IPC: 1.159 (Simulation time: 02 hr 54 min 47 sec)
Heartbeat CPU 0 instructions: 1510000196 cycles: 1301746030 heartbeat IPC: 1.301 cumulative IPC: 1.16 (Simulation time: 02 hr 55 min 30 sec)
Heartbeat CPU 0 instructions: 1520000196 cycles: 1309421928 heartbeat IPC: 1.303 cumulative IPC: 1.161 (Simulation time: 02 hr 56 min 16 sec)
Heartbeat CPU 0 instructions: 1530000196 cycles: 1317104317 heartbeat IPC: 1.302 cumulative IPC: 1.162 (Simulation time: 02 hr 57 min 16 sec)
Heartbeat CPU 0 instructions: 1540000197 cycles: 1324778800 heartbeat IPC: 1.303 cumulative IPC: 1.162 (Simulation time: 02 hr 58 min 17 sec)
Heartbeat CPU 0 instructions: 1550000197 cycles: 1332445477 heartbeat IPC: 1.304 cumulative IPC: 1.163 (Simulation time: 02 hr 59 min 17 sec)
Heartbeat CPU 0 instructions: 1560000199 cycles: 1340077988 heartbeat IPC: 1.31 cumulative IPC: 1.164 (Simulation time: 03 hr 00 min 10 sec)
[ERROR_CYCLE] Error added at CPU cycle 1340115620, interval 19, pending count: 1
[DRAM_CYCLE_ERROR] Cycle-based error applied! address=0x230b3d594 additional_latency=1990500 cycles
Heartbeat CPU 0 instructions: 1570000199 cycles: 1347716954 heartbeat IPC: 1.309 cumulative IPC: 1.165 (Simulation time: 03 hr 00 min 54 sec)
Heartbeat CPU 0 instructions: 1580000199 cycles: 1355364281 heartbeat IPC: 1.308 cumulative IPC: 1.166 (Simulation time: 03 hr 01 min 51 sec)
Heartbeat CPU 0 instructions: 1590000200 cycles: 1363013788 heartbeat IPC: 1.307 cumulative IPC: 1.167 (Simulation time: 03 hr 02 min 41 sec)
Heartbeat CPU 0 instructions: 1600000200 cycles: 1370654072 heartbeat IPC: 1.309 cumulative IPC: 1.167 (Simulation time: 03 hr 03 min 29 sec)
Heartbeat CPU 0 instructions: 1610000200 cycles: 1378298621 heartbeat IPC: 1.308 cumulative IPC: 1.168 (Simulation time: 03 hr 04 min 11 sec)
Heartbeat CPU 0 instructions: 1620000200 cycles: 1385933738 heartbeat IPC: 1.31 cumulative IPC: 1.169 (Simulation time: 03 hr 04 min 50 sec)
Heartbeat CPU 0 instructions: 1630000202 cycles: 1393578416 heartbeat IPC: 1.308 cumulative IPC: 1.17 (Simulation time: 03 hr 05 min 32 sec)
Heartbeat CPU 0 instructions: 1640000206 cycles: 1401224054 heartbeat IPC: 1.308 cumulative IPC: 1.17 (Simulation time: 03 hr 06 min 30 sec)
Heartbeat CPU 0 instructions: 1650000206 cycles: 1408874491 heartbeat IPC: 1.307 cumulative IPC: 1.171 (Simulation time: 03 hr 07 min 26 sec)
[ERROR_CYCLE] Error added at CPU cycle 1410648021, interval 20, pending count: 1
[DRAM_CYCLE_ERROR] Cycle-based error applied! address=0x230b3e200 additional_latency=1990500 cycles
Heartbeat CPU 0 instructions: 1660000210 cycles: 1416538957 heartbeat IPC: 1.305 cumulative IPC: 1.172 (Simulation time: 03 hr 08 min 16 sec)
Heartbeat CPU 0 instructions: 1670000210 cycles: 1424205078 heartbeat IPC: 1.304 cumulative IPC: 1.173 (Simulation time: 03 hr 09 min 17 sec)
Heartbeat CPU 0 instructions: 1680000210 cycles: 1431880278 heartbeat IPC: 1.303 cumulative IPC: 1.173 (Simulation time: 03 hr 10 min 17 sec)
Heartbeat CPU 0 instructions: 1690000210 cycles: 1439561549 heartbeat IPC: 1.302 cumulative IPC: 1.174 (Simulation time: 03 hr 11 min 17 sec)
Heartbeat CPU 0 instructions: 1700000211 cycles: 1447235536 heartbeat IPC: 1.303 cumulative IPC: 1.175 (Simulation time: 03 hr 12 min 18 sec)
Heartbeat CPU 0 instructions: 1710000214 cycles: 1454910638 heartbeat IPC: 1.303 cumulative IPC: 1.175 (Simulation time: 03 hr 13 min 19 sec)
Heartbeat CPU 0 instructions: 1720000215 cycles: 1462586554 heartbeat IPC: 1.303 cumulative IPC: 1.176 (Simulation time: 03 hr 14 min 12 sec)
Heartbeat CPU 0 instructions: 1730000215 cycles: 1470261275 heartbeat IPC: 1.303 cumulative IPC: 1.177 (Simulation time: 03 hr 15 min 00 sec)
Heartbeat CPU 0 instructions: 1740000215 cycles: 1477935489 heartbeat IPC: 1.303 cumulative IPC: 1.177 (Simulation time: 03 hr 15 min 54 sec)
[ERROR_CYCLE] Error added at CPU cycle 1481180421, interval 21, pending count: 1
[DRAM_CYCLE_ERROR] Cycle-based error applied! address=0x3e844dec0 additional_latency=1990500 cycles
Heartbeat CPU 0 instructions: 1750000216 cycles: 1485608334 heartbeat IPC: 1.303 cumulative IPC: 1.178 (Simulation time: 03 hr 16 min 54 sec)
Heartbeat CPU 0 instructions: 1760000220 cycles: 1493282922 heartbeat IPC: 1.303 cumulative IPC: 1.179 (Simulation time: 03 hr 17 min 54 sec)
Heartbeat CPU 0 instructions: 1770000220 cycles: 1500962244 heartbeat IPC: 1.302 cumulative IPC: 1.179 (Simulation time: 03 hr 18 min 55 sec)
Heartbeat CPU 0 instructions: 1780000220 cycles: 1508637124 heartbeat IPC: 1.303 cumulative IPC: 1.18 (Simulation time: 03 hr 19 min 55 sec)
Heartbeat CPU 0 instructions: 1790000221 cycles: 1516321659 heartbeat IPC: 1.301 cumulative IPC: 1.18 (Simulation time: 03 hr 20 min 56 sec)
Heartbeat CPU 0 instructions: 1800000221 cycles: 1523994767 heartbeat IPC: 1.303 cumulative IPC: 1.181 (Simulation time: 03 hr 21 min 56 sec)
Heartbeat CPU 0 instructions: 1810000221 cycles: 1531668843 heartbeat IPC: 1.303 cumulative IPC: 1.182 (Simulation time: 03 hr 22 min 57 sec)
Heartbeat CPU 0 instructions: 1820000221 cycles: 1539345326 heartbeat IPC: 1.303 cumulative IPC: 1.182 (Simulation time: 03 hr 23 min 57 sec)
Heartbeat CPU 0 instructions: 1830000223 cycles: 1546437787 heartbeat IPC: 1.41 cumulative IPC: 1.183 (Simulation time: 03 hr 24 min 59 sec)
[ERROR_CYCLE] Error added at CPU cycle 1551712822, interval 22, pending count: 1
[DRAM_CYCLE_ERROR] Cycle-based error applied! address=0x1e6d79380 additional_latency=1990500 cycles
Heartbeat CPU 0 instructions: 1840000224 cycles: 1552554790 heartbeat IPC: 1.635 cumulative IPC: 1.185 (Simulation time: 03 hr 25 min 57 sec)
Heartbeat CPU 0 instructions: 1850000225 cycles: 1558837242 heartbeat IPC: 1.592 cumulative IPC: 1.187 (Simulation time: 03 hr 26 min 55 sec)
Heartbeat CPU 0 instructions: 1860000226 cycles: 1565206226 heartbeat IPC: 1.57 cumulative IPC: 1.188 (Simulation time: 03 hr 27 min 48 sec)
Heartbeat CPU 0 instructions: 1870000227 cycles: 1571610951 heartbeat IPC: 1.561 cumulative IPC: 1.19 (Simulation time: 03 hr 28 min 35 sec)
Heartbeat CPU 0 instructions: 1880000228 cycles: 1578123477 heartbeat IPC: 1.536 cumulative IPC: 1.191 (Simulation time: 03 hr 29 min 36 sec)
Heartbeat CPU 0 instructions: 1890000228 cycles: 1584624661 heartbeat IPC: 1.538 cumulative IPC: 1.193 (Simulation time: 03 hr 30 min 39 sec)
Heartbeat CPU 0 instructions: 1900000230 cycles: 1589929738 heartbeat IPC: 1.885 cumulative IPC: 1.195 (Simulation time: 03 hr 31 min 32 sec)
Heartbeat CPU 0 instructions: 1910000230 cycles: 1595183542 heartbeat IPC: 1.903 cumulative IPC: 1.197 (Simulation time: 03 hr 32 min 24 sec)
Heartbeat CPU 0 instructions: 1920000232 cycles: 1600591895 heartbeat IPC: 1.849 cumulative IPC: 1.2 (Simulation time: 03 hr 33 min 17 sec)
Heartbeat CPU 0 instructions: 1930000233 cycles: 1605889387 heartbeat IPC: 1.888 cumulative IPC: 1.202 (Simulation time: 03 hr 34 min 10 sec)
Heartbeat CPU 0 instructions: 1940000236 cycles: 1611137089 heartbeat IPC: 1.906 cumulative IPC: 1.204 (Simulation time: 03 hr 35 min 03 sec)
Heartbeat CPU 0 instructions: 1950000236 cycles: 1616465251 heartbeat IPC: 1.877 cumulative IPC: 1.206 (Simulation time: 03 hr 35 min 55 sec)
Heartbeat CPU 0 instructions: 1960000239 cycles: 1621742943 heartbeat IPC: 1.895 cumulative IPC: 1.209 (Simulation time: 03 hr 36 min 38 sec)
[ERROR_CYCLE] Error added at CPU cycle 1622245223, interval 23, pending count: 1
[DRAM_CYCLE_ERROR] Cycle-based error applied! address=0x28dff7994 additional_latency=1990500 cycles
Heartbeat CPU 0 instructions: 1970000239 cycles: 1627020356 heartbeat IPC: 1.895 cumulative IPC: 1.211 (Simulation time: 03 hr 37 min 27 sec)
Heartbeat CPU 0 instructions: 1980000239 cycles: 1632236243 heartbeat IPC: 1.917 cumulative IPC: 1.213 (Simulation time: 03 hr 38 min 19 sec)
Heartbeat CPU 0 instructions: 1990000240 cycles: 1637444341 heartbeat IPC: 1.92 cumulative IPC: 1.215 (Simulation time: 03 hr 39 min 12 sec)

=== ERROR PAGE STATISTICS ===
Mode: CYCLE
Error Cycle Interval: 70532401 CPU cycles
Total Error Accesses: 23
==============================
Simulation finished CPU 0 instructions: 1999999905 cycles: 1645734788 cumulative IPC: 1.215 (Simulation time: 03 hr 40 min 26 sec)
Simulation complete CPU 0 instructions: 1999999905 cycles: 1645734788 cumulative IPC: 1.215 (Simulation time: 03 hr 40 min 26 sec)

ChampSim completed all CPUs

=== Simulation ===
CPU 0 runs test_traces/621.wrf_s-6673B.champsimtrace.xz

Region of Interest Statistics

CPU 0 cumulative IPC: 1.215 instructions: 1999999905 cycles: 1645734788
CPU 0 Branch Prediction Accuracy: 93.25% MPKI: 6.743 Average ROB Occupancy at Mispredict: 67.09
Branch type MPKI
BRANCH_DIRECT_JUMP: 0.00112
BRANCH_INDIRECT: 6.95e-05
BRANCH_CONDITIONAL: 5.98
BRANCH_DIRECT_CALL: 0.002089
BRANCH_INDIRECT_CALL: 2e-06
BRANCH_RETURN: 0.7595

cpu0->cpu0_STLB TOTAL        ACCESS:        124 HIT:         45 MISS:         79 MSHR_MERGE:          0
cpu0->cpu0_STLB LOAD         ACCESS:        124 HIT:         45 MISS:         79 MSHR_MERGE:          0
cpu0->cpu0_STLB RFO          ACCESS:          0 HIT:          0 MISS:          0 MSHR_MERGE:          0
cpu0->cpu0_STLB PREFETCH     ACCESS:          0 HIT:          0 MISS:          0 MSHR_MERGE:          0
cpu0->cpu0_STLB WRITE        ACCESS:          0 HIT:          0 MISS:          0 MSHR_MERGE:          0
cpu0->cpu0_STLB TRANSLATION  ACCESS:          0 HIT:          0 MISS:          0 MSHR_MERGE:          0
cpu0->cpu0_STLB PREFETCH REQUESTED:          0 ISSUED:          0 USEFUL:          0 USELESS:          0
cpu0->cpu0_STLB AVERAGE MISS LATENCY: 9395 cycles
cpu0->cpu0_L2C TOTAL        ACCESS:   24599586 HIT:   13033078 MISS:   11566508 MSHR_MERGE:          0
cpu0->cpu0_L2C LOAD         ACCESS:   13806129 HIT:    4693475 MISS:    9112654 MSHR_MERGE:          0
cpu0->cpu0_L2C RFO          ACCESS:    3870370 HIT:    1420511 MISS:    2449859 MSHR_MERGE:          0
cpu0->cpu0_L2C PREFETCH     ACCESS:          0 HIT:          0 MISS:          0 MSHR_MERGE:          0
cpu0->cpu0_L2C WRITE        ACCESS:    6923087 HIT:    6919092 MISS:       3995 MSHR_MERGE:          0
cpu0->cpu0_L2C TRANSLATION  ACCESS:          0 HIT:          0 MISS:          0 MSHR_MERGE:          0
cpu0->cpu0_L2C PREFETCH REQUESTED:          0 ISSUED:          0 USEFUL:          0 USELESS:          0
cpu0->cpu0_L2C AVERAGE MISS LATENCY: 109.5 cycles
cpu0->cpu0_L1I TOTAL        ACCESS:  172466757 HIT:  171340475 MISS:    1126282 MSHR_MERGE:     423987
cpu0->cpu0_L1I LOAD         ACCESS:  172466757 HIT:  171340475 MISS:    1126282 MSHR_MERGE:     423987
cpu0->cpu0_L1I RFO          ACCESS:          0 HIT:          0 MISS:          0 MSHR_MERGE:          0
cpu0->cpu0_L1I PREFETCH     ACCESS:          0 HIT:          0 MISS:          0 MSHR_MERGE:          0
cpu0->cpu0_L1I WRITE        ACCESS:          0 HIT:          0 MISS:          0 MSHR_MERGE:          0
cpu0->cpu0_L1I TRANSLATION  ACCESS:          0 HIT:          0 MISS:          0 MSHR_MERGE:          0
cpu0->cpu0_L1I PREFETCH REQUESTED:          0 ISSUED:          0 USEFUL:          0 USELESS:          0
cpu0->cpu0_L1I AVERAGE MISS LATENCY: 13.68 cycles
cpu0->cpu0_L1D TOTAL        ACCESS:  525657307 HIT:  487951552 MISS:   37705755 MSHR_MERGE:   20731350
cpu0->cpu0_L1D LOAD         ACCESS:  412490046 HIT:  388554756 MISS:   23935290 MSHR_MERGE:   10831374
cpu0->cpu0_L1D RFO          ACCESS:          0 HIT:          0 MISS:          0 MSHR_MERGE:          0
cpu0->cpu0_L1D PREFETCH     ACCESS:          0 HIT:          0 MISS:          0 MSHR_MERGE:          0
cpu0->cpu0_L1D WRITE        ACCESS:  113167261 HIT:   99396796 MISS:   13770465 MSHR_MERGE:    9899976
cpu0->cpu0_L1D TRANSLATION  ACCESS:          0 HIT:          0 MISS:          0 MSHR_MERGE:          0
cpu0->cpu0_L1D PREFETCH REQUESTED:          0 ISSUED:          0 USEFUL:          0 USELESS:          0
cpu0->cpu0_L1D AVERAGE MISS LATENCY: 83.21 cycles
cpu0->cpu0_ITLB TOTAL        ACCESS:  147543328 HIT:  147543299 MISS:         29 MSHR_MERGE:         20
cpu0->cpu0_ITLB LOAD         ACCESS:  147543328 HIT:  147543299 MISS:         29 MSHR_MERGE:         20
cpu0->cpu0_ITLB RFO          ACCESS:          0 HIT:          0 MISS:          0 MSHR_MERGE:          0
cpu0->cpu0_ITLB PREFETCH     ACCESS:          0 HIT:          0 MISS:          0 MSHR_MERGE:          0
cpu0->cpu0_ITLB WRITE        ACCESS:          0 HIT:          0 MISS:          0 MSHR_MERGE:          0
cpu0->cpu0_ITLB TRANSLATION  ACCESS:          0 HIT:          0 MISS:          0 MSHR_MERGE:          0
cpu0->cpu0_ITLB PREFETCH REQUESTED:          0 ISSUED:          0 USEFUL:          0 USELESS:          0
cpu0->cpu0_ITLB AVERAGE MISS LATENCY: 8625 cycles
cpu0->cpu0_DTLB TOTAL        ACCESS:  450928890 HIT:  450928535 MISS:        355 MSHR_MERGE:        240
cpu0->cpu0_DTLB LOAD         ACCESS:  450928890 HIT:  450928535 MISS:        355 MSHR_MERGE:        240
cpu0->cpu0_DTLB RFO          ACCESS:          0 HIT:          0 MISS:          0 MSHR_MERGE:          0
cpu0->cpu0_DTLB PREFETCH     ACCESS:          0 HIT:          0 MISS:          0 MSHR_MERGE:          0
cpu0->cpu0_DTLB WRITE        ACCESS:          0 HIT:          0 MISS:          0 MSHR_MERGE:          0
cpu0->cpu0_DTLB TRANSLATION  ACCESS:          0 HIT:          0 MISS:          0 MSHR_MERGE:          0
cpu0->cpu0_DTLB PREFETCH REQUESTED:          0 ISSUED:          0 USEFUL:          0 USELESS:          0
cpu0->cpu0_DTLB AVERAGE MISS LATENCY: 5785 cycles
cpu0->LLC TOTAL        ACCESS:   16402774 HIT:    6357386 MISS:   10045388 MSHR_MERGE:          0
cpu0->LLC LOAD         ACCESS:    9112654 HIT:    1198666 MISS:    7913988 MSHR_MERGE:          0
cpu0->LLC RFO          ACCESS:    2449859 HIT:     330214 MISS:    2119645 MSHR_MERGE:          0
cpu0->LLC PREFETCH     ACCESS:          0 HIT:          0 MISS:          0 MSHR_MERGE:          0
cpu0->LLC WRITE        ACCESS:    4840261 HIT:    4828506 MISS:      11755 MSHR_MERGE:          0
cpu0->LLC TRANSLATION  ACCESS:          0 HIT:          0 MISS:          0 MSHR_MERGE:          0
cpu0->LLC PREFETCH REQUESTED:          0 ISSUED:          0 USEFUL:          0 USELESS:          0
cpu0->LLC AVERAGE MISS LATENCY: 107.8 cycles

DRAM Statistics

Channel 0 RQ ROW_BUFFER_HIT:     274630
  ROW_BUFFER_MISS:    4742171
  AVG DBUS CONGESTED CYCLE: 10.64
Channel 0 WQ ROW_BUFFER_HIT:     582264
  ROW_BUFFER_MISS:    1424792
  FULL:        166
Channel 0 REFRESHES ISSUED:     137135

Channel 1 RQ ROW_BUFFER_HIT:     275261
  ROW_BUFFER_MISS:    4741508
  AVG DBUS CONGESTED CYCLE: 10.67
Channel 1 WQ ROW_BUFFER_HIT:     580209
  ROW_BUFFER_MISS:    1427006
  FULL:          9
Channel 1 REFRESHES ISSUED:     137135
