
*** ChampSim Multicore Out-of-Order Simulator ***
Warmup Instructions: 0
Simulation Instructions: 9223372036854775807
Number of CPUs: 1
Page size: 1048576

Off-chip DRAM Size: 128 GiB Channels: 2 Width: 32-bit Data Rate: 4807 MT/s
[ERROR_PAGE_MANAGER] Error latency: 2459910500 
[ERROR_PAGE_MANAGER] Random seed: 54321 (fixed for preload reproducibility)
[ERROR_PAGE_MANAGER] Cycle-based error modeling enabled
[ERROR_PAGE_MANAGER] Errors per interval: 1
[ERROR_PAGE_MANAGER] Error cycle interval: 257630478 cycles

=== ERROR PAGE STATISTICS ===
Mode: CYCLE
Error Cycle Interval: 257630478 CPU cycles
Total Error Accesses: 0
==============================
Warmup finished CPU 0 instructions: 0 cycles: 1 cumulative IPC: 0 (Simulation time: 00 hr 00 min 00 sec)
Warmup complete CPU 0 instructions: 0 cycles: 1 cumulative IPC: 0 (Simulation time: 00 hr 00 min 00 sec)
Simulation CPU 0 panic: IPC 0 < 0.01
Simulation CPU 0 panic: IPC 1e-07 < 0.01
Simulation CPU 0 panic: IPC 7e-07 < 0.01
Simulation CPU 0 panic: IPC 1.6e-06 < 0.01
Simulation CPU 0 panic: IPC 0.0001073 < 0.01
Simulation CPU 0 panic: IPC 0.000294 < 0.01
Simulation CPU 0 panic: IPC 0.0026443 < 0.01
Simulation CPU 0 panic: IPC 2e-07 < 0.01
Simulation CPU 0 panic: IPC 1.1e-06 < 0.01
Simulation CPU 0 panic: IPC 7e-06 < 0.01
Simulation CPU 0 panic: IPC 6.2e-06 < 0.01
Simulation CPU 0 panic: IPC 1.93e-05 < 0.01
Simulation CPU 0 warning: IPC 0.046351 < 0.05
Simulation CPU 0 warning: IPC 0.034762 < 0.05
Simulation CPU 0 critical: IPC 0.018225 < 0.02
Heartbeat CPU 0 instructions: 10000001 cycles: 174932616 heartbeat IPC: 0.05716 cumulative IPC: 0.05716 (Simulation time: 00 hr 16 min 15 sec)
Heartbeat CPU 0 instructions: 20000001 cycles: 212921811 heartbeat IPC: 0.2632 cumulative IPC: 0.09393 (Simulation time: 00 hr 19 min 46 sec)
Simulation CPU 0 panic: IPC 2.99e-05 < 0.01
Simulation CPU 0 panic: IPC 0.0001586 < 0.01
[ERROR_CYCLE] Error added at CPU cycle 257630478, interval 1, pending count: 1
[DRAM_CYCLE_ERROR] Cycle-based error applied! address=0x1c7bfafe04 additional_latency=2459910500 cycles
Simulation CPU 0 panic: IPC 0 < 0.01
Heartbeat CPU 0 instructions: 30000001 cycles: 280885746 heartbeat IPC: 0.1471 cumulative IPC: 0.1068 (Simulation time: 00 hr 26 min 51 sec)
Simulation CPU 0 panic: IPC 3e-07 < 0.01
Simulation CPU 0 panic: IPC 0.0014203 < 0.01
Simulation CPU 0 panic: IPC 3.12e-05 < 0.01
Simulation CPU 0 critical: IPC 0.011944 < 0.02
Simulation CPU 0 panic: IPC 0.0058584 < 0.01
Simulation CPU 0 panic: IPC 0.0006825 < 0.01
Simulation CPU 0 panic: IPC 0.0020302 < 0.01
Simulation CPU 0 warning: IPC 0.030353 < 0.05
Simulation CPU 0 panic: IPC 0.0046933 < 0.01
Simulation CPU 0 panic: IPC 0.0064663 < 0.01
Simulation CPU 0 panic: IPC 2.76e-05 < 0.01
Simulation CPU 0 panic: IPC 4.04e-05 < 0.01
Simulation CPU 0 warning: IPC 0.025239 < 0.05
Simulation CPU 0 panic: IPC 0.0063702 < 0.01
Heartbeat CPU 0 instructions: 40000003 cycles: 490738320 heartbeat IPC: 0.04765 cumulative IPC: 0.08151 (Simulation time: 00 hr 45 min 28 sec)
Simulation CPU 0 panic: IPC 4.4e-06 < 0.01
[ERROR_CYCLE] Error added at CPU cycle 515260956, interval 2, pending count: 1
[DRAM_CYCLE_ERROR] Cycle-based error applied! address=0x1125873b84 additional_latency=2459910500 cycles
Simulation CPU 0 panic: IPC 9.1e-06 < 0.01
Simulation CPU 0 panic: IPC 2.49e-05 < 0.01
Heartbeat CPU 0 instructions: 50000004 cycles: 548110163 heartbeat IPC: 0.1743 cumulative IPC: 0.09122 (Simulation time: 00 hr 50 min 56 sec)
Heartbeat CPU 0 instructions: 60000007 cycles: 568832944 heartbeat IPC: 0.4826 cumulative IPC: 0.1055 (Simulation time: 00 hr 52 min 58 sec)
Heartbeat CPU 0 instructions: 70000011 cycles: 582797013 heartbeat IPC: 0.7161 cumulative IPC: 0.1201 (Simulation time: 00 hr 55 min 02 sec)
Heartbeat CPU 0 instructions: 80000011 cycles: 594189149 heartbeat IPC: 0.8778 cumulative IPC: 0.1346 (Simulation time: 00 hr 56 min 38 sec)
Heartbeat CPU 0 instructions: 90000015 cycles: 606226755 heartbeat IPC: 0.8307 cumulative IPC: 0.1485 (Simulation time: 00 hr 58 min 22 sec)
Heartbeat CPU 0 instructions: 100000015 cycles: 632483721 heartbeat IPC: 0.3809 cumulative IPC: 0.1581 (Simulation time: 01 hr 01 min 26 sec)
Simulation CPU 0 critical: IPC 0.014196 < 0.02
Simulation CPU 0 panic: IPC 0.0001153 < 0.01
Simulation CPU 0 panic: IPC 7.61e-05 < 0.01
Heartbeat CPU 0 instructions: 110000019 cycles: 675300302 heartbeat IPC: 0.2336 cumulative IPC: 0.1629 (Simulation time: 01 hr 05 min 28 sec)
Simulation CPU 0 warning: IPC 0.033339 < 0.05
Simulation CPU 0 critical: IPC 0.015581 < 0.02
Simulation CPU 0 warning: IPC 0.030834 < 0.05
Heartbeat CPU 0 instructions: 120000019 cycles: 728617518 heartbeat IPC: 0.1876 cumulative IPC: 0.1647 (Simulation time: 01 hr 10 min 17 sec)
Heartbeat CPU 0 instructions: 130000020 cycles: 734286420 heartbeat IPC: 1.764 cumulative IPC: 0.177 (Simulation time: 01 hr 11 min 05 sec)
Heartbeat CPU 0 instructions: 140000020 cycles: 760334374 heartbeat IPC: 0.3839 cumulative IPC: 0.1841 (Simulation time: 01 hr 13 min 44 sec)
[ERROR_CYCLE] Error added at CPU cycle 772891435, interval 3, pending count: 1
[DRAM_CYCLE_ERROR] Cycle-based error applied! address=0xdc3317574 additional_latency=2459910500 cycles
Simulation CPU 0 panic: IPC 0 < 0.01
Heartbeat CPU 0 instructions: 150000024 cycles: 785122129 heartbeat IPC: 0.4034 cumulative IPC: 0.1911 (Simulation time: 01 hr 16 min 27 sec)
Heartbeat CPU 0 instructions: 160000027 cycles: 801296162 heartbeat IPC: 0.6183 cumulative IPC: 0.1997 (Simulation time: 01 hr 18 min 43 sec)
Heartbeat CPU 0 instructions: 170000027 cycles: 817612486 heartbeat IPC: 0.6129 cumulative IPC: 0.2079 (Simulation time: 01 hr 20 min 38 sec)
Heartbeat CPU 0 instructions: 180000028 cycles: 823292917 heartbeat IPC: 1.76 cumulative IPC: 0.2186 (Simulation time: 01 hr 21 min 28 sec)
Heartbeat CPU 0 instructions: 190000028 cycles: 840565695 heartbeat IPC: 0.5789 cumulative IPC: 0.226 (Simulation time: 01 hr 23 min 08 sec)
Heartbeat CPU 0 instructions: 200000028 cycles: 846896951 heartbeat IPC: 1.579 cumulative IPC: 0.2362 (Simulation time: 01 hr 24 min 10 sec)
Heartbeat CPU 0 instructions: 210000028 cycles: 853244868 heartbeat IPC: 1.575 cumulative IPC: 0.2461 (Simulation time: 01 hr 25 min 13 sec)
Heartbeat CPU 0 instructions: 220000030 cycles: 859659389 heartbeat IPC: 1.559 cumulative IPC: 0.2559 (Simulation time: 01 hr 26 min 00 sec)
Heartbeat CPU 0 instructions: 230000031 cycles: 871826264 heartbeat IPC: 0.8219 cumulative IPC: 0.2638 (Simulation time: 01 hr 27 min 18 sec)
Heartbeat CPU 0 instructions: 240000032 cycles: 884025673 heartbeat IPC: 0.8197 cumulative IPC: 0.2715 (Simulation time: 01 hr 28 min 53 sec)
Heartbeat CPU 0 instructions: 250000032 cycles: 889781576 heartbeat IPC: 1.737 cumulative IPC: 0.281 (Simulation time: 01 hr 29 min 47 sec)
Heartbeat CPU 0 instructions: 260000033 cycles: 896165433 heartbeat IPC: 1.566 cumulative IPC: 0.2901 (Simulation time: 01 hr 30 min 48 sec)
Heartbeat CPU 0 instructions: 270000036 cycles: 902179520 heartbeat IPC: 1.663 cumulative IPC: 0.2993 (Simulation time: 01 hr 31 min 37 sec)
Heartbeat CPU 0 instructions: 280000039 cycles: 907747651 heartbeat IPC: 1.796 cumulative IPC: 0.3085 (Simulation time: 01 hr 32 min 29 sec)
Heartbeat CPU 0 instructions: 290000042 cycles: 913948895 heartbeat IPC: 1.613 cumulative IPC: 0.3173 (Simulation time: 01 hr 33 min 32 sec)
Heartbeat CPU 0 instructions: 300000044 cycles: 921556624 heartbeat IPC: 1.314 cumulative IPC: 0.3255 (Simulation time: 01 hr 34 min 43 sec)
Heartbeat CPU 0 instructions: 310000044 cycles: 933186014 heartbeat IPC: 0.8599 cumulative IPC: 0.3322 (Simulation time: 01 hr 36 min 26 sec)
Heartbeat CPU 0 instructions: 320000047 cycles: 941845902 heartbeat IPC: 1.155 cumulative IPC: 0.3398 (Simulation time: 01 hr 37 min 49 sec)
Heartbeat CPU 0 instructions: 330000047 cycles: 952412101 heartbeat IPC: 0.9464 cumulative IPC: 0.3465 (Simulation time: 01 hr 39 min 21 sec)
Heartbeat CPU 0 instructions: 340000048 cycles: 964508347 heartbeat IPC: 0.8267 cumulative IPC: 0.3525 (Simulation time: 01 hr 41 min 05 sec)
Heartbeat CPU 0 instructions: 350000052 cycles: 980636081 heartbeat IPC: 0.6201 cumulative IPC: 0.3569 (Simulation time: 01 hr 43 min 33 sec)
Heartbeat CPU 0 instructions: 360000053 cycles: 991790912 heartbeat IPC: 0.8965 cumulative IPC: 0.363 (Simulation time: 01 hr 45 min 11 sec)
Heartbeat CPU 0 instructions: 370000053 cycles: 1003569915 heartbeat IPC: 0.849 cumulative IPC: 0.3687 (Simulation time: 01 hr 46 min 52 sec)
Heartbeat CPU 0 instructions: 380000055 cycles: 1017804341 heartbeat IPC: 0.7025 cumulative IPC: 0.3734 (Simulation time: 01 hr 48 min 58 sec)
Heartbeat CPU 0 instructions: 390000056 cycles: 1029687320 heartbeat IPC: 0.8415 cumulative IPC: 0.3788 (Simulation time: 01 hr 50 min 36 sec)
[ERROR_CYCLE] Error added at CPU cycle 1030521912, interval 4, pending count: 1
[DRAM_CYCLE_ERROR] Cycle-based error applied! address=0xf0021ab80 additional_latency=2459910500 cycles
Heartbeat CPU 0 instructions: 400000059 cycles: 1051903618 heartbeat IPC: 0.4501 cumulative IPC: 0.3803 (Simulation time: 01 hr 53 min 32 sec)
Heartbeat CPU 0 instructions: 410000059 cycles: 1065710106 heartbeat IPC: 0.7243 cumulative IPC: 0.3847 (Simulation time: 01 hr 55 min 31 sec)
Heartbeat CPU 0 instructions: 420000061 cycles: 1077502527 heartbeat IPC: 0.848 cumulative IPC: 0.3898 (Simulation time: 01 hr 57 min 09 sec)
Heartbeat CPU 0 instructions: 430000063 cycles: 1091471566 heartbeat IPC: 0.7159 cumulative IPC: 0.394 (Simulation time: 01 hr 59 min 04 sec)
Heartbeat CPU 0 instructions: 440000065 cycles: 1104593112 heartbeat IPC: 0.7621 cumulative IPC: 0.3983 (Simulation time: 02 hr 00 min 55 sec)
Heartbeat CPU 0 instructions: 450000069 cycles: 1116311140 heartbeat IPC: 0.8534 cumulative IPC: 0.4031 (Simulation time: 02 hr 02 min 31 sec)
Heartbeat CPU 0 instructions: 460000072 cycles: 1131589529 heartbeat IPC: 0.6545 cumulative IPC: 0.4065 (Simulation time: 02 hr 04 min 18 sec)
Simulation CPU 0 panic: IPC 3.72e-05 < 0.01
Heartbeat CPU 0 instructions: 470000074 cycles: 1166958518 heartbeat IPC: 0.2827 cumulative IPC: 0.4028 (Simulation time: 02 hr 07 min 37 sec)
Heartbeat CPU 0 instructions: 480000074 cycles: 1172959781 heartbeat IPC: 1.666 cumulative IPC: 0.4092 (Simulation time: 02 hr 08 min 30 sec)
Heartbeat CPU 0 instructions: 490000078 cycles: 1180207532 heartbeat IPC: 1.38 cumulative IPC: 0.4152 (Simulation time: 02 hr 09 min 22 sec)
Heartbeat CPU 0 instructions: 500000080 cycles: 1189054441 heartbeat IPC: 1.13 cumulative IPC: 0.4205 (Simulation time: 02 hr 10 min 39 sec)
Heartbeat CPU 0 instructions: 510000083 cycles: 1200083292 heartbeat IPC: 0.9067 cumulative IPC: 0.425 (Simulation time: 02 hr 12 min 10 sec)
Heartbeat CPU 0 instructions: 520000087 cycles: 1206193628 heartbeat IPC: 1.637 cumulative IPC: 0.4311 (Simulation time: 02 hr 13 min 07 sec)
Heartbeat CPU 0 instructions: 530000091 cycles: 1213459449 heartbeat IPC: 1.376 cumulative IPC: 0.4368 (Simulation time: 02 hr 14 min 17 sec)
Heartbeat CPU 0 instructions: 540000092 cycles: 1223117004 heartbeat IPC: 1.035 cumulative IPC: 0.4415 (Simulation time: 02 hr 15 min 33 sec)
Heartbeat CPU 0 instructions: 550000092 cycles: 1234481067 heartbeat IPC: 0.88 cumulative IPC: 0.4455 (Simulation time: 02 hr 17 min 09 sec)
Heartbeat CPU 0 instructions: 560000093 cycles: 1240610777 heartbeat IPC: 1.631 cumulative IPC: 0.4514 (Simulation time: 02 hr 18 min 12 sec)
Heartbeat CPU 0 instructions: 570000093 cycles: 1247883749 heartbeat IPC: 1.375 cumulative IPC: 0.4568 (Simulation time: 02 hr 19 min 08 sec)
Heartbeat CPU 0 instructions: 580000093 cycles: 1257622546 heartbeat IPC: 1.027 cumulative IPC: 0.4612 (Simulation time: 02 hr 20 min 14 sec)
Heartbeat CPU 0 instructions: 590000093 cycles: 1268632315 heartbeat IPC: 0.9083 cumulative IPC: 0.4651 (Simulation time: 02 hr 21 min 32 sec)
Heartbeat CPU 0 instructions: 600000094 cycles: 1274838114 heartbeat IPC: 1.611 cumulative IPC: 0.4706 (Simulation time: 02 hr 22 min 20 sec)
Heartbeat CPU 0 instructions: 610000094 cycles: 1282221162 heartbeat IPC: 1.354 cumulative IPC: 0.4757 (Simulation time: 02 hr 23 min 23 sec)
[ERROR_CYCLE] Error added at CPU cycle 1288152391, interval 5, pending count: 1
[DRAM_CYCLE_ERROR] Cycle-based error applied! address=0x6c3507980 additional_latency=2459910500 cycles
Heartbeat CPU 0 instructions: 620000094 cycles: 1292229077 heartbeat IPC: 0.9992 cumulative IPC: 0.4798 (Simulation time: 02 hr 24 min 48 sec)
Heartbeat CPU 0 instructions: 630000097 cycles: 1303384303 heartbeat IPC: 0.8964 cumulative IPC: 0.4834 (Simulation time: 02 hr 26 min 21 sec)
Heartbeat CPU 0 instructions: 640000097 cycles: 1309634124 heartbeat IPC: 1.6 cumulative IPC: 0.4887 (Simulation time: 02 hr 27 min 26 sec)
Heartbeat CPU 0 instructions: 650000097 cycles: 1317102232 heartbeat IPC: 1.339 cumulative IPC: 0.4935 (Simulation time: 02 hr 28 min 38 sec)
Heartbeat CPU 0 instructions: 660000098 cycles: 1327183329 heartbeat IPC: 0.992 cumulative IPC: 0.4973 (Simulation time: 02 hr 29 min 54 sec)
Heartbeat CPU 0 instructions: 670000098 cycles: 1338951778 heartbeat IPC: 0.8497 cumulative IPC: 0.5004 (Simulation time: 02 hr 31 min 14 sec)
Heartbeat CPU 0 instructions: 680000100 cycles: 1345281907 heartbeat IPC: 1.58 cumulative IPC: 0.5055 (Simulation time: 02 hr 32 min 09 sec)
Heartbeat CPU 0 instructions: 690000101 cycles: 1351633517 heartbeat IPC: 1.574 cumulative IPC: 0.5105 (Simulation time: 02 hr 33 min 06 sec)
Heartbeat CPU 0 instructions: 700000102 cycles: 1357984175 heartbeat IPC: 1.575 cumulative IPC: 0.5155 (Simulation time: 02 hr 34 min 04 sec)
Simulation CPU 0 panic: IPC 0.0048723 < 0.01
Simulation CPU 0 warning: IPC 0.039717 < 0.05
Simulation CPU 0 panic: IPC 0.0041777 < 0.01
Heartbeat CPU 0 instructions: 710000102 cycles: 1402176504 heartbeat IPC: 0.2263 cumulative IPC: 0.5064 (Simulation time: 02 hr 37 min 50 sec)
Heartbeat CPU 0 instructions: 720000103 cycles: 1409069227 heartbeat IPC: 1.451 cumulative IPC: 0.511 (Simulation time: 02 hr 38 min 51 sec)
Heartbeat CPU 0 instructions: 730000104 cycles: 1425152359 heartbeat IPC: 0.6218 cumulative IPC: 0.5122 (Simulation time: 02 hr 40 min 36 sec)
Simulation CPU 0 critical: IPC 0.014045 < 0.02
Heartbeat CPU 0 instructions: 740000105 cycles: 1451385194 heartbeat IPC: 0.3812 cumulative IPC: 0.5099 (Simulation time: 02 hr 42 min 54 sec)
Heartbeat CPU 0 instructions: 750000105 cycles: 1459076266 heartbeat IPC: 1.3 cumulative IPC: 0.514 (Simulation time: 02 hr 43 min 43 sec)
Heartbeat CPU 0 instructions: 760000105 cycles: 1466866347 heartbeat IPC: 1.284 cumulative IPC: 0.5181 (Simulation time: 02 hr 44 min 37 sec)
Heartbeat CPU 0 instructions: 770000105 cycles: 1474630636 heartbeat IPC: 1.288 cumulative IPC: 0.5222 (Simulation time: 02 hr 45 min 36 sec)
Heartbeat CPU 0 instructions: 780000105 cycles: 1482406705 heartbeat IPC: 1.286 cumulative IPC: 0.5262 (Simulation time: 02 hr 46 min 22 sec)
Heartbeat CPU 0 instructions: 790000105 cycles: 1490280820 heartbeat IPC: 1.27 cumulative IPC: 0.5301 (Simulation time: 02 hr 47 min 13 sec)
Heartbeat CPU 0 instructions: 800000107 cycles: 1498031937 heartbeat IPC: 1.29 cumulative IPC: 0.534 (Simulation time: 02 hr 47 min 54 sec)
Heartbeat CPU 0 instructions: 810000108 cycles: 1505855528 heartbeat IPC: 1.278 cumulative IPC: 0.5379 (Simulation time: 02 hr 48 min 41 sec)
Heartbeat CPU 0 instructions: 820000108 cycles: 1513779729 heartbeat IPC: 1.262 cumulative IPC: 0.5417 (Simulation time: 02 hr 49 min 30 sec)
Heartbeat CPU 0 instructions: 830000109 cycles: 1521433015 heartbeat IPC: 1.307 cumulative IPC: 0.5455 (Simulation time: 02 hr 50 min 13 sec)
Heartbeat CPU 0 instructions: 840000109 cycles: 1529492995 heartbeat IPC: 1.241 cumulative IPC: 0.5492 (Simulation time: 02 hr 51 min 11 sec)
Heartbeat CPU 0 instructions: 850000111 cycles: 1537217439 heartbeat IPC: 1.295 cumulative IPC: 0.5529 (Simulation time: 02 hr 52 min 12 sec)
Heartbeat CPU 0 instructions: 860000115 cycles: 1545283393 heartbeat IPC: 1.24 cumulative IPC: 0.5565 (Simulation time: 02 hr 53 min 15 sec)
[ERROR_CYCLE] Error added at CPU cycle 1545782868, interval 6, pending count: 1
[DRAM_CYCLE_ERROR] Cycle-based error applied! address=0x1e098c7888 additional_latency=2459910500 cycles
Heartbeat CPU 0 instructions: 870000115 cycles: 1562896902 heartbeat IPC: 0.5677 cumulative IPC: 0.5567 (Simulation time: 02 hr 55 min 22 sec)
Heartbeat CPU 0 instructions: 880000118 cycles: 1570875111 heartbeat IPC: 1.253 cumulative IPC: 0.5602 (Simulation time: 02 hr 56 min 24 sec)
Heartbeat CPU 0 instructions: 890000118 cycles: 1578920693 heartbeat IPC: 1.243 cumulative IPC: 0.5637 (Simulation time: 02 hr 57 min 26 sec)
Heartbeat CPU 0 instructions: 900000118 cycles: 1586653767 heartbeat IPC: 1.293 cumulative IPC: 0.5672 (Simulation time: 02 hr 58 min 27 sec)
Heartbeat CPU 0 instructions: 910000118 cycles: 1594985215 heartbeat IPC: 1.2 cumulative IPC: 0.5705 (Simulation time: 02 hr 59 min 31 sec)
Heartbeat CPU 0 instructions: 920000118 cycles: 1602895738 heartbeat IPC: 1.264 cumulative IPC: 0.574 (Simulation time: 03 hr 00 min 32 sec)
Heartbeat CPU 0 instructions: 930000121 cycles: 1610877050 heartbeat IPC: 1.253 cumulative IPC: 0.5773 (Simulation time: 03 hr 01 min 34 sec)
Heartbeat CPU 0 instructions: 940000124 cycles: 1618951130 heartbeat IPC: 1.239 cumulative IPC: 0.5806 (Simulation time: 03 hr 02 min 37 sec)
Heartbeat CPU 0 instructions: 950000124 cycles: 1626790814 heartbeat IPC: 1.276 cumulative IPC: 0.584 (Simulation time: 03 hr 03 min 39 sec)
Heartbeat CPU 0 instructions: 960000124 cycles: 1634942911 heartbeat IPC: 1.227 cumulative IPC: 0.5872 (Simulation time: 03 hr 04 min 42 sec)
Heartbeat CPU 0 instructions: 970000124 cycles: 1642748744 heartbeat IPC: 1.281 cumulative IPC: 0.5905 (Simulation time: 03 hr 05 min 43 sec)
Heartbeat CPU 0 instructions: 980000124 cycles: 1650991439 heartbeat IPC: 1.213 cumulative IPC: 0.5936 (Simulation time: 03 hr 06 min 46 sec)
Heartbeat CPU 0 instructions: 990000125 cycles: 1658727793 heartbeat IPC: 1.293 cumulative IPC: 0.5968 (Simulation time: 03 hr 07 min 47 sec)
Heartbeat CPU 0 instructions: 1000000128 cycles: 1666961876 heartbeat IPC: 1.214 cumulative IPC: 0.5999 (Simulation time: 03 hr 08 min 51 sec)
Heartbeat CPU 0 instructions: 1010000128 cycles: 1674649217 heartbeat IPC: 1.301 cumulative IPC: 0.6031 (Simulation time: 03 hr 09 min 52 sec)
Heartbeat CPU 0 instructions: 1020000128 cycles: 1682781218 heartbeat IPC: 1.23 cumulative IPC: 0.6061 (Simulation time: 03 hr 10 min 55 sec)
Heartbeat CPU 0 instructions: 1030000128 cycles: 1690660425 heartbeat IPC: 1.269 cumulative IPC: 0.6092 (Simulation time: 03 hr 11 min 56 sec)
Heartbeat CPU 0 instructions: 1040000128 cycles: 1698850644 heartbeat IPC: 1.221 cumulative IPC: 0.6122 (Simulation time: 03 hr 13 min 00 sec)
Heartbeat CPU 0 instructions: 1050000129 cycles: 1706834761 heartbeat IPC: 1.252 cumulative IPC: 0.6152 (Simulation time: 03 hr 14 min 02 sec)
Heartbeat CPU 0 instructions: 1060000133 cycles: 1714574374 heartbeat IPC: 1.292 cumulative IPC: 0.6182 (Simulation time: 03 hr 15 min 04 sec)
Heartbeat CPU 0 instructions: 1070000136 cycles: 1722711461 heartbeat IPC: 1.229 cumulative IPC: 0.6211 (Simulation time: 03 hr 16 min 07 sec)
Heartbeat CPU 0 instructions: 1080000139 cycles: 1730634648 heartbeat IPC: 1.262 cumulative IPC: 0.624 (Simulation time: 03 hr 17 min 09 sec)
Heartbeat CPU 0 instructions: 1090000139 cycles: 1738591648 heartbeat IPC: 1.257 cumulative IPC: 0.6269 (Simulation time: 03 hr 18 min 11 sec)
Heartbeat CPU 0 instructions: 1100000139 cycles: 1746392568 heartbeat IPC: 1.282 cumulative IPC: 0.6299 (Simulation time: 03 hr 19 min 12 sec)
Heartbeat CPU 0 instructions: 1110000140 cycles: 1754339119 heartbeat IPC: 1.258 cumulative IPC: 0.6327 (Simulation time: 03 hr 20 min 15 sec)
Heartbeat CPU 0 instructions: 1120000140 cycles: 1761982329 heartbeat IPC: 1.308 cumulative IPC: 0.6356 (Simulation time: 03 hr 21 min 15 sec)
Heartbeat CPU 0 instructions: 1130000142 cycles: 1770420286 heartbeat IPC: 1.185 cumulative IPC: 0.6383 (Simulation time: 03 hr 22 min 22 sec)
Heartbeat CPU 0 instructions: 1140000142 cycles: 1778251326 heartbeat IPC: 1.277 cumulative IPC: 0.6411 (Simulation time: 03 hr 23 min 38 sec)
Heartbeat CPU 0 instructions: 1150000143 cycles: 1784602335 heartbeat IPC: 1.575 cumulative IPC: 0.6444 (Simulation time: 03 hr 24 min 42 sec)
Heartbeat CPU 0 instructions: 1160000147 cycles: 1790975869 heartbeat IPC: 1.569 cumulative IPC: 0.6477 (Simulation time: 03 hr 25 min 45 sec)
[ERROR_CYCLE] Error added at CPU cycle 1803413346, interval 7, pending count: 1
[DRAM_CYCLE_ERROR] Cycle-based error applied! address=0x67be5b4e4 additional_latency=2459910500 cycles
Simulation CPU 0 panic: IPC 0 < 0.01
Simulation CPU 0 panic: IPC 0.0001115 < 0.01
Simulation CPU 0 warning: IPC 0.038593 < 0.05
Simulation CPU 0 panic: IPC 7.73e-05 < 0.01
Simulation CPU 0 panic: IPC 8.03e-05 < 0.01
Simulation CPU 0 panic: IPC 1.12e-05 < 0.01
Simulation CPU 0 panic: IPC 0.0044818 < 0.01
Heartbeat CPU 0 instructions: 1170000151 cycles: 1884610064 heartbeat IPC: 0.1068 cumulative IPC: 0.6208 (Simulation time: 03 hr 35 min 21 sec)
Heartbeat CPU 0 instructions: 1180000153 cycles: 1900146059 heartbeat IPC: 0.6437 cumulative IPC: 0.621 (Simulation time: 03 hr 37 min 16 sec)
Heartbeat CPU 0 instructions: 1190000154 cycles: 1918653328 heartbeat IPC: 0.5403 cumulative IPC: 0.6202 (Simulation time: 03 hr 39 min 46 sec)
Heartbeat CPU 0 instructions: 1200000154 cycles: 1925733192 heartbeat IPC: 1.412 cumulative IPC: 0.6231 (Simulation time: 03 hr 40 min 48 sec)
Heartbeat CPU 0 instructions: 1210000157 cycles: 1932794855 heartbeat IPC: 1.416 cumulative IPC: 0.626 (Simulation time: 03 hr 41 min 54 sec)
Heartbeat CPU 0 instructions: 1220000159 cycles: 1939830503 heartbeat IPC: 1.421 cumulative IPC: 0.6289 (Simulation time: 03 hr 43 min 00 sec)
Heartbeat CPU 0 instructions: 1230000160 cycles: 1983160940 heartbeat IPC: 0.2308 cumulative IPC: 0.6202 (Simulation time: 03 hr 47 min 38 sec)
Simulation CPU 0 critical: IPC 0.010368 < 0.02
Simulation CPU 0 warning: IPC 0.043459 < 0.05
Simulation CPU 0 warning: IPC 0.036379 < 0.05
Heartbeat CPU 0 instructions: 1240000163 cycles: 2058920102 heartbeat IPC: 0.132 cumulative IPC: 0.6023 (Simulation time: 03 hr 55 min 23 sec)
[ERROR_CYCLE] Error added at CPU cycle 2061043825, interval 8, pending count: 1
[DRAM_CYCLE_ERROR] Cycle-based error applied! address=0x1959c83098 additional_latency=2459910500 cycles
Simulation CPU 0 panic: IPC 0 < 0.01
Simulation CPU 0 panic: IPC 0.0051742 < 0.01
Simulation CPU 0 panic: IPC 0.0002372 < 0.01
Heartbeat CPU 0 instructions: 1250000165 cycles: 2104284456 heartbeat IPC: 0.2204 cumulative IPC: 0.594 (Simulation time: 03 hr 59 min 49 sec)
Heartbeat CPU 0 instructions: 1260000165 cycles: 2112039746 heartbeat IPC: 1.289 cumulative IPC: 0.5966 (Simulation time: 04 hr 00 min 50 sec)
Heartbeat CPU 0 instructions: 1270000168 cycles: 2119793412 heartbeat IPC: 1.29 cumulative IPC: 0.5991 (Simulation time: 04 hr 01 min 51 sec)
Heartbeat CPU 0 instructions: 1280000169 cycles: 2127545322 heartbeat IPC: 1.29 cumulative IPC: 0.6016 (Simulation time: 04 hr 02 min 47 sec)
Heartbeat CPU 0 instructions: 1290000171 cycles: 2135293502 heartbeat IPC: 1.291 cumulative IPC: 0.6041 (Simulation time: 04 hr 03 min 48 sec)
Heartbeat CPU 0 instructions: 1300000171 cycles: 2143043416 heartbeat IPC: 1.29 cumulative IPC: 0.6066 (Simulation time: 04 hr 04 min 49 sec)
Heartbeat CPU 0 instructions: 1310000175 cycles: 2150777815 heartbeat IPC: 1.293 cumulative IPC: 0.6091 (Simulation time: 04 hr 05 min 46 sec)
Heartbeat CPU 0 instructions: 1320000176 cycles: 2158496036 heartbeat IPC: 1.296 cumulative IPC: 0.6115 (Simulation time: 04 hr 06 min 47 sec)
Heartbeat CPU 0 instructions: 1330000180 cycles: 2166202666 heartbeat IPC: 1.298 cumulative IPC: 0.614 (Simulation time: 04 hr 07 min 32 sec)
Heartbeat CPU 0 instructions: 1340000180 cycles: 2173897995 heartbeat IPC: 1.299 cumulative IPC: 0.6164 (Simulation time: 04 hr 08 min 25 sec)
Heartbeat CPU 0 instructions: 1350000181 cycles: 2181576513 heartbeat IPC: 1.302 cumulative IPC: 0.6188 (Simulation time: 04 hr 09 min 14 sec)
Heartbeat CPU 0 instructions: 1360000182 cycles: 2189238991 heartbeat IPC: 1.305 cumulative IPC: 0.6212 (Simulation time: 04 hr 10 min 03 sec)
Heartbeat CPU 0 instructions: 1370000185 cycles: 2196914320 heartbeat IPC: 1.303 cumulative IPC: 0.6236 (Simulation time: 04 hr 10 min 54 sec)
Heartbeat CPU 0 instructions: 1380000189 cycles: 2204581337 heartbeat IPC: 1.304 cumulative IPC: 0.626 (Simulation time: 04 hr 11 min 54 sec)
Heartbeat CPU 0 instructions: 1390000190 cycles: 2212252512 heartbeat IPC: 1.304 cumulative IPC: 0.6283 (Simulation time: 04 hr 12 min 55 sec)
Heartbeat CPU 0 instructions: 1400000190 cycles: 2219925992 heartbeat IPC: 1.303 cumulative IPC: 0.6307 (Simulation time: 04 hr 13 min 56 sec)
Heartbeat CPU 0 instructions: 1410000193 cycles: 2227600196 heartbeat IPC: 1.303 cumulative IPC: 0.633 (Simulation time: 04 hr 14 min 55 sec)
Heartbeat CPU 0 instructions: 1420000194 cycles: 2235288026 heartbeat IPC: 1.301 cumulative IPC: 0.6353 (Simulation time: 04 hr 15 min 55 sec)
Heartbeat CPU 0 instructions: 1430000194 cycles: 2242977074 heartbeat IPC: 1.301 cumulative IPC: 0.6375 (Simulation time: 04 hr 16 min 43 sec)
Heartbeat CPU 0 instructions: 1440000194 cycles: 2250666161 heartbeat IPC: 1.301 cumulative IPC: 0.6398 (Simulation time: 04 hr 17 min 34 sec)
Heartbeat CPU 0 instructions: 1450000194 cycles: 2258346180 heartbeat IPC: 1.302 cumulative IPC: 0.6421 (Simulation time: 04 hr 18 min 28 sec)
Heartbeat CPU 0 instructions: 1460000194 cycles: 2266027336 heartbeat IPC: 1.302 cumulative IPC: 0.6443 (Simulation time: 04 hr 19 min 23 sec)
Heartbeat CPU 0 instructions: 1470000194 cycles: 2273710795 heartbeat IPC: 1.301 cumulative IPC: 0.6465 (Simulation time: 04 hr 20 min 06 sec)
Heartbeat CPU 0 instructions: 1480000194 cycles: 2281398054 heartbeat IPC: 1.301 cumulative IPC: 0.6487 (Simulation time: 04 hr 20 min 48 sec)
Heartbeat CPU 0 instructions: 1490000195 cycles: 2289088173 heartbeat IPC: 1.3 cumulative IPC: 0.6509 (Simulation time: 04 hr 21 min 39 sec)
Heartbeat CPU 0 instructions: 1500000196 cycles: 2296777871 heartbeat IPC: 1.3 cumulative IPC: 0.6531 (Simulation time: 04 hr 22 min 35 sec)
Heartbeat CPU 0 instructions: 1510000196 cycles: 2304467601 heartbeat IPC: 1.3 cumulative IPC: 0.6552 (Simulation time: 04 hr 23 min 36 sec)
Heartbeat CPU 0 instructions: 1520000196 cycles: 2312146810 heartbeat IPC: 1.302 cumulative IPC: 0.6574 (Simulation time: 04 hr 24 min 36 sec)
[ERROR_CYCLE] Error added at CPU cycle 2318674302, interval 9, pending count: 1
[DRAM_CYCLE_ERROR] Cycle-based error applied! address=0x166b33d140 additional_latency=2459910500 cycles
Heartbeat CPU 0 instructions: 1530000196 cycles: 2329668501 heartbeat IPC: 0.5707 cumulative IPC: 0.6567 (Simulation time: 04 hr 26 min 31 sec)
Heartbeat CPU 0 instructions: 1540000197 cycles: 2337346662 heartbeat IPC: 1.302 cumulative IPC: 0.6589 (Simulation time: 04 hr 27 min 31 sec)
Heartbeat CPU 0 instructions: 1550000197 cycles: 2345016542 heartbeat IPC: 1.304 cumulative IPC: 0.661 (Simulation time: 04 hr 28 min 25 sec)
Heartbeat CPU 0 instructions: 1560000199 cycles: 2352652519 heartbeat IPC: 1.31 cumulative IPC: 0.6631 (Simulation time: 04 hr 29 min 14 sec)
Heartbeat CPU 0 instructions: 1570000199 cycles: 2360290277 heartbeat IPC: 1.309 cumulative IPC: 0.6652 (Simulation time: 04 hr 29 min 56 sec)
Heartbeat CPU 0 instructions: 1580000199 cycles: 2367941259 heartbeat IPC: 1.307 cumulative IPC: 0.6672 (Simulation time: 04 hr 30 min 41 sec)
Heartbeat CPU 0 instructions: 1590000200 cycles: 2375594014 heartbeat IPC: 1.307 cumulative IPC: 0.6693 (Simulation time: 04 hr 31 min 41 sec)
Heartbeat CPU 0 instructions: 1600000200 cycles: 2383238009 heartbeat IPC: 1.308 cumulative IPC: 0.6714 (Simulation time: 04 hr 32 min 28 sec)
Heartbeat CPU 0 instructions: 1610000200 cycles: 2390885195 heartbeat IPC: 1.308 cumulative IPC: 0.6734 (Simulation time: 04 hr 33 min 29 sec)
Heartbeat CPU 0 instructions: 1620000200 cycles: 2398523651 heartbeat IPC: 1.309 cumulative IPC: 0.6754 (Simulation time: 04 hr 34 min 29 sec)
Heartbeat CPU 0 instructions: 1630000202 cycles: 2406171816 heartbeat IPC: 1.308 cumulative IPC: 0.6774 (Simulation time: 04 hr 35 min 30 sec)
Heartbeat CPU 0 instructions: 1640000206 cycles: 2413820949 heartbeat IPC: 1.307 cumulative IPC: 0.6794 (Simulation time: 04 hr 36 min 20 sec)
Heartbeat CPU 0 instructions: 1650000206 cycles: 2421474126 heartbeat IPC: 1.307 cumulative IPC: 0.6814 (Simulation time: 04 hr 37 min 06 sec)
Heartbeat CPU 0 instructions: 1660000210 cycles: 2429138276 heartbeat IPC: 1.305 cumulative IPC: 0.6834 (Simulation time: 04 hr 38 min 07 sec)
Heartbeat CPU 0 instructions: 1670000210 cycles: 2436807719 heartbeat IPC: 1.304 cumulative IPC: 0.6853 (Simulation time: 04 hr 39 min 08 sec)
Heartbeat CPU 0 instructions: 1680000210 cycles: 2444485387 heartbeat IPC: 1.302 cumulative IPC: 0.6873 (Simulation time: 04 hr 40 min 06 sec)
Heartbeat CPU 0 instructions: 1690000210 cycles: 2452171256 heartbeat IPC: 1.301 cumulative IPC: 0.6892 (Simulation time: 04 hr 41 min 06 sec)
Heartbeat CPU 0 instructions: 1700000211 cycles: 2459847559 heartbeat IPC: 1.303 cumulative IPC: 0.6911 (Simulation time: 04 hr 42 min 07 sec)
Heartbeat CPU 0 instructions: 1710000214 cycles: 2467526392 heartbeat IPC: 1.302 cumulative IPC: 0.693 (Simulation time: 04 hr 43 min 07 sec)
Heartbeat CPU 0 instructions: 1720000215 cycles: 2475205828 heartbeat IPC: 1.302 cumulative IPC: 0.6949 (Simulation time: 04 hr 44 min 01 sec)
Heartbeat CPU 0 instructions: 1730000215 cycles: 2482885238 heartbeat IPC: 1.302 cumulative IPC: 0.6968 (Simulation time: 04 hr 45 min 00 sec)
Heartbeat CPU 0 instructions: 1740000215 cycles: 2490563728 heartbeat IPC: 1.302 cumulative IPC: 0.6986 (Simulation time: 04 hr 45 min 53 sec)
Heartbeat CPU 0 instructions: 1750000216 cycles: 2498240128 heartbeat IPC: 1.303 cumulative IPC: 0.7005 (Simulation time: 04 hr 46 min 44 sec)
Heartbeat CPU 0 instructions: 1760000220 cycles: 2505918742 heartbeat IPC: 1.302 cumulative IPC: 0.7023 (Simulation time: 04 hr 47 min 39 sec)
Heartbeat CPU 0 instructions: 1770000220 cycles: 2513601891 heartbeat IPC: 1.302 cumulative IPC: 0.7042 (Simulation time: 04 hr 48 min 40 sec)
Heartbeat CPU 0 instructions: 1780000220 cycles: 2521281292 heartbeat IPC: 1.302 cumulative IPC: 0.706 (Simulation time: 04 hr 49 min 41 sec)
Heartbeat CPU 0 instructions: 1790000221 cycles: 2528971146 heartbeat IPC: 1.3 cumulative IPC: 0.7078 (Simulation time: 04 hr 50 min 41 sec)
Heartbeat CPU 0 instructions: 1800000221 cycles: 2536648001 heartbeat IPC: 1.303 cumulative IPC: 0.7096 (Simulation time: 04 hr 51 min 42 sec)
Heartbeat CPU 0 instructions: 1810000221 cycles: 2544325703 heartbeat IPC: 1.302 cumulative IPC: 0.7114 (Simulation time: 04 hr 52 min 43 sec)
Heartbeat CPU 0 instructions: 1820000221 cycles: 2552006167 heartbeat IPC: 1.302 cumulative IPC: 0.7132 (Simulation time: 04 hr 53 min 44 sec)
Simulation CPU 0 panic: IPC 0.0028983 < 0.01
[ERROR_CYCLE] Error added at CPU cycle 2576304781, interval 10, pending count: 1
[DRAM_CYCLE_ERROR] Cycle-based error applied! address=0x601f149e0 additional_latency=2459910500 cycles
Heartbeat CPU 0 instructions: 1830000223 cycles: 2587414391 heartbeat IPC: 0.2824 cumulative IPC: 0.7073 (Simulation time: 04 hr 57 min 19 sec)
Heartbeat CPU 0 instructions: 1840000224 cycles: 2593543978 heartbeat IPC: 1.631 cumulative IPC: 0.7095 (Simulation time: 04 hr 58 min 18 sec)
Heartbeat CPU 0 instructions: 1850000225 cycles: 2599843568 heartbeat IPC: 1.587 cumulative IPC: 0.7116 (Simulation time: 04 hr 59 min 17 sec)
Heartbeat CPU 0 instructions: 1860000226 cycles: 2606225204 heartbeat IPC: 1.567 cumulative IPC: 0.7137 (Simulation time: 05 hr 00 min 15 sec)
Heartbeat CPU 0 instructions: 1870000227 cycles: 2612646116 heartbeat IPC: 1.557 cumulative IPC: 0.7157 (Simulation time: 05 hr 01 min 15 sec)
Heartbeat CPU 0 instructions: 1880000228 cycles: 2619174890 heartbeat IPC: 1.532 cumulative IPC: 0.7178 (Simulation time: 05 hr 02 min 15 sec)
Heartbeat CPU 0 instructions: 1890000228 cycles: 2635023278 heartbeat IPC: 0.631 cumulative IPC: 0.7173 (Simulation time: 05 hr 04 min 26 sec)
Heartbeat CPU 0 instructions: 1900000230 cycles: 2640342540 heartbeat IPC: 1.88 cumulative IPC: 0.7196 (Simulation time: 05 hr 05 min 19 sec)
Heartbeat CPU 0 instructions: 1910000230 cycles: 2645603478 heartbeat IPC: 1.901 cumulative IPC: 0.722 (Simulation time: 05 hr 06 min 12 sec)
Heartbeat CPU 0 instructions: 1920000232 cycles: 2651019923 heartbeat IPC: 1.846 cumulative IPC: 0.7242 (Simulation time: 05 hr 07 min 05 sec)
Heartbeat CPU 0 instructions: 1930000233 cycles: 2656333867 heartbeat IPC: 1.882 cumulative IPC: 0.7266 (Simulation time: 05 hr 07 min 58 sec)
Heartbeat CPU 0 instructions: 1940000236 cycles: 2661589578 heartbeat IPC: 1.903 cumulative IPC: 0.7289 (Simulation time: 05 hr 08 min 48 sec)
Heartbeat CPU 0 instructions: 1950000236 cycles: 2666926985 heartbeat IPC: 1.874 cumulative IPC: 0.7312 (Simulation time: 05 hr 09 min 32 sec)
Heartbeat CPU 0 instructions: 1960000239 cycles: 2672207448 heartbeat IPC: 1.894 cumulative IPC: 0.7335 (Simulation time: 05 hr 10 min 25 sec)
Heartbeat CPU 0 instructions: 1970000239 cycles: 2677501699 heartbeat IPC: 1.889 cumulative IPC: 0.7358 (Simulation time: 05 hr 11 min 18 sec)
Heartbeat CPU 0 instructions: 1980000239 cycles: 2682752516 heartbeat IPC: 1.904 cumulative IPC: 0.738 (Simulation time: 05 hr 12 min 11 sec)
Heartbeat CPU 0 instructions: 1990000240 cycles: 2697222178 heartbeat IPC: 0.6911 cumulative IPC: 0.7378 (Simulation time: 05 hr 14 min 11 sec)

=== ERROR PAGE STATISTICS ===
Mode: CYCLE
Error Cycle Interval: 257630478 CPU cycles
Total Error Accesses: 10
==============================
Simulation finished CPU 0 instructions: 1999999905 cycles: 2705763799 cumulative IPC: 0.7392 (Simulation time: 05 hr 15 min 27 sec)
Simulation complete CPU 0 instructions: 1999999905 cycles: 2705763799 cumulative IPC: 0.7392 (Simulation time: 05 hr 15 min 27 sec)

ChampSim completed all CPUs

=== Simulation ===
CPU 0 runs test_traces/621.wrf_s-6673B.champsimtrace.xz

Region of Interest Statistics

CPU 0 cumulative IPC: 0.7392 instructions: 1999999905 cycles: 2705763799
CPU 0 Branch Prediction Accuracy: 93.25% MPKI: 6.743 Average ROB Occupancy at Mispredict: 67.1
Branch type MPKI
BRANCH_DIRECT_JUMP: 0.00112
BRANCH_INDIRECT: 6.95e-05
BRANCH_CONDITIONAL: 5.98
BRANCH_DIRECT_CALL: 0.002089
BRANCH_INDIRECT_CALL: 2e-06
BRANCH_RETURN: 0.7595

cpu0->cpu0_STLB TOTAL        ACCESS:        697 HIT:        564 MISS:        133 MSHR_MERGE:          0
cpu0->cpu0_STLB LOAD         ACCESS:        697 HIT:        564 MISS:        133 MSHR_MERGE:          0
cpu0->cpu0_STLB RFO          ACCESS:          0 HIT:          0 MISS:          0 MSHR_MERGE:          0
cpu0->cpu0_STLB PREFETCH     ACCESS:          0 HIT:          0 MISS:          0 MSHR_MERGE:          0
cpu0->cpu0_STLB WRITE        ACCESS:          0 HIT:          0 MISS:          0 MSHR_MERGE:          0
cpu0->cpu0_STLB TRANSLATION  ACCESS:          0 HIT:          0 MISS:          0 MSHR_MERGE:          0
cpu0->cpu0_STLB PREFETCH REQUESTED:          0 ISSUED:          0 USEFUL:          0 USELESS:          0
cpu0->cpu0_STLB AVERAGE MISS LATENCY: 9.835e+06 cycles
cpu0->cpu0_L2C TOTAL        ACCESS:   24596661 HIT:   13030147 MISS:   11566514 MSHR_MERGE:          0
cpu0->cpu0_L2C LOAD         ACCESS:   13803353 HIT:    4690689 MISS:    9112664 MSHR_MERGE:          0
cpu0->cpu0_L2C RFO          ACCESS:    3870380 HIT:    1420528 MISS:    2449852 MSHR_MERGE:          0
cpu0->cpu0_L2C PREFETCH     ACCESS:          0 HIT:          0 MISS:          0 MSHR_MERGE:          0
cpu0->cpu0_L2C WRITE        ACCESS:    6922928 HIT:    6918930 MISS:       3998 MSHR_MERGE:          0
cpu0->cpu0_L2C TRANSLATION  ACCESS:          0 HIT:          0 MISS:          0 MSHR_MERGE:          0
cpu0->cpu0_L2C PREFETCH REQUESTED:          0 ISSUED:          0 USEFUL:          0 USELESS:          0
cpu0->cpu0_L2C AVERAGE MISS LATENCY: 121 cycles
cpu0->cpu0_L1I TOTAL        ACCESS:  172619024 HIT:  171492816 MISS:    1126208 MSHR_MERGE:     423913
cpu0->cpu0_L1I LOAD         ACCESS:  172619024 HIT:  171492816 MISS:    1126208 MSHR_MERGE:     423913
cpu0->cpu0_L1I RFO          ACCESS:          0 HIT:          0 MISS:          0 MSHR_MERGE:          0
cpu0->cpu0_L1I PREFETCH     ACCESS:          0 HIT:          0 MISS:          0 MSHR_MERGE:          0
cpu0->cpu0_L1I WRITE        ACCESS:          0 HIT:          0 MISS:          0 MSHR_MERGE:          0
cpu0->cpu0_L1I TRANSLATION  ACCESS:          0 HIT:          0 MISS:          0 MSHR_MERGE:          0
cpu0->cpu0_L1I PREFETCH REQUESTED:          0 ISSUED:          0 USEFUL:          0 USELESS:          0
cpu0->cpu0_L1I AVERAGE MISS LATENCY: 13.83 cycles
cpu0->cpu0_L1D TOTAL        ACCESS:  525407650 HIT:  487725734 MISS:   37681916 MSHR_MERGE:   20710273
cpu0->cpu0_L1D LOAD         ACCESS:  412240400 HIT:  388341644 MISS:   23898756 MSHR_MERGE:   10797615
cpu0->cpu0_L1D RFO          ACCESS:          0 HIT:          0 MISS:          0 MSHR_MERGE:          0
cpu0->cpu0_L1D PREFETCH     ACCESS:          0 HIT:          0 MISS:          0 MSHR_MERGE:          0
cpu0->cpu0_L1D WRITE        ACCESS:  113167250 HIT:   99384090 MISS:   13783160 MSHR_MERGE:    9912658
cpu0->cpu0_L1D TRANSLATION  ACCESS:          0 HIT:          0 MISS:          0 MSHR_MERGE:          0
cpu0->cpu0_L1D PREFETCH REQUESTED:          0 ISSUED:          0 USEFUL:          0 USELESS:          0
cpu0->cpu0_L1D AVERAGE MISS LATENCY: 91.02 cycles
cpu0->cpu0_ITLB TOTAL        ACCESS:  147667032 HIT:  147666977 MISS:         55 MSHR_MERGE:         40
cpu0->cpu0_ITLB LOAD         ACCESS:  147667032 HIT:  147666977 MISS:         55 MSHR_MERGE:         40
cpu0->cpu0_ITLB RFO          ACCESS:          0 HIT:          0 MISS:          0 MSHR_MERGE:          0
cpu0->cpu0_ITLB PREFETCH     ACCESS:          0 HIT:          0 MISS:          0 MSHR_MERGE:          0
cpu0->cpu0_ITLB WRITE        ACCESS:          0 HIT:          0 MISS:          0 MSHR_MERGE:          0
cpu0->cpu0_ITLB TRANSLATION  ACCESS:          0 HIT:          0 MISS:          0 MSHR_MERGE:          0
cpu0->cpu0_ITLB PREFETCH REQUESTED:          0 ISSUED:          0 USEFUL:          0 USELESS:          0
cpu0->cpu0_ITLB AVERAGE MISS LATENCY: 9.896e+06 cycles
cpu0->cpu0_DTLB TOTAL        ACCESS:  455289712 HIT:  455288319 MISS:       1393 MSHR_MERGE:        711
cpu0->cpu0_DTLB LOAD         ACCESS:  455289712 HIT:  455288319 MISS:       1393 MSHR_MERGE:        711
cpu0->cpu0_DTLB RFO          ACCESS:          0 HIT:          0 MISS:          0 MSHR_MERGE:          0
cpu0->cpu0_DTLB PREFETCH     ACCESS:          0 HIT:          0 MISS:          0 MSHR_MERGE:          0
cpu0->cpu0_DTLB WRITE        ACCESS:          0 HIT:          0 MISS:          0 MSHR_MERGE:          0
cpu0->cpu0_DTLB TRANSLATION  ACCESS:          0 HIT:          0 MISS:          0 MSHR_MERGE:          0
cpu0->cpu0_DTLB PREFETCH REQUESTED:          0 ISSUED:          0 USEFUL:          0 USELESS:          0
cpu0->cpu0_DTLB AVERAGE MISS LATENCY: 1.7e+06 cycles
cpu0->LLC TOTAL        ACCESS:   16402655 HIT:    6357126 MISS:   10045529 MSHR_MERGE:          0
cpu0->LLC LOAD         ACCESS:    9112664 HIT:    1198534 MISS:    7914130 MSHR_MERGE:          0
cpu0->LLC RFO          ACCESS:    2449852 HIT:     330211 MISS:    2119641 MSHR_MERGE:          0
cpu0->LLC PREFETCH     ACCESS:          0 HIT:          0 MISS:          0 MSHR_MERGE:          0
cpu0->LLC WRITE        ACCESS:    4840139 HIT:    4828381 MISS:      11758 MSHR_MERGE:          0
cpu0->LLC TRANSLATION  ACCESS:          0 HIT:          0 MISS:          0 MSHR_MERGE:          0
cpu0->LLC PREFETCH REQUESTED:          0 ISSUED:          0 USEFUL:          0 USELESS:          0
cpu0->LLC AVERAGE MISS LATENCY: 121.1 cycles

DRAM Statistics

Channel 0 RQ ROW_BUFFER_HIT:     271189
  ROW_BUFFER_MISS:    4745689
  AVG DBUS CONGESTED CYCLE: 10.68
Channel 0 WQ ROW_BUFFER_HIT:     583547
  ROW_BUFFER_MISS:    1423286
  FULL:        399
Channel 0 REFRESHES ISSUED:     225465

Channel 1 RQ ROW_BUFFER_HIT:     269877
  ROW_BUFFER_MISS:    4747080
  AVG DBUS CONGESTED CYCLE: 10.69
Channel 1 WQ ROW_BUFFER_HIT:     584547
  ROW_BUFFER_MISS:    1422793
  FULL:        337
Channel 1 REFRESHES ISSUED:     225465
