
*** ChampSim Multicore Out-of-Order Simulator ***
Warmup Instructions: 0
Simulation Instructions: 9223372036854775807
Number of CPUs: 1
Page size: 1048576

Off-chip DRAM Size: 32 GiB Channels: 2 Width: 32-bit Data Rate: 4807 MT/s
[ERROR_PAGE_MANAGER] Error latency: 2459910500 
[ERROR_PAGE_MANAGER] Random seed: 54321 (fixed for preload reproducibility)
[ERROR_PAGE_MANAGER] Cycle-based error modeling enabled
[ERROR_PAGE_MANAGER] Errors per interval: 1
[ERROR_PAGE_MANAGER] Error cycle interval: 70532401 cycles

=== ERROR PAGE STATISTICS ===
Mode: CYCLE
Error Cycle Interval: 70532401 CPU cycles
Total Error Accesses: 0
==============================
Warmup finished CPU 0 instructions: 0 cycles: 1 cumulative IPC: 0 (Simulation time: 00 hr 00 min 00 sec)
Warmup complete CPU 0 instructions: 0 cycles: 1 cumulative IPC: 0 (Simulation time: 00 hr 00 min 00 sec)
Simulation CPU 0 panic: IPC 0 < 0.01
Simulation CPU 0 panic: IPC 9e-07 < 0.01
Simulation CPU 0 panic: IPC 3e-07 < 0.01
Simulation CPU 0 panic: IPC 1e-07 < 0.01
Simulation CPU 0 panic: IPC 1.8e-06 < 0.01
Simulation CPU 0 panic: IPC 0 < 0.01
Simulation CPU 0 panic: IPC 2.29e-05 < 0.01
[ERROR_CYCLE] Error added at CPU cycle 70532402, interval 1, pending count: 1
[DRAM_CYCLE_ERROR] Cycle-based error applied! address=0x1d1f944c8 additional_latency=2459910500 cycles
Simulation CPU 0 panic: IPC 0 < 0.01
Simulation CPU 0 panic: IPC 1.7e-06 < 0.01
Simulation CPU 0 panic: IPC 1.81e-05 < 0.01
Simulation CPU 0 panic: IPC 4.33e-05 < 0.01
Simulation CPU 0 panic: IPC 1.23e-05 < 0.01
Simulation CPU 0 panic: IPC 1.65e-05 < 0.01
Simulation CPU 0 panic: IPC 2e-07 < 0.01
[ERROR_CYCLE] Error added at CPU cycle 141064802, interval 2, pending count: 1
[DRAM_CYCLE_ERROR] Cycle-based error applied! address=0x537c12210 additional_latency=2459910500 cycles
Simulation CPU 0 panic: IPC 0 < 0.01
Simulation CPU 0 panic: IPC 8.1e-06 < 0.01
Simulation CPU 0 panic: IPC 1e-07 < 0.01
Simulation CPU 0 panic: IPC 2.9e-06 < 0.01
Simulation CPU 0 panic: IPC 3.8e-06 < 0.01
Simulation CPU 0 panic: IPC 1e-07 < 0.01
Simulation CPU 0 panic: IPC 2.9e-06 < 0.01
[ERROR_CYCLE] Error added at CPU cycle 211597203, interval 3, pending count: 1
[DRAM_CYCLE_ERROR] Cycle-based error applied! address=0x2d4ce8ee8 additional_latency=2459910500 cycles
Simulation CPU 0 panic: IPC 0 < 0.01
Simulation CPU 0 panic: IPC 1e-07 < 0.01
Simulation CPU 0 panic: IPC 2.9e-06 < 0.01
Simulation CPU 0 panic: IPC 3e-06 < 0.01
Simulation CPU 0 panic: IPC 1e-07 < 0.01
Simulation CPU 0 panic: IPC 9.8e-06 < 0.01
Simulation CPU 0 panic: IPC 2.9e-06 < 0.01
[ERROR_CYCLE] Error added at CPU cycle 282129604, interval 4, pending count: 1
[DRAM_CYCLE_ERROR] Cycle-based error applied! address=0x537c212c0 additional_latency=2459910500 cycles
Simulation CPU 0 panic: IPC 0 < 0.01
Simulation CPU 0 panic: IPC 3e-06 < 0.01
Simulation CPU 0 panic: IPC 2.34e-05 < 0.01
Simulation CPU 0 panic: IPC 1.52e-05 < 0.01
Simulation CPU 0 panic: IPC 2.35e-05 < 0.01
Simulation CPU 0 panic: IPC 8.2e-06 < 0.01
Simulation CPU 0 panic: IPC 1.95e-05 < 0.01
[ERROR_CYCLE] Error added at CPU cycle 352662006, interval 5, pending count: 1
[DRAM_CYCLE_ERROR] Cycle-based error applied! address=0x3f2f98dc8 additional_latency=2459910500 cycles
Simulation CPU 0 panic: IPC 0 < 0.01
Simulation CPU 0 panic: IPC 0.0001239 < 0.01
Simulation CPU 0 panic: IPC 0.0001436 < 0.01
Simulation CPU 0 panic: IPC 0.0001423 < 0.01
Simulation CPU 0 panic: IPC 7.53e-05 < 0.01
Simulation CPU 0 panic: IPC 0.0002054 < 0.01
Simulation CPU 0 panic: IPC 0.0002173 < 0.01
[ERROR_CYCLE] Error added at CPU cycle 423194407, interval 6, pending count: 1
[DRAM_CYCLE_ERROR] Cycle-based error applied! address=0x537c362c8 additional_latency=2459910500 cycles
Simulation CPU 0 panic: IPC 0 < 0.01
Simulation CPU 0 panic: IPC 0.0012567 < 0.01
Simulation CPU 0 panic: IPC 0.0001685 < 0.01
Simulation CPU 0 panic: IPC 3.27e-05 < 0.01
Simulation CPU 0 panic: IPC 6.7e-06 < 0.01
Simulation CPU 0 panic: IPC 3.1e-06 < 0.01
Simulation CPU 0 panic: IPC 2.41e-05 < 0.01
[ERROR_CYCLE] Error added at CPU cycle 493726807, interval 7, pending count: 1
[DRAM_CYCLE_ERROR] Cycle-based error applied! address=0x537c3d658 additional_latency=2459910500 cycles
Simulation CPU 0 panic: IPC 1.04e-05 < 0.01
Simulation CPU 0 panic: IPC 7.01e-05 < 0.01
Simulation CPU 0 panic: IPC 1.64e-05 < 0.01
Simulation CPU 0 panic: IPC 2.7e-06 < 0.01
Simulation CPU 0 panic: IPC 0.0001107 < 0.01
Simulation CPU 0 panic: IPC 7.06e-05 < 0.01
Simulation CPU 0 panic: IPC 5.98e-05 < 0.01
[ERROR_CYCLE] Error added at CPU cycle 564259208, interval 8, pending count: 1
[DRAM_CYCLE_ERROR] Cycle-based error applied! address=0x537c45330 additional_latency=2459910500 cycles
Simulation CPU 0 panic: IPC 3e-06 < 0.01
Simulation CPU 0 panic: IPC 0 < 0.01
Simulation CPU 0 panic: IPC 3e-06 < 0.01
Simulation CPU 0 panic: IPC 1e-07 < 0.01
Simulation CPU 0 panic: IPC 3e-06 < 0.01
Simulation CPU 0 panic: IPC 6e-06 < 0.01
Simulation CPU 0 panic: IPC 2.9e-06 < 0.01
[ERROR_CYCLE] Error added at CPU cycle 634791609, interval 9, pending count: 1
[DRAM_CYCLE_ERROR] Cycle-based error applied! address=0x4c94a5228 additional_latency=2459910500 cycles
Simulation CPU 0 panic: IPC 0 < 0.01
Simulation CPU 0 panic: IPC 1e-07 < 0.01
Simulation CPU 0 panic: IPC 2.9e-06 < 0.01
Simulation CPU 0 panic: IPC 1e-07 < 0.01
Simulation CPU 0 panic: IPC 2.02e-05 < 0.01
Simulation CPU 0 panic: IPC 7.17e-05 < 0.01
Simulation CPU 0 panic: IPC 7.05e-05 < 0.01
[ERROR_CYCLE] Error added at CPU cycle 705324011, interval 10, pending count: 1
[DRAM_CYCLE_ERROR] Cycle-based error applied! address=0x537c542d8 additional_latency=2459910500 cycles
Simulation CPU 0 panic: IPC 2.14e-05 < 0.01
Simulation CPU 0 panic: IPC 0 < 0.01
Simulation CPU 0 panic: IPC 1e-07 < 0.01
Simulation CPU 0 panic: IPC 5.9e-06 < 0.01
Simulation CPU 0 panic: IPC 1.51e-05 < 0.01
Simulation CPU 0 panic: IPC 2.12e-05 < 0.01
Simulation CPU 0 panic: IPC 0.0001447 < 0.01
[ERROR_CYCLE] Error added at CPU cycle 775856412, interval 11, pending count: 1
[DRAM_CYCLE_ERROR] Cycle-based error applied! address=0xd9631e61 additional_latency=2459910500 cycles
Simulation CPU 0 panic: IPC 0 < 0.01
Simulation CPU 0 panic: IPC 7.09e-05 < 0.01
Simulation CPU 0 panic: IPC 7e-06 < 0.01
Simulation CPU 0 panic: IPC 2.22e-05 < 0.01
Simulation CPU 0 panic: IPC 5e-07 < 0.01
Simulation CPU 0 panic: IPC 1.3e-05 < 0.01
Simulation CPU 0 panic: IPC 5.8e-06 < 0.01
[ERROR_CYCLE] Error added at CPU cycle 846388812, interval 12, pending count: 1
[DRAM_CYCLE_ERROR] Cycle-based error applied! address=0x537c634f8 additional_latency=2459910500 cycles
Simulation CPU 0 panic: IPC 4e-07 < 0.01
Simulation CPU 0 panic: IPC 0 < 0.01
Simulation CPU 0 panic: IPC 1.09e-05 < 0.01
Simulation CPU 0 panic: IPC 5.8e-06 < 0.01
Simulation CPU 0 panic: IPC 1.2e-06 < 0.01
Simulation CPU 0 panic: IPC 5.1e-06 < 0.01
Simulation CPU 0 panic: IPC 2.8e-05 < 0.01
[ERROR_CYCLE] Error added at CPU cycle 916921213, interval 13, pending count: 1
[DRAM_CYCLE_ERROR] Cycle-based error applied! address=0x1c1402940 additional_latency=2459910500 cycles
Simulation CPU 0 panic: IPC 0 < 0.01
Simulation CPU 0 panic: IPC 2.47e-05 < 0.01
Simulation CPU 0 panic: IPC 5.4e-06 < 0.01
Simulation CPU 0 panic: IPC 1.71e-05 < 0.01
Simulation CPU 0 panic: IPC 5.1e-06 < 0.01
Simulation CPU 0 panic: IPC 7.4e-06 < 0.01
Simulation CPU 0 panic: IPC 7.8e-06 < 0.01
[ERROR_CYCLE] Error added at CPU cycle 987453615, interval 14, pending count: 1
Simulation CPU 0 panic: IPC 8.6e-06 < 0.01
[DRAM_CYCLE_ERROR] Cycle-based error applied! address=0x56bdb2520 additional_latency=2459910500 cycles
Simulation CPU 0 panic: IPC 0 < 0.01
Simulation CPU 0 panic: IPC 5.5e-06 < 0.01
Simulation CPU 0 panic: IPC 8.5e-06 < 0.01
Simulation CPU 0 panic: IPC 2.73e-05 < 0.01
Simulation CPU 0 panic: IPC 2.58e-05 < 0.01
Simulation CPU 0 panic: IPC 2e-05 < 0.01
[ERROR_CYCLE] Error added at CPU cycle 1057986016, interval 15, pending count: 1
Simulation CPU 0 panic: IPC 1.17e-05 < 0.01
[DRAM_CYCLE_ERROR] Cycle-based error applied! address=0x537c77218 additional_latency=2459910500 cycles
Simulation CPU 0 panic: IPC 0 < 0.01
Simulation CPU 0 panic: IPC 3.16e-05 < 0.01
Simulation CPU 0 panic: IPC 5.5e-06 < 0.01
Simulation CPU 0 panic: IPC 0.0006164 < 0.01
Simulation CPU 0 panic: IPC 0.0001388 < 0.01
Simulation CPU 0 panic: IPC 0.0001375 < 0.01
[ERROR_CYCLE] Error added at CPU cycle 1128518416, interval 16, pending count: 1
Simulation CPU 0 panic: IPC 0.0002749 < 0.01
[DRAM_CYCLE_ERROR] Cycle-based error applied! address=0x34f85be18 additional_latency=2459910500 cycles
Simulation CPU 0 panic: IPC 0.0001653 < 0.01
Simulation CPU 0 panic: IPC 0.0002633 < 0.01
Simulation CPU 0 panic: IPC 0.0011681 < 0.01
Simulation CPU 0 panic: IPC 0.0001581 < 0.01
Simulation CPU 0 panic: IPC 5.4e-06 < 0.01
Simulation CPU 0 panic: IPC 0.0001589 < 0.01
[ERROR_CYCLE] Error added at CPU cycle 1199050817, interval 17, pending count: 1
Simulation CPU 0 panic: IPC 5.4e-06 < 0.01
[DRAM_CYCLE_ERROR] Cycle-based error applied! address=0x537c88650 additional_latency=2459910500 cycles
Simulation CPU 0 panic: IPC 0 < 0.01
Simulation CPU 0 panic: IPC 0.0003267 < 0.01
Simulation CPU 0 panic: IPC 0.0001719 < 0.01
Simulation CPU 0 panic: IPC 0.0001609 < 0.01
Simulation CPU 0 panic: IPC 0.0001719 < 0.01
Simulation CPU 0 panic: IPC 0.0001602 < 0.01
[ERROR_CYCLE] Error added at CPU cycle 1269583218, interval 18, pending count: 1
Simulation CPU 0 panic: IPC 5.4e-06 < 0.01
[DRAM_CYCLE_ERROR] Cycle-based error applied! address=0x1df7b5460 additional_latency=2459910500 cycles
Simulation CPU 0 panic: IPC 0 < 0.01
Simulation CPU 0 panic: IPC 0.0003799 < 0.01
Simulation CPU 0 panic: IPC 9.1e-06 < 0.01
Simulation CPU 0 panic: IPC 0.0001136 < 0.01
Simulation CPU 0 panic: IPC 1.6e-05 < 0.01
Simulation CPU 0 panic: IPC 2.22e-05 < 0.01
Simulation CPU 0 panic: IPC 1.21e-05 < 0.01
[ERROR_CYCLE] Error added at CPU cycle 1340115620, interval 19, pending count: 1
[DRAM_CYCLE_ERROR] Cycle-based error applied! address=0x537c97338 additional_latency=2459910500 cycles
Simulation CPU 0 panic: IPC 0 < 0.01
Simulation CPU 0 panic: IPC 8.9e-06 < 0.01
Simulation CPU 0 panic: IPC 1e-07 < 0.01
Simulation CPU 0 panic: IPC 0.0001016 < 0.01
Simulation CPU 0 panic: IPC 8.83e-05 < 0.01
Simulation CPU 0 panic: IPC 0.0001843 < 0.01
Simulation CPU 0 panic: IPC 3.75e-05 < 0.01
[ERROR_CYCLE] Error added at CPU cycle 1410648021, interval 20, pending count: 1
[DRAM_CYCLE_ERROR] Cycle-based error applied! address=0x2f66d98c0 additional_latency=2459910500 cycles
Simulation CPU 0 panic: IPC 0 < 0.01
Simulation CPU 0 panic: IPC 0.000401 < 0.01
Simulation CPU 0 panic: IPC 0.0002663 < 0.01
Simulation CPU 0 panic: IPC 3.92e-05 < 0.01
Simulation CPU 0 panic: IPC 4.55e-05 < 0.01
Simulation CPU 0 panic: IPC 2.08e-05 < 0.01
Simulation CPU 0 panic: IPC 5.2e-06 < 0.01
[ERROR_CYCLE] Error added at CPU cycle 1481180421, interval 21, pending count: 1
[DRAM_CYCLE_ERROR] Cycle-based error applied! address=0x3bae0e750 additional_latency=2459910500 cycles
Simulation CPU 0 panic: IPC 0 < 0.01
Simulation CPU 0 panic: IPC 6.65e-05 < 0.01
Simulation CPU 0 panic: IPC 0.0001063 < 0.01
Simulation CPU 0 panic: IPC 0.0002394 < 0.01
Simulation CPU 0 panic: IPC 0.0003777 < 0.01
Simulation CPU 0 panic: IPC 0.0004196 < 0.01
Simulation CPU 0 panic: IPC 0.0001879 < 0.01
[ERROR_CYCLE] Error added at CPU cycle 1551712822, interval 22, pending count: 1
[DRAM_CYCLE_ERROR] Cycle-based error applied! address=0x537cac6d8 additional_latency=2459910500 cycles
Simulation CPU 0 panic: IPC 0.0001448 < 0.01
Simulation CPU 0 panic: IPC 9.46e-05 < 0.01
Simulation CPU 0 panic: IPC 0.0004602 < 0.01
Simulation CPU 0 panic: IPC 3.92e-05 < 0.01
Simulation CPU 0 panic: IPC 3.95e-05 < 0.01
Simulation CPU 0 panic: IPC 3.73e-05 < 0.01
Simulation CPU 0 panic: IPC 0.0001282 < 0.01
[ERROR_CYCLE] Error added at CPU cycle 1622245223, interval 23, pending count: 1
[DRAM_CYCLE_ERROR] Cycle-based error applied! address=0x40ec87071 additional_latency=2459910500 cycles
Simulation CPU 0 panic: IPC 0 < 0.01
Simulation CPU 0 panic: IPC 5.09e-05 < 0.01
Simulation CPU 0 panic: IPC 0.0002329 < 0.01
Simulation CPU 0 panic: IPC 9.46e-05 < 0.01
Simulation CPU 0 panic: IPC 0.0006733 < 0.01
Simulation CPU 0 panic: IPC 0.0018274 < 0.01
Simulation CPU 0 panic: IPC 0.000105 < 0.01
[ERROR_CYCLE] Error added at CPU cycle 1692777625, interval 24, pending count: 1
[DRAM_CYCLE_ERROR] Cycle-based error applied! address=0x537cbb688 additional_latency=2459910500 cycles
Simulation CPU 0 panic: IPC 0.0003876 < 0.01
Simulation CPU 0 panic: IPC 0.0009874 < 0.01
Simulation CPU 0 panic: IPC 0.0012842 < 0.01
Simulation CPU 0 panic: IPC 0.0015389 < 0.01
Simulation CPU 0 panic: IPC 0.0003849 < 0.01
Simulation CPU 0 panic: IPC 0.0003655 < 0.01
Simulation CPU 0 panic: IPC 0.000366 < 0.01
[ERROR_CYCLE] Error added at CPU cycle 1763310025, interval 25, pending count: 1
[DRAM_CYCLE_ERROR] Cycle-based error applied! address=0xfcbfb751 additional_latency=2459910500 cycles
Simulation CPU 0 panic: IPC 0 < 0.01
Simulation CPU 0 panic: IPC 7.62e-05 < 0.01
Simulation CPU 0 panic: IPC 0.0003003 < 0.01
Simulation CPU 0 panic: IPC 0.0003039 < 0.01
Simulation CPU 0 panic: IPC 0.0002456 < 0.01
Simulation CPU 0 panic: IPC 0.000404 < 0.01
Simulation CPU 0 panic: IPC 0.0047815 < 0.01
[ERROR_CYCLE] Error added at CPU cycle 1833842426, interval 26, pending count: 1
[DRAM_CYCLE_ERROR] Cycle-based error applied! address=0x537cc9108 additional_latency=2459910500 cycles
Simulation CPU 0 panic: IPC 0.0010858 < 0.01
Simulation CPU 0 panic: IPC 0.0002078 < 0.01
Simulation CPU 0 panic: IPC 0.0002537 < 0.01
Simulation CPU 0 panic: IPC 0.0008968 < 0.01
Simulation CPU 0 panic: IPC 0.002866 < 0.01
Simulation CPU 0 panic: IPC 0.0011515 < 0.01
Simulation CPU 0 panic: IPC 0.0008584 < 0.01
[ERROR_CYCLE] Error added at CPU cycle 1904374827, interval 27, pending count: 1
[DRAM_CYCLE_ERROR] Cycle-based error applied! address=0x7934759c1 additional_latency=2459910500 cycles
Simulation CPU 0 panic: IPC 0 < 0.01
Simulation CPU 0 panic: IPC 0.0006085 < 0.01
Simulation CPU 0 panic: IPC 0.0003011 < 0.01
Simulation CPU 0 panic: IPC 0.0021249 < 0.01
Simulation CPU 0 panic: IPC 0.0029258 < 0.01
Simulation CPU 0 panic: IPC 0.0012323 < 0.01
Simulation CPU 0 panic: IPC 0.0011432 < 0.01
[ERROR_CYCLE] Error added at CPU cycle 1974907229, interval 28, pending count: 1
[DRAM_CYCLE_ERROR] Cycle-based error applied! address=0x537cd6798 additional_latency=2459910500 cycles
Simulation CPU 0 panic: IPC 0.0030551 < 0.01
Simulation CPU 0 panic: IPC 0.0017629 < 0.01
Simulation CPU 0 panic: IPC 0.0003205 < 0.01
Simulation CPU 0 panic: IPC 0.0003317 < 0.01
Simulation CPU 0 panic: IPC 0.0007435 < 0.01
Simulation CPU 0 panic: IPC 0.0019878 < 0.01
Simulation CPU 0 panic: IPC 0.0003699 < 0.01
[ERROR_CYCLE] Error added at CPU cycle 2045439630, interval 29, pending count: 1
[DRAM_CYCLE_ERROR] Cycle-based error applied! address=0x537cdd138 additional_latency=2459910500 cycles
Simulation CPU 0 panic: IPC 0.0024232 < 0.01
Simulation CPU 0 panic: IPC 0 < 0.01
Simulation CPU 0 panic: IPC 0.0003722 < 0.01
Simulation CPU 0 panic: IPC 0.0009868 < 0.01
Simulation CPU 0 panic: IPC 0.002298 < 0.01
Simulation CPU 0 panic: IPC 0.0021605 < 0.01
Simulation CPU 0 critical: IPC 0.01585 < 0.02
[ERROR_CYCLE] Error added at CPU cycle 2115972030, interval 30, pending count: 1
Simulation CPU 0 panic: IPC 0.0083119 < 0.01
[DRAM_CYCLE_ERROR] Cycle-based error applied! address=0x370df8458 additional_latency=2459910500 cycles
Simulation CPU 0 panic: IPC 0 < 0.01
Simulation CPU 0 warning: IPC 0.049309 < 0.05
Heartbeat CPU 0 instructions: 10000003 cycles: 2179473356 heartbeat IPC: 0.004588 cumulative IPC: 0.004588 (Simulation time: 02 hr 59 min 55 sec)
[ERROR_CYCLE] Error added at CPU cycle 2186504431, interval 31, pending count: 1
[DRAM_CYCLE_ERROR] Cycle-based error applied! address=0x1a9773e08 additional_latency=2459910500 cycles
Heartbeat CPU 0 instructions: 20000007 cycles: 2194360327 heartbeat IPC: 0.6717 cumulative IPC: 0.009114 (Simulation time: 03 hr 01 min 45 sec)
Heartbeat CPU 0 instructions: 30000008 cycles: 2209207496 heartbeat IPC: 0.6735 cumulative IPC: 0.01358 (Simulation time: 03 hr 03 min 34 sec)
Heartbeat CPU 0 instructions: 40000008 cycles: 2224153267 heartbeat IPC: 0.6691 cumulative IPC: 0.01798 (Simulation time: 03 hr 05 min 23 sec)
Heartbeat CPU 0 instructions: 50000008 cycles: 2239268665 heartbeat IPC: 0.6616 cumulative IPC: 0.02233 (Simulation time: 03 hr 06 min 52 sec)
Heartbeat CPU 0 instructions: 60000011 cycles: 2253831558 heartbeat IPC: 0.6867 cumulative IPC: 0.02662 (Simulation time: 03 hr 08 min 39 sec)
[ERROR_CYCLE] Error added at CPU cycle 2257036832, interval 32, pending count: 1
[DRAM_CYCLE_ERROR] Cycle-based error applied! address=0x41d734e66 additional_latency=2459910500 cycles
Heartbeat CPU 0 instructions: 70000011 cycles: 2278562910 heartbeat IPC: 0.4043 cumulative IPC: 0.03072 (Simulation time: 03 hr 11 min 19 sec)
Heartbeat CPU 0 instructions: 80000012 cycles: 2293475387 heartbeat IPC: 0.6706 cumulative IPC: 0.03488 (Simulation time: 03 hr 13 min 09 sec)
Heartbeat CPU 0 instructions: 90000013 cycles: 2308247567 heartbeat IPC: 0.6769 cumulative IPC: 0.03899 (Simulation time: 03 hr 14 min 57 sec)
Heartbeat CPU 0 instructions: 100000017 cycles: 2323039008 heartbeat IPC: 0.6761 cumulative IPC: 0.04305 (Simulation time: 03 hr 16 min 46 sec)
[ERROR_CYCLE] Error added at CPU cycle 2327569234, interval 33, pending count: 1
[DRAM_CYCLE_ERROR] Cycle-based error applied! address=0x711fd4258 additional_latency=2459910500 cycles
Heartbeat CPU 0 instructions: 110000018 cycles: 2347595513 heartbeat IPC: 0.4072 cumulative IPC: 0.04686 (Simulation time: 03 hr 19 min 40 sec)
Heartbeat CPU 0 instructions: 120000018 cycles: 2362247816 heartbeat IPC: 0.6825 cumulative IPC: 0.0508 (Simulation time: 03 hr 21 min 28 sec)
Heartbeat CPU 0 instructions: 130000018 cycles: 2377004430 heartbeat IPC: 0.6777 cumulative IPC: 0.05469 (Simulation time: 03 hr 22 min 55 sec)
Heartbeat CPU 0 instructions: 140000020 cycles: 2391680082 heartbeat IPC: 0.6814 cumulative IPC: 0.05854 (Simulation time: 03 hr 24 min 21 sec)
[ERROR_CYCLE] Error added at CPU cycle 2398101635, interval 34, pending count: 1
[DRAM_CYCLE_ERROR] Cycle-based error applied! address=0x61267c118 additional_latency=2459910500 cycles
Heartbeat CPU 0 instructions: 150000021 cycles: 2416335604 heartbeat IPC: 0.4056 cumulative IPC: 0.06208 (Simulation time: 03 hr 26 min 10 sec)
Heartbeat CPU 0 instructions: 160000021 cycles: 2431139480 heartbeat IPC: 0.6755 cumulative IPC: 0.06581 (Simulation time: 03 hr 27 min 32 sec)
Heartbeat CPU 0 instructions: 170000021 cycles: 2445794023 heartbeat IPC: 0.6824 cumulative IPC: 0.06951 (Simulation time: 03 hr 29 min 01 sec)
Heartbeat CPU 0 instructions: 180000024 cycles: 2460284848 heartbeat IPC: 0.6901 cumulative IPC: 0.07316 (Simulation time: 03 hr 30 min 23 sec)
[ERROR_CYCLE] Error added at CPU cycle 2468634035, interval 35, pending count: 1
[DRAM_CYCLE_ERROR] Cycle-based error applied! address=0xd96327c0 additional_latency=2459910500 cycles
Heartbeat CPU 0 instructions: 190000028 cycles: 2484718987 heartbeat IPC: 0.4093 cumulative IPC: 0.07647 (Simulation time: 03 hr 32 min 39 sec)
Heartbeat CPU 0 instructions: 200000029 cycles: 2499491718 heartbeat IPC: 0.6769 cumulative IPC: 0.08002 (Simulation time: 03 hr 34 min 16 sec)
Heartbeat CPU 0 instructions: 210000033 cycles: 2514235250 heartbeat IPC: 0.6783 cumulative IPC: 0.08352 (Simulation time: 03 hr 36 min 06 sec)
Heartbeat CPU 0 instructions: 220000035 cycles: 2528912992 heartbeat IPC: 0.6813 cumulative IPC: 0.08699 (Simulation time: 03 hr 37 min 55 sec)
[ERROR_CYCLE] Error added at CPU cycle 2539166436, interval 36, pending count: 1
[DRAM_CYCLE_ERROR] Cycle-based error applied! address=0x34f8fb340 additional_latency=2459910500 cycles
Heartbeat CPU 0 instructions: 230000036 cycles: 2553634436 heartbeat IPC: 0.4045 cumulative IPC: 0.09007 (Simulation time: 03 hr 40 min 44 sec)
Heartbeat CPU 0 instructions: 240000036 cycles: 2568381693 heartbeat IPC: 0.6781 cumulative IPC: 0.09344 (Simulation time: 03 hr 42 min 34 sec)
Heartbeat CPU 0 instructions: 250000038 cycles: 2582681586 heartbeat IPC: 0.6993 cumulative IPC: 0.0968 (Simulation time: 03 hr 44 min 20 sec)
Heartbeat CPU 0 instructions: 260000038 cycles: 2597026960 heartbeat IPC: 0.6971 cumulative IPC: 0.1001 (Simulation time: 03 hr 46 min 09 sec)
[ERROR_CYCLE] Error added at CPU cycle 2609698838, interval 37, pending count: 1
[DRAM_CYCLE_ERROR] Cycle-based error applied! address=0x28fcb3b8 additional_latency=2459910500 cycles
Simulation CPU 0 warning: IPC 0.029207 < 0.05
Heartbeat CPU 0 instructions: 270000038 cycles: 2621669823 heartbeat IPC: 0.4058 cumulative IPC: 0.103 (Simulation time: 03 hr 49 min 05 sec)
Heartbeat CPU 0 instructions: 280000041 cycles: 2636735404 heartbeat IPC: 0.6638 cumulative IPC: 0.1062 (Simulation time: 03 hr 50 min 57 sec)
Heartbeat CPU 0 instructions: 290000043 cycles: 2651674454 heartbeat IPC: 0.6694 cumulative IPC: 0.1094 (Simulation time: 03 hr 52 min 28 sec)
Heartbeat CPU 0 instructions: 300000044 cycles: 2666075966 heartbeat IPC: 0.6944 cumulative IPC: 0.1125 (Simulation time: 03 hr 53 min 40 sec)
[ERROR_CYCLE] Error added at CPU cycle 2680231239, interval 38, pending count: 1
[DRAM_CYCLE_ERROR] Cycle-based error applied! address=0x1f425bd88 additional_latency=2459910500 cycles
Simulation CPU 0 critical: IPC 0.013858 < 0.02
Heartbeat CPU 0 instructions: 310000047 cycles: 2690879076 heartbeat IPC: 0.4032 cumulative IPC: 0.1152 (Simulation time: 03 hr 56 min 07 sec)
Heartbeat CPU 0 instructions: 320000051 cycles: 2705630417 heartbeat IPC: 0.6779 cumulative IPC: 0.1183 (Simulation time: 03 hr 57 min 58 sec)
Heartbeat CPU 0 instructions: 330000051 cycles: 2720328647 heartbeat IPC: 0.6804 cumulative IPC: 0.1213 (Simulation time: 03 hr 59 min 47 sec)
Heartbeat CPU 0 instructions: 340000055 cycles: 2734175248 heartbeat IPC: 0.7222 cumulative IPC: 0.1244 (Simulation time: 04 hr 01 min 29 sec)
Heartbeat CPU 0 instructions: 350000055 cycles: 2748759073 heartbeat IPC: 0.6857 cumulative IPC: 0.1273 (Simulation time: 04 hr 03 min 07 sec)
[ERROR_CYCLE] Error added at CPU cycle 2750763639, interval 39, pending count: 1
[DRAM_CYCLE_ERROR] Cycle-based error applied! address=0xc14bdb80 additional_latency=2459910500 cycles
Heartbeat CPU 0 instructions: 360000056 cycles: 2763070651 heartbeat IPC: 0.6987 cumulative IPC: 0.1303 (Simulation time: 04 hr 04 min 21 sec)
Heartbeat CPU 0 instructions: 370000056 cycles: 2777484535 heartbeat IPC: 0.6938 cumulative IPC: 0.1332 (Simulation time: 04 hr 05 min 39 sec)
Heartbeat CPU 0 instructions: 380000056 cycles: 2791804111 heartbeat IPC: 0.6983 cumulative IPC: 0.1361 (Simulation time: 04 hr 07 min 23 sec)
Heartbeat CPU 0 instructions: 390000058 cycles: 2806147976 heartbeat IPC: 0.6972 cumulative IPC: 0.139 (Simulation time: 04 hr 09 min 09 sec)
Heartbeat CPU 0 instructions: 400000059 cycles: 2820616436 heartbeat IPC: 0.6912 cumulative IPC: 0.1418 (Simulation time: 04 hr 10 min 51 sec)
[ERROR_CYCLE] Error added at CPU cycle 2821296040, interval 40, pending count: 1
[DRAM_CYCLE_ERROR] Cycle-based error applied! address=0x4f75fd310 additional_latency=2459910500 cycles
Heartbeat CPU 0 instructions: 410000059 cycles: 2844817303 heartbeat IPC: 0.4132 cumulative IPC: 0.1441 (Simulation time: 04 hr 13 min 17 sec)
Heartbeat CPU 0 instructions: 420000062 cycles: 2859333119 heartbeat IPC: 0.6889 cumulative IPC: 0.1469 (Simulation time: 04 hr 14 min 40 sec)
Heartbeat CPU 0 instructions: 430000065 cycles: 2873941461 heartbeat IPC: 0.6845 cumulative IPC: 0.1496 (Simulation time: 04 hr 16 min 19 sec)
Heartbeat CPU 0 instructions: 440000068 cycles: 2888668261 heartbeat IPC: 0.679 cumulative IPC: 0.1523 (Simulation time: 04 hr 17 min 53 sec)
[ERROR_CYCLE] Error added at CPU cycle 2891828441, interval 41, pending count: 1
[DRAM_CYCLE_ERROR] Cycle-based error applied! address=0x2061ec670 additional_latency=2459910500 cycles
Heartbeat CPU 0 instructions: 450000068 cycles: 2913156239 heartbeat IPC: 0.4084 cumulative IPC: 0.1545 (Simulation time: 04 hr 20 min 52 sec)
Heartbeat CPU 0 instructions: 460000068 cycles: 2927730233 heartbeat IPC: 0.6862 cumulative IPC: 0.1571 (Simulation time: 04 hr 22 min 27 sec)
Heartbeat CPU 0 instructions: 470000068 cycles: 2942423105 heartbeat IPC: 0.6806 cumulative IPC: 0.1597 (Simulation time: 04 hr 23 min 46 sec)
Heartbeat CPU 0 instructions: 480000068 cycles: 2957046288 heartbeat IPC: 0.6838 cumulative IPC: 0.1623 (Simulation time: 04 hr 25 min 10 sec)
[ERROR_CYCLE] Error added at CPU cycle 2962360843, interval 42, pending count: 1
[DRAM_CYCLE_ERROR] Cycle-based error applied! address=0x3956ab4f8 additional_latency=2459910500 cycles
Heartbeat CPU 0 instructions: 490000071 cycles: 2982039878 heartbeat IPC: 0.4001 cumulative IPC: 0.1643 (Simulation time: 04 hr 27 min 43 sec)
Heartbeat CPU 0 instructions: 500000072 cycles: 2996567929 heartbeat IPC: 0.6883 cumulative IPC: 0.1669 (Simulation time: 04 hr 29 min 20 sec)
Heartbeat CPU 0 instructions: 510000075 cycles: 3011256219 heartbeat IPC: 0.6808 cumulative IPC: 0.1694 (Simulation time: 04 hr 31 min 02 sec)
Heartbeat CPU 0 instructions: 520000079 cycles: 3025975538 heartbeat IPC: 0.6794 cumulative IPC: 0.1718 (Simulation time: 04 hr 32 min 36 sec)
[ERROR_CYCLE] Error added at CPU cycle 3032893244, interval 43, pending count: 1
[DRAM_CYCLE_ERROR] Cycle-based error applied! address=0x31f18b621 additional_latency=2459910500 cycles
Heartbeat CPU 0 instructions: 530000080 cycles: 3050392336 heartbeat IPC: 0.4096 cumulative IPC: 0.1737 (Simulation time: 04 hr 35 min 15 sec)
Heartbeat CPU 0 instructions: 540000080 cycles: 3065309375 heartbeat IPC: 0.6704 cumulative IPC: 0.1762 (Simulation time: 04 hr 37 min 03 sec)
Heartbeat CPU 0 instructions: 550000081 cycles: 3080135966 heartbeat IPC: 0.6745 cumulative IPC: 0.1786 (Simulation time: 04 hr 38 min 27 sec)
Heartbeat CPU 0 instructions: 560000082 cycles: 3094838410 heartbeat IPC: 0.6802 cumulative IPC: 0.1809 (Simulation time: 04 hr 40 min 00 sec)
[ERROR_CYCLE] Error added at CPU cycle 3103425644, interval 44, pending count: 1
[DRAM_CYCLE_ERROR] Cycle-based error applied! address=0x711f64a98 additional_latency=2459910500 cycles
Heartbeat CPU 0 instructions: 570000082 cycles: 3109739650 heartbeat IPC: 0.6711 cumulative IPC: 0.1833 (Simulation time: 04 hr 41 min 36 sec)
Heartbeat CPU 0 instructions: 580000083 cycles: 3124416468 heartbeat IPC: 0.6813 cumulative IPC: 0.1856 (Simulation time: 04 hr 43 min 23 sec)
Heartbeat CPU 0 instructions: 590000085 cycles: 3139288112 heartbeat IPC: 0.6724 cumulative IPC: 0.1879 (Simulation time: 04 hr 44 min 49 sec)
Heartbeat CPU 0 instructions: 600000086 cycles: 3153947207 heartbeat IPC: 0.6822 cumulative IPC: 0.1902 (Simulation time: 04 hr 46 min 09 sec)
Heartbeat CPU 0 instructions: 610000086 cycles: 3168541098 heartbeat IPC: 0.6852 cumulative IPC: 0.1925 (Simulation time: 04 hr 47 min 34 sec)
[ERROR_CYCLE] Error added at CPU cycle 3173958045, interval 45, pending count: 1
[DRAM_CYCLE_ERROR] Cycle-based error applied! address=0x146ffe2b0 additional_latency=2459910500 cycles
Heartbeat CPU 0 instructions: 620000090 cycles: 3193328408 heartbeat IPC: 0.4034 cumulative IPC: 0.1942 (Simulation time: 04 hr 50 min 18 sec)
Heartbeat CPU 0 instructions: 630000094 cycles: 3208088537 heartbeat IPC: 0.6775 cumulative IPC: 0.1964 (Simulation time: 04 hr 52 min 08 sec)
Heartbeat CPU 0 instructions: 640000095 cycles: 3223023740 heartbeat IPC: 0.6696 cumulative IPC: 0.1986 (Simulation time: 04 hr 53 min 58 sec)
Heartbeat CPU 0 instructions: 650000098 cycles: 3237816924 heartbeat IPC: 0.676 cumulative IPC: 0.2008 (Simulation time: 04 hr 55 min 46 sec)
[ERROR_CYCLE] Error added at CPU cycle 3244490446, interval 46, pending count: 1
[DRAM_CYCLE_ERROR] Cycle-based error applied! address=0x240601ef8 additional_latency=2459910500 cycles
Heartbeat CPU 0 instructions: 660000100 cycles: 3262496277 heartbeat IPC: 0.4052 cumulative IPC: 0.2023 (Simulation time: 04 hr 58 min 03 sec)
Heartbeat CPU 0 instructions: 670000101 cycles: 3277264142 heartbeat IPC: 0.6771 cumulative IPC: 0.2044 (Simulation time: 04 hr 59 min 33 sec)
Heartbeat CPU 0 instructions: 680000104 cycles: 3292005278 heartbeat IPC: 0.6784 cumulative IPC: 0.2066 (Simulation time: 05 hr 00 min 58 sec)
Heartbeat CPU 0 instructions: 690000108 cycles: 3306646378 heartbeat IPC: 0.683 cumulative IPC: 0.2087 (Simulation time: 05 hr 02 min 30 sec)
[ERROR_CYCLE] Error added at CPU cycle 3315022848, interval 47, pending count: 1
[DRAM_CYCLE_ERROR] Cycle-based error applied! address=0x40eca37b0 additional_latency=2459910500 cycles
Heartbeat CPU 0 instructions: 700000111 cycles: 3321279591 heartbeat IPC: 0.6834 cumulative IPC: 0.2108 (Simulation time: 05 hr 04 min 10 sec)
Heartbeat CPU 0 instructions: 710000111 cycles: 3336091707 heartbeat IPC: 0.6751 cumulative IPC: 0.2128 (Simulation time: 05 hr 05 min 37 sec)
Heartbeat CPU 0 instructions: 720000111 cycles: 3350921935 heartbeat IPC: 0.6743 cumulative IPC: 0.2149 (Simulation time: 05 hr 07 min 28 sec)
Heartbeat CPU 0 instructions: 730000112 cycles: 3365527318 heartbeat IPC: 0.6847 cumulative IPC: 0.2169 (Simulation time: 05 hr 09 min 16 sec)
Heartbeat CPU 0 instructions: 740000114 cycles: 3380331086 heartbeat IPC: 0.6755 cumulative IPC: 0.2189 (Simulation time: 05 hr 10 min 56 sec)
[ERROR_CYCLE] Error added at CPU cycle 3385555249, interval 48, pending count: 1
[DRAM_CYCLE_ERROR] Cycle-based error applied! address=0x2424a4928 additional_latency=2459910500 cycles
Heartbeat CPU 0 instructions: 750000115 cycles: 3394978474 heartbeat IPC: 0.6827 cumulative IPC: 0.2209 (Simulation time: 05 hr 12 min 26 sec)
Heartbeat CPU 0 instructions: 760000117 cycles: 3409770278 heartbeat IPC: 0.6761 cumulative IPC: 0.2229 (Simulation time: 05 hr 13 min 48 sec)
Heartbeat CPU 0 instructions: 770000119 cycles: 3424197323 heartbeat IPC: 0.6931 cumulative IPC: 0.2249 (Simulation time: 05 hr 15 min 07 sec)
Heartbeat CPU 0 instructions: 780000119 cycles: 3438953912 heartbeat IPC: 0.6777 cumulative IPC: 0.2268 (Simulation time: 05 hr 16 min 24 sec)
Heartbeat CPU 0 instructions: 790000119 cycles: 3453676431 heartbeat IPC: 0.6792 cumulative IPC: 0.2287 (Simulation time: 05 hr 17 min 39 sec)
[ERROR_CYCLE] Error added at CPU cycle 3456087649, interval 49, pending count: 1
[DRAM_CYCLE_ERROR] Cycle-based error applied! address=0x152079228 additional_latency=2459910500 cycles
Heartbeat CPU 0 instructions: 800000119 cycles: 3468222697 heartbeat IPC: 0.6875 cumulative IPC: 0.2307 (Simulation time: 05 hr 19 min 10 sec)
Heartbeat CPU 0 instructions: 810000119 cycles: 3482816502 heartbeat IPC: 0.6852 cumulative IPC: 0.2326 (Simulation time: 05 hr 20 min 52 sec)
Heartbeat CPU 0 instructions: 820000120 cycles: 3497519949 heartbeat IPC: 0.6801 cumulative IPC: 0.2345 (Simulation time: 05 hr 22 min 07 sec)
Heartbeat CPU 0 instructions: 830000122 cycles: 3512123607 heartbeat IPC: 0.6848 cumulative IPC: 0.2363 (Simulation time: 05 hr 23 min 19 sec)
Heartbeat CPU 0 instructions: 840000126 cycles: 3526537243 heartbeat IPC: 0.6938 cumulative IPC: 0.2382 (Simulation time: 05 hr 24 min 30 sec)
[ERROR_CYCLE] Error added at CPU cycle 3526620050, interval 50, pending count: 1
[DRAM_CYCLE_ERROR] Cycle-based error applied! address=0x6f0bf5754 additional_latency=2459910500 cycles
Heartbeat CPU 0 instructions: 850000129 cycles: 3551081000 heartbeat IPC: 0.4074 cumulative IPC: 0.2394 (Simulation time: 05 hr 26 min 28 sec)
Heartbeat CPU 0 instructions: 860000133 cycles: 3565710576 heartbeat IPC: 0.6835 cumulative IPC: 0.2412 (Simulation time: 05 hr 28 min 05 sec)
Heartbeat CPU 0 instructions: 870000136 cycles: 3580278183 heartbeat IPC: 0.6865 cumulative IPC: 0.243 (Simulation time: 05 hr 29 min 53 sec)
Heartbeat CPU 0 instructions: 880000138 cycles: 3594859911 heartbeat IPC: 0.6858 cumulative IPC: 0.2448 (Simulation time: 05 hr 31 min 37 sec)
[ERROR_CYCLE] Error added at CPU cycle 3597152452, interval 51, pending count: 1
[DRAM_CYCLE_ERROR] Cycle-based error applied! address=0x72e173680 additional_latency=2459910500 cycles
Heartbeat CPU 0 instructions: 890000138 cycles: 3619248127 heartbeat IPC: 0.41 cumulative IPC: 0.2459 (Simulation time: 05 hr 34 min 07 sec)
Heartbeat CPU 0 instructions: 900000142 cycles: 3633512740 heartbeat IPC: 0.701 cumulative IPC: 0.2477 (Simulation time: 05 hr 35 min 31 sec)
Heartbeat CPU 0 instructions: 910000142 cycles: 3648029991 heartbeat IPC: 0.6888 cumulative IPC: 0.2494 (Simulation time: 05 hr 36 min 41 sec)
Heartbeat CPU 0 instructions: 920000143 cycles: 3662657316 heartbeat IPC: 0.6837 cumulative IPC: 0.2512 (Simulation time: 05 hr 38 min 00 sec)
[ERROR_CYCLE] Error added at CPU cycle 3667684853, interval 52, pending count: 1
[DRAM_CYCLE_ERROR] Cycle-based error applied! address=0x76bf3a8c8 additional_latency=2459910500 cycles
Heartbeat CPU 0 instructions: 930000144 cycles: 3686733846 heartbeat IPC: 0.4153 cumulative IPC: 0.2523 (Simulation time: 05 hr 40 min 14 sec)
Heartbeat CPU 0 instructions: 940000145 cycles: 3700998406 heartbeat IPC: 0.701 cumulative IPC: 0.254 (Simulation time: 05 hr 41 min 59 sec)
Heartbeat CPU 0 instructions: 950000146 cycles: 3715600605 heartbeat IPC: 0.6848 cumulative IPC: 0.2557 (Simulation time: 05 hr 43 min 46 sec)
Heartbeat CPU 0 instructions: 960000149 cycles: 3730132926 heartbeat IPC: 0.6881 cumulative IPC: 0.2574 (Simulation time: 05 hr 45 min 32 sec)
[ERROR_CYCLE] Error added at CPU cycle 3738217253, interval 53, pending count: 1
[DRAM_CYCLE_ERROR] Cycle-based error applied! address=0x108ac7700 additional_latency=2459910500 cycles
Heartbeat CPU 0 instructions: 970000151 cycles: 3744745307 heartbeat IPC: 0.6844 cumulative IPC: 0.259 (Simulation time: 05 hr 47 min 19 sec)
Heartbeat CPU 0 instructions: 980000151 cycles: 3759123761 heartbeat IPC: 0.6955 cumulative IPC: 0.2607 (Simulation time: 05 hr 49 min 04 sec)
Heartbeat CPU 0 instructions: 990000152 cycles: 3773727771 heartbeat IPC: 0.6847 cumulative IPC: 0.2623 (Simulation time: 05 hr 50 min 51 sec)
Heartbeat CPU 0 instructions: 1000000155 cycles: 3788348771 heartbeat IPC: 0.6839 cumulative IPC: 0.264 (Simulation time: 05 hr 52 min 07 sec)
Heartbeat CPU 0 instructions: 1010000157 cycles: 3802806721 heartbeat IPC: 0.6917 cumulative IPC: 0.2656 (Simulation time: 05 hr 53 min 24 sec)
[ERROR_CYCLE] Error added at CPU cycle 3808749654, interval 54, pending count: 1
[DRAM_CYCLE_ERROR] Cycle-based error applied! address=0xdb860ab8 additional_latency=2459910500 cycles
Heartbeat CPU 0 instructions: 1020000158 cycles: 3827287958 heartbeat IPC: 0.4085 cumulative IPC: 0.2665 (Simulation time: 05 hr 55 min 47 sec)
Heartbeat CPU 0 instructions: 1030000159 cycles: 3841843663 heartbeat IPC: 0.687 cumulative IPC: 0.2681 (Simulation time: 05 hr 57 min 35 sec)
Heartbeat CPU 0 instructions: 1040000159 cycles: 3856380409 heartbeat IPC: 0.6879 cumulative IPC: 0.2697 (Simulation time: 05 hr 59 min 22 sec)
Heartbeat CPU 0 instructions: 1050000161 cycles: 3870753108 heartbeat IPC: 0.6958 cumulative IPC: 0.2713 (Simulation time: 06 hr 00 min 52 sec)
[ERROR_CYCLE] Error added at CPU cycle 3879282055, interval 55, pending count: 1
[DRAM_CYCLE_ERROR] Cycle-based error applied! address=0x807af308 additional_latency=2459910500 cycles
Heartbeat CPU 0 instructions: 1060000161 cycles: 3885077119 heartbeat IPC: 0.6981 cumulative IPC: 0.2728 (Simulation time: 06 hr 02 min 39 sec)
Heartbeat CPU 0 instructions: 1070000165 cycles: 3899429716 heartbeat IPC: 0.6967 cumulative IPC: 0.2744 (Simulation time: 06 hr 04 min 26 sec)
Heartbeat CPU 0 instructions: 1080000166 cycles: 3914096676 heartbeat IPC: 0.6818 cumulative IPC: 0.2759 (Simulation time: 06 hr 06 min 13 sec)
Heartbeat CPU 0 instructions: 1090000166 cycles: 3928600454 heartbeat IPC: 0.6895 cumulative IPC: 0.2775 (Simulation time: 06 hr 07 min 59 sec)
Heartbeat CPU 0 instructions: 1100000166 cycles: 3942797646 heartbeat IPC: 0.7044 cumulative IPC: 0.279 (Simulation time: 06 hr 09 min 45 sec)
[ERROR_CYCLE] Error added at CPU cycle 3949814457, interval 56, pending count: 1
[DRAM_CYCLE_ERROR] Cycle-based error applied! address=0x76b227ce0 additional_latency=2459910500 cycles
Simulation CPU 0 warning: IPC 0.022582 < 0.05
Heartbeat CPU 0 instructions: 1110000166 cycles: 3967197860 heartbeat IPC: 0.4098 cumulative IPC: 0.2798 (Simulation time: 06 hr 12 min 19 sec)
Heartbeat CPU 0 instructions: 1120000168 cycles: 3981537072 heartbeat IPC: 0.6974 cumulative IPC: 0.2813 (Simulation time: 06 hr 13 min 41 sec)
Heartbeat CPU 0 instructions: 1130000172 cycles: 3996143878 heartbeat IPC: 0.6846 cumulative IPC: 0.2828 (Simulation time: 06 hr 14 min 57 sec)
Heartbeat CPU 0 instructions: 1140000176 cycles: 4010475632 heartbeat IPC: 0.6978 cumulative IPC: 0.2843 (Simulation time: 06 hr 16 min 28 sec)
[ERROR_CYCLE] Error added at CPU cycle 4020346858, interval 57, pending count: 1
[DRAM_CYCLE_ERROR] Cycle-based error applied! address=0x2ea4a0ad0 additional_latency=2459910500 cycles
Simulation CPU 0 warning: IPC 0.022947 < 0.05
Heartbeat CPU 0 instructions: 1150000177 cycles: 4034609093 heartbeat IPC: 0.4144 cumulative IPC: 0.285 (Simulation time: 06 hr 19 min 02 sec)
Heartbeat CPU 0 instructions: 1160000181 cycles: 4048980112 heartbeat IPC: 0.6958 cumulative IPC: 0.2865 (Simulation time: 06 hr 20 min 45 sec)
Heartbeat CPU 0 instructions: 1170000181 cycles: 4063487024 heartbeat IPC: 0.6893 cumulative IPC: 0.2879 (Simulation time: 06 hr 22 min 26 sec)
Heartbeat CPU 0 instructions: 1180000184 cycles: 4077823966 heartbeat IPC: 0.6975 cumulative IPC: 0.2894 (Simulation time: 06 hr 23 min 58 sec)
[ERROR_CYCLE] Error added at CPU cycle 4090879258, interval 58, pending count: 1
[DRAM_CYCLE_ERROR] Cycle-based error applied! address=0x26c435478 additional_latency=2459910500 cycles
Heartbeat CPU 0 instructions: 1190000185 cycles: 4092446961 heartbeat IPC: 0.6839 cumulative IPC: 0.2908 (Simulation time: 06 hr 25 min 47 sec)
Heartbeat CPU 0 instructions: 1200000186 cycles: 4106918424 heartbeat IPC: 0.691 cumulative IPC: 0.2922 (Simulation time: 06 hr 27 min 35 sec)
Heartbeat CPU 0 instructions: 1210000189 cycles: 4121332197 heartbeat IPC: 0.6938 cumulative IPC: 0.2936 (Simulation time: 06 hr 29 min 13 sec)
Heartbeat CPU 0 instructions: 1220000191 cycles: 4135776556 heartbeat IPC: 0.6923 cumulative IPC: 0.295 (Simulation time: 06 hr 30 min 58 sec)
Heartbeat CPU 0 instructions: 1230000191 cycles: 4150231189 heartbeat IPC: 0.6918 cumulative IPC: 0.2964 (Simulation time: 06 hr 32 min 45 sec)
[ERROR_CYCLE] Error added at CPU cycle 4161411659, interval 59, pending count: 1
[DRAM_CYCLE_ERROR] Cycle-based error applied! address=0x56dc520 additional_latency=2459910500 cycles
Heartbeat CPU 0 instructions: 1240000192 cycles: 4174451940 heartbeat IPC: 0.4129 cumulative IPC: 0.297 (Simulation time: 06 hr 35 min 20 sec)
Heartbeat CPU 0 instructions: 1250000193 cycles: 4188923256 heartbeat IPC: 0.691 cumulative IPC: 0.2984 (Simulation time: 06 hr 36 min 57 sec)
Heartbeat CPU 0 instructions: 1260000195 cycles: 4203331810 heartbeat IPC: 0.694 cumulative IPC: 0.2998 (Simulation time: 06 hr 38 min 43 sec)
Heartbeat CPU 0 instructions: 1270000195 cycles: 4217676975 heartbeat IPC: 0.6971 cumulative IPC: 0.3011 (Simulation time: 06 hr 40 min 28 sec)
[ERROR_CYCLE] Error added at CPU cycle 4231944060, interval 60, pending count: 1
[DRAM_CYCLE_ERROR] Cycle-based error applied! address=0x793441480 additional_latency=2459910500 cycles
Heartbeat CPU 0 instructions: 1280000195 cycles: 4241994232 heartbeat IPC: 0.4112 cumulative IPC: 0.3017 (Simulation time: 06 hr 42 min 38 sec)
Heartbeat CPU 0 instructions: 1290000195 cycles: 4256607915 heartbeat IPC: 0.6843 cumulative IPC: 0.3031 (Simulation time: 06 hr 43 min 55 sec)
Heartbeat CPU 0 instructions: 1300000195 cycles: 4270947402 heartbeat IPC: 0.6974 cumulative IPC: 0.3044 (Simulation time: 06 hr 45 min 12 sec)
Heartbeat CPU 0 instructions: 1310000199 cycles: 4285205125 heartbeat IPC: 0.7014 cumulative IPC: 0.3057 (Simulation time: 06 hr 46 min 35 sec)
Heartbeat CPU 0 instructions: 1320000200 cycles: 4299759694 heartbeat IPC: 0.6871 cumulative IPC: 0.307 (Simulation time: 06 hr 48 min 14 sec)
[ERROR_CYCLE] Error added at CPU cycle 4302476462, interval 61, pending count: 1
[DRAM_CYCLE_ERROR] Cycle-based error applied! address=0x30cf6f0c8 additional_latency=2459910500 cycles
Heartbeat CPU 0 instructions: 1330000200 cycles: 4323950344 heartbeat IPC: 0.4134 cumulative IPC: 0.3076 (Simulation time: 06 hr 51 min 03 sec)
Heartbeat CPU 0 instructions: 1340000202 cycles: 4338344399 heartbeat IPC: 0.6947 cumulative IPC: 0.3089 (Simulation time: 06 hr 52 min 49 sec)
Heartbeat CPU 0 instructions: 1350000205 cycles: 4352875702 heartbeat IPC: 0.6882 cumulative IPC: 0.3101 (Simulation time: 06 hr 54 min 31 sec)
Heartbeat CPU 0 instructions: 1360000205 cycles: 4367077669 heartbeat IPC: 0.7041 cumulative IPC: 0.3114 (Simulation time: 06 hr 55 min 59 sec)
[ERROR_CYCLE] Error added at CPU cycle 4373008862, interval 62, pending count: 1
[DRAM_CYCLE_ERROR] Cycle-based error applied! address=0x3f2ffed00 additional_latency=2459910500 cycles
Heartbeat CPU 0 instructions: 1370000207 cycles: 4391411579 heartbeat IPC: 0.4109 cumulative IPC: 0.312 (Simulation time: 06 hr 57 min 55 sec)
Heartbeat CPU 0 instructions: 1380000207 cycles: 4405913036 heartbeat IPC: 0.6896 cumulative IPC: 0.3132 (Simulation time: 06 hr 59 min 30 sec)
Heartbeat CPU 0 instructions: 1390000207 cycles: 4420428431 heartbeat IPC: 0.6889 cumulative IPC: 0.3144 (Simulation time: 07 hr 00 min 51 sec)
Heartbeat CPU 0 instructions: 1400000207 cycles: 4434821453 heartbeat IPC: 0.6948 cumulative IPC: 0.3157 (Simulation time: 07 hr 02 min 38 sec)
[ERROR_CYCLE] Error added at CPU cycle 4443541263, interval 63, pending count: 1
[DRAM_CYCLE_ERROR] Cycle-based error applied! address=0x5ca075d00 additional_latency=2459910500 cycles
Heartbeat CPU 0 instructions: 1410000207 cycles: 4459175909 heartbeat IPC: 0.4106 cumulative IPC: 0.3162 (Simulation time: 07 hr 05 min 00 sec)
Heartbeat CPU 0 instructions: 1420000207 cycles: 4473812456 heartbeat IPC: 0.6832 cumulative IPC: 0.3174 (Simulation time: 07 hr 06 min 24 sec)
Heartbeat CPU 0 instructions: 1430000211 cycles: 4488352806 heartbeat IPC: 0.6877 cumulative IPC: 0.3186 (Simulation time: 07 hr 07 min 44 sec)
Heartbeat CPU 0 instructions: 1440000213 cycles: 4503010026 heartbeat IPC: 0.6823 cumulative IPC: 0.3198 (Simulation time: 07 hr 09 min 17 sec)
[ERROR_CYCLE] Error added at CPU cycle 4514073664, interval 64, pending count: 1
[DRAM_CYCLE_ERROR] Cycle-based error applied! address=0x4d8ab51c8 additional_latency=2459910500 cycles
Heartbeat CPU 0 instructions: 1450000215 cycles: 4517161376 heartbeat IPC: 0.7066 cumulative IPC: 0.321 (Simulation time: 07 hr 10 min 31 sec)
Heartbeat CPU 0 instructions: 1460000218 cycles: 4531652874 heartbeat IPC: 0.6901 cumulative IPC: 0.3222 (Simulation time: 07 hr 11 min 51 sec)
Heartbeat CPU 0 instructions: 1470000218 cycles: 4546007433 heartbeat IPC: 0.6966 cumulative IPC: 0.3234 (Simulation time: 07 hr 13 min 12 sec)
Heartbeat CPU 0 instructions: 1480000218 cycles: 4560443924 heartbeat IPC: 0.6927 cumulative IPC: 0.3245 (Simulation time: 07 hr 14 min 32 sec)
Heartbeat CPU 0 instructions: 1490000222 cycles: 4574840140 heartbeat IPC: 0.6946 cumulative IPC: 0.3257 (Simulation time: 07 hr 15 min 50 sec)
[ERROR_CYCLE] Error added at CPU cycle 4584606066, interval 65, pending count: 1
[DRAM_CYCLE_ERROR] Cycle-based error applied! address=0x3472036d0 additional_latency=2459910500 cycles
Heartbeat CPU 0 instructions: 1500000226 cycles: 4599152393 heartbeat IPC: 0.4113 cumulative IPC: 0.3261 (Simulation time: 07 hr 18 min 02 sec)
Heartbeat CPU 0 instructions: 1510000228 cycles: 4613642019 heartbeat IPC: 0.6901 cumulative IPC: 0.3273 (Simulation time: 07 hr 19 min 35 sec)
Heartbeat CPU 0 instructions: 1520000228 cycles: 4628108632 heartbeat IPC: 0.6912 cumulative IPC: 0.3284 (Simulation time: 07 hr 20 min 56 sec)
Heartbeat CPU 0 instructions: 1530000229 cycles: 4642724642 heartbeat IPC: 0.6842 cumulative IPC: 0.3295 (Simulation time: 07 hr 22 min 42 sec)
[ERROR_CYCLE] Error added at CPU cycle 4655138467, interval 66, pending count: 1
[DRAM_CYCLE_ERROR] Cycle-based error applied! address=0x3ebbc6848 additional_latency=2459910500 cycles
Heartbeat CPU 0 instructions: 1540000230 cycles: 4657295668 heartbeat IPC: 0.6863 cumulative IPC: 0.3307 (Simulation time: 07 hr 24 min 30 sec)
Heartbeat CPU 0 instructions: 1550000230 cycles: 4672081482 heartbeat IPC: 0.6763 cumulative IPC: 0.3318 (Simulation time: 07 hr 26 min 18 sec)
Heartbeat CPU 0 instructions: 1560000231 cycles: 4686716722 heartbeat IPC: 0.6833 cumulative IPC: 0.3329 (Simulation time: 07 hr 28 min 04 sec)
Heartbeat CPU 0 instructions: 1570000233 cycles: 4701404176 heartbeat IPC: 0.6809 cumulative IPC: 0.3339 (Simulation time: 07 hr 29 min 38 sec)
Heartbeat CPU 0 instructions: 1580000237 cycles: 4716244796 heartbeat IPC: 0.6738 cumulative IPC: 0.335 (Simulation time: 07 hr 31 min 10 sec)
[ERROR_CYCLE] Error added at CPU cycle 4725670867, interval 67, pending count: 1
[DRAM_CYCLE_ERROR] Cycle-based error applied! address=0x34f895c40 additional_latency=2459910500 cycles
Heartbeat CPU 0 instructions: 1590000240 cycles: 4731045957 heartbeat IPC: 0.6756 cumulative IPC: 0.3361 (Simulation time: 07 hr 32 min 36 sec)
Heartbeat CPU 0 instructions: 1600000244 cycles: 4745731762 heartbeat IPC: 0.6809 cumulative IPC: 0.3371 (Simulation time: 07 hr 34 min 03 sec)
Heartbeat CPU 0 instructions: 1610000244 cycles: 4760391493 heartbeat IPC: 0.6821 cumulative IPC: 0.3382 (Simulation time: 07 hr 35 min 30 sec)
Heartbeat CPU 0 instructions: 1620000248 cycles: 4775048533 heartbeat IPC: 0.6823 cumulative IPC: 0.3393 (Simulation time: 07 hr 36 min 45 sec)
Heartbeat CPU 0 instructions: 1630000248 cycles: 4789809781 heartbeat IPC: 0.6774 cumulative IPC: 0.3403 (Simulation time: 07 hr 38 min 03 sec)
[ERROR_CYCLE] Error added at CPU cycle 4796203268, interval 68, pending count: 1
[DRAM_CYCLE_ERROR] Cycle-based error applied! address=0x3b6621ad0 additional_latency=2459910500 cycles
Heartbeat CPU 0 instructions: 1640000252 cycles: 4814250088 heartbeat IPC: 0.4092 cumulative IPC: 0.3407 (Simulation time: 07 hr 40 min 16 sec)
Heartbeat CPU 0 instructions: 1650000253 cycles: 4828892524 heartbeat IPC: 0.6829 cumulative IPC: 0.3417 (Simulation time: 07 hr 42 min 04 sec)
Heartbeat CPU 0 instructions: 1660000256 cycles: 4843614569 heartbeat IPC: 0.6793 cumulative IPC: 0.3427 (Simulation time: 07 hr 43 min 29 sec)
Heartbeat CPU 0 instructions: 1670000258 cycles: 4858305273 heartbeat IPC: 0.6807 cumulative IPC: 0.3437 (Simulation time: 07 hr 44 min 49 sec)
[ERROR_CYCLE] Error added at CPU cycle 4866735669, interval 69, pending count: 1
[DRAM_CYCLE_ERROR] Cycle-based error applied! address=0x108f2290 additional_latency=2459910500 cycles
Heartbeat CPU 0 instructions: 1680000261 cycles: 4882969356 heartbeat IPC: 0.4054 cumulative IPC: 0.3441 (Simulation time: 07 hr 47 min 01 sec)
Heartbeat CPU 0 instructions: 1690000261 cycles: 4897701041 heartbeat IPC: 0.6788 cumulative IPC: 0.3451 (Simulation time: 07 hr 48 min 29 sec)
Heartbeat CPU 0 instructions: 1700000265 cycles: 4912430013 heartbeat IPC: 0.6789 cumulative IPC: 0.3461 (Simulation time: 07 hr 50 min 00 sec)
Heartbeat CPU 0 instructions: 1710000266 cycles: 4927061791 heartbeat IPC: 0.6834 cumulative IPC: 0.3471 (Simulation time: 07 hr 51 min 15 sec)
[ERROR_CYCLE] Error added at CPU cycle 4937268071, interval 70, pending count: 1
[DRAM_CYCLE_ERROR] Cycle-based error applied! address=0x4c94a0fc6 additional_latency=2459910500 cycles
Heartbeat CPU 0 instructions: 1720000269 cycles: 4951682865 heartbeat IPC: 0.4062 cumulative IPC: 0.3474 (Simulation time: 07 hr 53 min 15 sec)
Heartbeat CPU 0 instructions: 1730000270 cycles: 4966603360 heartbeat IPC: 0.6702 cumulative IPC: 0.3483 (Simulation time: 07 hr 54 min 58 sec)
Heartbeat CPU 0 instructions: 1740000273 cycles: 4981133282 heartbeat IPC: 0.6882 cumulative IPC: 0.3493 (Simulation time: 07 hr 56 min 46 sec)
Heartbeat CPU 0 instructions: 1750000274 cycles: 4995742195 heartbeat IPC: 0.6845 cumulative IPC: 0.3503 (Simulation time: 07 hr 58 min 20 sec)
[ERROR_CYCLE] Error added at CPU cycle 5007800472, interval 71, pending count: 1
[DRAM_CYCLE_ERROR] Cycle-based error applied! address=0x108a89de0 additional_latency=2459910500 cycles
Heartbeat CPU 0 instructions: 1760000274 cycles: 5020450849 heartbeat IPC: 0.4047 cumulative IPC: 0.3506 (Simulation time: 08 hr 00 min 47 sec)
Heartbeat CPU 0 instructions: 1770000277 cycles: 5035313482 heartbeat IPC: 0.6728 cumulative IPC: 0.3515 (Simulation time: 08 hr 02 min 36 sec)
Heartbeat CPU 0 instructions: 1780000279 cycles: 5049987819 heartbeat IPC: 0.6815 cumulative IPC: 0.3525 (Simulation time: 08 hr 04 min 11 sec)
Heartbeat CPU 0 instructions: 1790000283 cycles: 5064632416 heartbeat IPC: 0.6828 cumulative IPC: 0.3534 (Simulation time: 08 hr 05 min 49 sec)
[ERROR_CYCLE] Error added at CPU cycle 5078332872, interval 72, pending count: 1
[DRAM_CYCLE_ERROR] Cycle-based error applied! address=0x68fdba898 additional_latency=2459910500 cycles
Heartbeat CPU 0 instructions: 1800000284 cycles: 5079329031 heartbeat IPC: 0.6804 cumulative IPC: 0.3544 (Simulation time: 08 hr 07 min 20 sec)
Heartbeat CPU 0 instructions: 1810000288 cycles: 5093911884 heartbeat IPC: 0.6857 cumulative IPC: 0.3553 (Simulation time: 08 hr 08 min 44 sec)
Heartbeat CPU 0 instructions: 1820000288 cycles: 5108773744 heartbeat IPC: 0.6729 cumulative IPC: 0.3562 (Simulation time: 08 hr 10 min 14 sec)
Heartbeat CPU 0 instructions: 1830000289 cycles: 5123345365 heartbeat IPC: 0.6863 cumulative IPC: 0.3572 (Simulation time: 08 hr 11 min 51 sec)
Heartbeat CPU 0 instructions: 1840000289 cycles: 5137982361 heartbeat IPC: 0.6832 cumulative IPC: 0.3581 (Simulation time: 08 hr 13 min 38 sec)
[ERROR_CYCLE] Error added at CPU cycle 5148865273, interval 73, pending count: 1
[DRAM_CYCLE_ERROR] Cycle-based error applied! address=0xc322d748 additional_latency=2459910500 cycles
Heartbeat CPU 0 instructions: 1850000292 cycles: 5162528290 heartbeat IPC: 0.4074 cumulative IPC: 0.3584 (Simulation time: 08 hr 15 min 58 sec)
Heartbeat CPU 0 instructions: 1860000292 cycles: 5177252706 heartbeat IPC: 0.6791 cumulative IPC: 0.3593 (Simulation time: 08 hr 17 min 37 sec)
Heartbeat CPU 0 instructions: 1870000296 cycles: 5192010611 heartbeat IPC: 0.6776 cumulative IPC: 0.3602 (Simulation time: 08 hr 19 min 02 sec)
Heartbeat CPU 0 instructions: 1880000298 cycles: 5206660490 heartbeat IPC: 0.6826 cumulative IPC: 0.3611 (Simulation time: 08 hr 20 min 27 sec)
[ERROR_CYCLE] Error added at CPU cycle 5219397675, interval 74, pending count: 1
[DRAM_CYCLE_ERROR] Cycle-based error applied! address=0x77ed0cb94 additional_latency=2459910500 cycles
Heartbeat CPU 0 instructions: 1890000302 cycles: 5221211171 heartbeat IPC: 0.6873 cumulative IPC: 0.362 (Simulation time: 08 hr 21 min 53 sec)
Heartbeat CPU 0 instructions: 1900000302 cycles: 5235806377 heartbeat IPC: 0.6852 cumulative IPC: 0.3629 (Simulation time: 08 hr 23 min 39 sec)
Heartbeat CPU 0 instructions: 1910000305 cycles: 5250318455 heartbeat IPC: 0.6891 cumulative IPC: 0.3638 (Simulation time: 08 hr 25 min 03 sec)
Heartbeat CPU 0 instructions: 1920000307 cycles: 5265162314 heartbeat IPC: 0.6737 cumulative IPC: 0.3647 (Simulation time: 08 hr 26 min 29 sec)
Heartbeat CPU 0 instructions: 1930000310 cycles: 5279964513 heartbeat IPC: 0.6756 cumulative IPC: 0.3655 (Simulation time: 08 hr 27 min 53 sec)
[ERROR_CYCLE] Error added at CPU cycle 5289930076, interval 75, pending count: 1
[DRAM_CYCLE_ERROR] Cycle-based error applied! address=0x5d5919b20 additional_latency=2459910500 cycles
Simulation CPU 0 critical: IPC 0.017778 < 0.02
Heartbeat CPU 0 instructions: 1940000310 cycles: 5304439464 heartbeat IPC: 0.4086 cumulative IPC: 0.3657 (Simulation time: 08 hr 30 min 21 sec)
Heartbeat CPU 0 instructions: 1950000311 cycles: 5319098954 heartbeat IPC: 0.6822 cumulative IPC: 0.3666 (Simulation time: 08 hr 32 min 10 sec)
Heartbeat CPU 0 instructions: 1960000313 cycles: 5333596849 heartbeat IPC: 0.6898 cumulative IPC: 0.3675 (Simulation time: 08 hr 33 min 58 sec)
Heartbeat CPU 0 instructions: 1970000313 cycles: 5348133377 heartbeat IPC: 0.6879 cumulative IPC: 0.3684 (Simulation time: 08 hr 35 min 30 sec)
[ERROR_CYCLE] Error added at CPU cycle 5360462476, interval 76, pending count: 1
[DRAM_CYCLE_ERROR] Cycle-based error applied! address=0x45a30dc76 additional_latency=2459910500 cycles
Simulation CPU 0 warning: IPC 0.032488 < 0.05
Heartbeat CPU 0 instructions: 1980000314 cycles: 5372524465 heartbeat IPC: 0.41 cumulative IPC: 0.3685 (Simulation time: 08 hr 37 min 36 sec)
Heartbeat CPU 0 instructions: 1990000314 cycles: 5386979056 heartbeat IPC: 0.6918 cumulative IPC: 0.3694 (Simulation time: 08 hr 38 min 59 sec)

=== ERROR PAGE STATISTICS ===
Mode: CYCLE
Error Cycle Interval: 70532401 CPU cycles
Total Error Accesses: 76
==============================
Simulation finished CPU 0 instructions: 1999999986 cycles: 5401414896 cumulative IPC: 0.3703 (Simulation time: 08 hr 40 min 27 sec)
Simulation complete CPU 0 instructions: 1999999986 cycles: 5401414896 cumulative IPC: 0.3703 (Simulation time: 08 hr 40 min 27 sec)

ChampSim completed all CPUs

=== Simulation ===
CPU 0 runs test_traces/620.omnetpp_s-141B.champsimtrace.xz

Region of Interest Statistics

CPU 0 cumulative IPC: 0.3703 instructions: 1999999986 cycles: 5401414896
CPU 0 Branch Prediction Accuracy: 92.96% MPKI: 14.8 Average ROB Occupancy at Mispredict: 42.45
Branch type MPKI
BRANCH_DIRECT_JUMP: 0.8484
BRANCH_INDIRECT: 0.3555
BRANCH_CONDITIONAL: 12.32
BRANCH_DIRECT_CALL: 0.0001295
BRANCH_INDIRECT_CALL: 0.8457
BRANCH_RETURN: 0.4309

cpu0->cpu0_STLB TOTAL        ACCESS:    7943762 HIT:    7943535 MISS:        227 MSHR_MERGE:          0
cpu0->cpu0_STLB LOAD         ACCESS:    7943762 HIT:    7943535 MISS:        227 MSHR_MERGE:          0
cpu0->cpu0_STLB RFO          ACCESS:          0 HIT:          0 MISS:          0 MSHR_MERGE:          0
cpu0->cpu0_STLB PREFETCH     ACCESS:          0 HIT:          0 MISS:          0 MSHR_MERGE:          0
cpu0->cpu0_STLB WRITE        ACCESS:          0 HIT:          0 MISS:          0 MSHR_MERGE:          0
cpu0->cpu0_STLB TRANSLATION  ACCESS:          0 HIT:          0 MISS:          0 MSHR_MERGE:          0
cpu0->cpu0_STLB PREFETCH REQUESTED:          0 ISSUED:          0 USEFUL:          0 USELESS:          0
cpu0->cpu0_STLB AVERAGE MISS LATENCY: 9.971e+06 cycles
cpu0->cpu0_L2C TOTAL        ACCESS:   56648396 HIT:   29476150 MISS:   27172246 MSHR_MERGE:          0
cpu0->cpu0_L2C LOAD         ACCESS:   33707152 HIT:   10164101 MISS:   23543051 MSHR_MERGE:          0
cpu0->cpu0_L2C RFO          ACCESS:    4839171 HIT:    1233022 MISS:    3606149 MSHR_MERGE:          0
cpu0->cpu0_L2C PREFETCH     ACCESS:          0 HIT:          0 MISS:          0 MSHR_MERGE:          0
cpu0->cpu0_L2C WRITE        ACCESS:   18102073 HIT:   18079027 MISS:      23046 MSHR_MERGE:          0
cpu0->cpu0_L2C TRANSLATION  ACCESS:          0 HIT:          0 MISS:          0 MSHR_MERGE:          0
cpu0->cpu0_L2C PREFETCH REQUESTED:          0 ISSUED:          0 USEFUL:          0 USELESS:          0
cpu0->cpu0_L2C AVERAGE MISS LATENCY: 105.7 cycles
cpu0->cpu0_L1I TOTAL        ACCESS:  267256114 HIT:  265533272 MISS:    1722842 MSHR_MERGE:     435754
cpu0->cpu0_L1I LOAD         ACCESS:  267256114 HIT:  265533272 MISS:    1722842 MSHR_MERGE:     435754
cpu0->cpu0_L1I RFO          ACCESS:          0 HIT:          0 MISS:          0 MSHR_MERGE:          0
cpu0->cpu0_L1I PREFETCH     ACCESS:          0 HIT:          0 MISS:          0 MSHR_MERGE:          0
cpu0->cpu0_L1I WRITE        ACCESS:          0 HIT:          0 MISS:          0 MSHR_MERGE:          0
cpu0->cpu0_L1I TRANSLATION  ACCESS:          0 HIT:          0 MISS:          0 MSHR_MERGE:          0
cpu0->cpu0_L1I PREFETCH REQUESTED:          0 ISSUED:          0 USEFUL:          0 USELESS:          0
cpu0->cpu0_L1I AVERAGE MISS LATENCY: 15.91 cycles
cpu0->cpu0_L1D TOTAL        ACCESS:  808784022 HIT:  751459782 MISS:   57324240 MSHR_MERGE:   20064869
cpu0->cpu0_L1D LOAD         ACCESS:  441101907 HIT:  397760544 MISS:   43341363 MSHR_MERGE:   10921211
cpu0->cpu0_L1D RFO          ACCESS:          0 HIT:          0 MISS:          0 MSHR_MERGE:          0
cpu0->cpu0_L1D PREFETCH     ACCESS:          0 HIT:          0 MISS:          0 MSHR_MERGE:          0
cpu0->cpu0_L1D WRITE        ACCESS:  367682115 HIT:  353699238 MISS:   13982877 MSHR_MERGE:    9143658
cpu0->cpu0_L1D TRANSLATION  ACCESS:          0 HIT:          0 MISS:          0 MSHR_MERGE:          0
cpu0->cpu0_L1D PREFETCH REQUESTED:          0 ISSUED:          0 USEFUL:          0 USELESS:          0
cpu0->cpu0_L1D AVERAGE MISS LATENCY: 85.6 cycles
cpu0->cpu0_ITLB TOTAL        ACCESS:  234322585 HIT:  234322581 MISS:          4 MSHR_MERGE:          1
cpu0->cpu0_ITLB LOAD         ACCESS:  234322585 HIT:  234322581 MISS:          4 MSHR_MERGE:          1
cpu0->cpu0_ITLB RFO          ACCESS:          0 HIT:          0 MISS:          0 MSHR_MERGE:          0
cpu0->cpu0_ITLB PREFETCH     ACCESS:          0 HIT:          0 MISS:          0 MSHR_MERGE:          0
cpu0->cpu0_ITLB WRITE        ACCESS:          0 HIT:          0 MISS:          0 MSHR_MERGE:          0
cpu0->cpu0_ITLB TRANSLATION  ACCESS:          0 HIT:          0 MISS:          0 MSHR_MERGE:          0
cpu0->cpu0_ITLB PREFETCH REQUESTED:          0 ISSUED:          0 USEFUL:          0 USELESS:          0
cpu0->cpu0_ITLB AVERAGE MISS LATENCY: 1.232e+07 cycles
cpu0->cpu0_DTLB TOTAL        ACCESS:  689732469 HIT:  680449483 MISS:    9282986 MSHR_MERGE:    1339227
cpu0->cpu0_DTLB LOAD         ACCESS:  689732469 HIT:  680449483 MISS:    9282986 MSHR_MERGE:    1339227
cpu0->cpu0_DTLB RFO          ACCESS:          0 HIT:          0 MISS:          0 MSHR_MERGE:          0
cpu0->cpu0_DTLB PREFETCH     ACCESS:          0 HIT:          0 MISS:          0 MSHR_MERGE:          0
cpu0->cpu0_DTLB WRITE        ACCESS:          0 HIT:          0 MISS:          0 MSHR_MERGE:          0
cpu0->cpu0_DTLB TRANSLATION  ACCESS:          0 HIT:          0 MISS:          0 MSHR_MERGE:          0
cpu0->cpu0_DTLB PREFETCH REQUESTED:          0 ISSUED:          0 USEFUL:          0 USELESS:          0
cpu0->cpu0_DTLB AVERAGE MISS LATENCY: 285.3 cycles
cpu0->LLC TOTAL        ACCESS:   40303097 HIT:   19732416 MISS:   20570681 MSHR_MERGE:          0
cpu0->LLC LOAD         ACCESS:   23543049 HIT:    5179976 MISS:   18363073 MSHR_MERGE:          0
cpu0->LLC RFO          ACCESS:    3606149 HIT:    1446358 MISS:    2159791 MSHR_MERGE:          0
cpu0->LLC PREFETCH     ACCESS:          0 HIT:          0 MISS:          0 MSHR_MERGE:          0
cpu0->LLC WRITE        ACCESS:   13153899 HIT:   13106082 MISS:      47817 MSHR_MERGE:          0
cpu0->LLC TRANSLATION  ACCESS:          0 HIT:          0 MISS:          0 MSHR_MERGE:          0
cpu0->LLC PREFETCH REQUESTED:          0 ISSUED:          0 USEFUL:          0 USELESS:          0
cpu0->LLC AVERAGE MISS LATENCY: 118.9 cycles

DRAM Statistics

Channel 0 RQ ROW_BUFFER_HIT:     357788
  ROW_BUFFER_MISS:    9895074
  AVG DBUS CONGESTED CYCLE: 13.54
Channel 0 WQ ROW_BUFFER_HIT:     752592
  ROW_BUFFER_MISS:    3990239
  FULL:          0
Channel 0 REFRESHES ISSUED:     450089

Channel 1 RQ ROW_BUFFER_HIT:     365392
  ROW_BUFFER_MISS:    9905040
  AVG DBUS CONGESTED CYCLE: 13.58
Channel 1 WQ ROW_BUFFER_HIT:     756878
  ROW_BUFFER_MISS:    4002136
  FULL:          0
Channel 1 REFRESHES ISSUED:     450089
