[VMEM] WARNING: physical memory size is smaller than virtual memory size.

*** ChampSim Multicore Out-of-Order Simulator ***
Warmup Instructions: 0
Simulation Instructions: 9223372036854775807
Number of CPUs: 1
Page size: 4096

Off-chip DRAM Size: 128 GiB Channels: 2 Width: 32-bit Data Rate: 4807 MT/s
[ERROR_PAGE_MANAGER] Error latency: 173500 
[ERROR_PAGE_MANAGER] Random seed: 54321 (fixed for preload reproducibility)
[ERROR_PAGE_MANAGER] Cycle-based error modeling enabled
[ERROR_PAGE_MANAGER] Errors per interval: 1
[ERROR_PAGE_MANAGER] Error cycle interval: 257630478 cycles

=== ERROR PAGE STATISTICS ===
Mode: CYCLE
Error Cycle Interval: 257630478 CPU cycles
Total Error Accesses: 0
==============================
Warmup finished CPU 0 instructions: 0 cycles: 1 cumulative IPC: 0 (Simulation time: 00 hr 00 min 02 sec)
Warmup complete CPU 0 instructions: 0 cycles: 1 cumulative IPC: 0 (Simulation time: 00 hr 00 min 02 sec)
Heartbeat CPU 0 instructions: 10000001 cycles: 16248774 heartbeat IPC: 0.6154 cumulative IPC: 0.6154 (Simulation time: 00 hr 02 min 24 sec)
Heartbeat CPU 0 instructions: 20000004 cycles: 32441360 heartbeat IPC: 0.6176 cumulative IPC: 0.6165 (Simulation time: 00 hr 04 min 47 sec)
Heartbeat CPU 0 instructions: 30000005 cycles: 48642921 heartbeat IPC: 0.6172 cumulative IPC: 0.6167 (Simulation time: 00 hr 06 min 50 sec)
Heartbeat CPU 0 instructions: 40000005 cycles: 64847294 heartbeat IPC: 0.6171 cumulative IPC: 0.6168 (Simulation time: 00 hr 08 min 59 sec)
Heartbeat CPU 0 instructions: 50000005 cycles: 81057413 heartbeat IPC: 0.6169 cumulative IPC: 0.6168 (Simulation time: 00 hr 10 min 57 sec)
Heartbeat CPU 0 instructions: 60000005 cycles: 97252319 heartbeat IPC: 0.6175 cumulative IPC: 0.617 (Simulation time: 00 hr 12 min 57 sec)
Heartbeat CPU 0 instructions: 70000005 cycles: 113449240 heartbeat IPC: 0.6174 cumulative IPC: 0.617 (Simulation time: 00 hr 15 min 22 sec)
Heartbeat CPU 0 instructions: 80000007 cycles: 129613427 heartbeat IPC: 0.6187 cumulative IPC: 0.6172 (Simulation time: 00 hr 17 min 48 sec)
Heartbeat CPU 0 instructions: 90000010 cycles: 145809422 heartbeat IPC: 0.6174 cumulative IPC: 0.6172 (Simulation time: 00 hr 20 min 13 sec)
Heartbeat CPU 0 instructions: 100000011 cycles: 161998395 heartbeat IPC: 0.6177 cumulative IPC: 0.6173 (Simulation time: 00 hr 22 min 33 sec)
Heartbeat CPU 0 instructions: 110000011 cycles: 178166085 heartbeat IPC: 0.6185 cumulative IPC: 0.6174 (Simulation time: 00 hr 24 min 34 sec)
Heartbeat CPU 0 instructions: 120000015 cycles: 194348392 heartbeat IPC: 0.618 cumulative IPC: 0.6174 (Simulation time: 00 hr 26 min 57 sec)
Heartbeat CPU 0 instructions: 130000019 cycles: 210547964 heartbeat IPC: 0.6173 cumulative IPC: 0.6174 (Simulation time: 00 hr 29 min 20 sec)
Heartbeat CPU 0 instructions: 140000021 cycles: 226715581 heartbeat IPC: 0.6185 cumulative IPC: 0.6175 (Simulation time: 00 hr 31 min 45 sec)
Heartbeat CPU 0 instructions: 150000023 cycles: 242892886 heartbeat IPC: 0.6182 cumulative IPC: 0.6176 (Simulation time: 00 hr 34 min 10 sec)
[ERROR_CYCLE] Error added at CPU cycle 257630478, interval 1, pending count: 1
[DRAM_CYCLE_ERROR] Cycle-based error applied! address=0x50df0fc40 additional_latency=173500 cycles
Heartbeat CPU 0 instructions: 160000025 cycles: 259089273 heartbeat IPC: 0.6174 cumulative IPC: 0.6175 (Simulation time: 00 hr 35 min 55 sec)
Heartbeat CPU 0 instructions: 170000026 cycles: 275243912 heartbeat IPC: 0.619 cumulative IPC: 0.6176 (Simulation time: 00 hr 38 min 20 sec)
Heartbeat CPU 0 instructions: 180000027 cycles: 291430205 heartbeat IPC: 0.6178 cumulative IPC: 0.6176 (Simulation time: 00 hr 40 min 44 sec)
Heartbeat CPU 0 instructions: 190000028 cycles: 307626938 heartbeat IPC: 0.6174 cumulative IPC: 0.6176 (Simulation time: 00 hr 43 min 00 sec)
Heartbeat CPU 0 instructions: 200000029 cycles: 323789495 heartbeat IPC: 0.6187 cumulative IPC: 0.6177 (Simulation time: 00 hr 44 min 44 sec)
Heartbeat CPU 0 instructions: 210000029 cycles: 339964264 heartbeat IPC: 0.6182 cumulative IPC: 0.6177 (Simulation time: 00 hr 46 min 55 sec)
Heartbeat CPU 0 instructions: 220000031 cycles: 356132705 heartbeat IPC: 0.6185 cumulative IPC: 0.6177 (Simulation time: 00 hr 49 min 02 sec)
Heartbeat CPU 0 instructions: 230000034 cycles: 372303365 heartbeat IPC: 0.6184 cumulative IPC: 0.6178 (Simulation time: 00 hr 51 min 12 sec)
Heartbeat CPU 0 instructions: 240000034 cycles: 388494928 heartbeat IPC: 0.6176 cumulative IPC: 0.6178 (Simulation time: 00 hr 53 min 32 sec)
Heartbeat CPU 0 instructions: 250000034 cycles: 404673748 heartbeat IPC: 0.6181 cumulative IPC: 0.6178 (Simulation time: 00 hr 55 min 39 sec)
Heartbeat CPU 0 instructions: 260000035 cycles: 420863901 heartbeat IPC: 0.6177 cumulative IPC: 0.6178 (Simulation time: 00 hr 57 min 38 sec)
Heartbeat CPU 0 instructions: 270000036 cycles: 437049309 heartbeat IPC: 0.6178 cumulative IPC: 0.6178 (Simulation time: 00 hr 59 min 54 sec)
Heartbeat CPU 0 instructions: 280000040 cycles: 469512788 heartbeat IPC: 0.308 cumulative IPC: 0.5964 (Simulation time: 01 hr 04 min 30 sec)
Heartbeat CPU 0 instructions: 290000043 cycles: 501807511 heartbeat IPC: 0.3096 cumulative IPC: 0.5779 (Simulation time: 01 hr 09 min 30 sec)
[ERROR_CYCLE] Error added at CPU cycle 515260956, interval 2, pending count: 1
[DRAM_CYCLE_ERROR] Cycle-based error applied! address=0x16ea1dab88 additional_latency=173500 cycles
Heartbeat CPU 0 instructions: 300000043 cycles: 518622240 heartbeat IPC: 0.5947 cumulative IPC: 0.5785 (Simulation time: 01 hr 11 min 47 sec)
Heartbeat CPU 0 instructions: 310000044 cycles: 534724943 heartbeat IPC: 0.621 cumulative IPC: 0.5797 (Simulation time: 01 hr 13 min 46 sec)
Heartbeat CPU 0 instructions: 320000044 cycles: 550832333 heartbeat IPC: 0.6208 cumulative IPC: 0.5809 (Simulation time: 01 hr 15 min 29 sec)
Heartbeat CPU 0 instructions: 330000045 cycles: 566057594 heartbeat IPC: 0.6568 cumulative IPC: 0.583 (Simulation time: 01 hr 17 min 40 sec)
Heartbeat CPU 0 instructions: 340000046 cycles: 579408363 heartbeat IPC: 0.749 cumulative IPC: 0.5868 (Simulation time: 01 hr 19 min 39 sec)
Heartbeat CPU 0 instructions: 350000047 cycles: 592729523 heartbeat IPC: 0.7507 cumulative IPC: 0.5905 (Simulation time: 01 hr 21 min 19 sec)
Heartbeat CPU 0 instructions: 360000047 cycles: 606079568 heartbeat IPC: 0.7491 cumulative IPC: 0.594 (Simulation time: 01 hr 23 min 09 sec)
Heartbeat CPU 0 instructions: 370000049 cycles: 619411284 heartbeat IPC: 0.7501 cumulative IPC: 0.5973 (Simulation time: 01 hr 25 min 06 sec)
Heartbeat CPU 0 instructions: 380000053 cycles: 632748872 heartbeat IPC: 0.7498 cumulative IPC: 0.6006 (Simulation time: 01 hr 27 min 05 sec)
Heartbeat CPU 0 instructions: 390000054 cycles: 646081056 heartbeat IPC: 0.7501 cumulative IPC: 0.6036 (Simulation time: 01 hr 28 min 39 sec)
Heartbeat CPU 0 instructions: 400000058 cycles: 659420418 heartbeat IPC: 0.7497 cumulative IPC: 0.6066 (Simulation time: 01 hr 30 min 14 sec)
Heartbeat CPU 0 instructions: 410000061 cycles: 672737520 heartbeat IPC: 0.7509 cumulative IPC: 0.6095 (Simulation time: 01 hr 32 min 13 sec)
Heartbeat CPU 0 instructions: 420000061 cycles: 686051308 heartbeat IPC: 0.7511 cumulative IPC: 0.6122 (Simulation time: 01 hr 34 min 15 sec)
Heartbeat CPU 0 instructions: 430000064 cycles: 699371369 heartbeat IPC: 0.7507 cumulative IPC: 0.6148 (Simulation time: 01 hr 36 min 13 sec)
Heartbeat CPU 0 instructions: 440000067 cycles: 712705024 heartbeat IPC: 0.75 cumulative IPC: 0.6174 (Simulation time: 01 hr 37 min 50 sec)
Heartbeat CPU 0 instructions: 450000069 cycles: 726032835 heartbeat IPC: 0.7503 cumulative IPC: 0.6198 (Simulation time: 01 hr 39 min 37 sec)
Heartbeat CPU 0 instructions: 460000072 cycles: 739364086 heartbeat IPC: 0.7501 cumulative IPC: 0.6222 (Simulation time: 01 hr 41 min 40 sec)
Heartbeat CPU 0 instructions: 470000076 cycles: 752673076 heartbeat IPC: 0.7514 cumulative IPC: 0.6244 (Simulation time: 01 hr 43 min 42 sec)
Heartbeat CPU 0 instructions: 480000078 cycles: 765989134 heartbeat IPC: 0.751 cumulative IPC: 0.6266 (Simulation time: 01 hr 45 min 43 sec)
[ERROR_CYCLE] Error added at CPU cycle 772891435, interval 3, pending count: 1
[DRAM_CYCLE_ERROR] Cycle-based error applied! address=0x237cbeec0 additional_latency=173500 cycles
Heartbeat CPU 0 instructions: 490000081 cycles: 779309452 heartbeat IPC: 0.7507 cumulative IPC: 0.6288 (Simulation time: 01 hr 47 min 38 sec)
Heartbeat CPU 0 instructions: 500000084 cycles: 792630149 heartbeat IPC: 0.7507 cumulative IPC: 0.6308 (Simulation time: 01 hr 49 min 39 sec)
Heartbeat CPU 0 instructions: 510000088 cycles: 805969221 heartbeat IPC: 0.7497 cumulative IPC: 0.6328 (Simulation time: 01 hr 51 min 41 sec)
Heartbeat CPU 0 instructions: 520000092 cycles: 819308113 heartbeat IPC: 0.7497 cumulative IPC: 0.6347 (Simulation time: 01 hr 53 min 37 sec)
Heartbeat CPU 0 instructions: 530000092 cycles: 832637330 heartbeat IPC: 0.7502 cumulative IPC: 0.6365 (Simulation time: 01 hr 55 min 21 sec)
Heartbeat CPU 0 instructions: 540000093 cycles: 845965936 heartbeat IPC: 0.7503 cumulative IPC: 0.6383 (Simulation time: 01 hr 56 min 41 sec)
Heartbeat CPU 0 instructions: 550000095 cycles: 859293902 heartbeat IPC: 0.7503 cumulative IPC: 0.6401 (Simulation time: 01 hr 58 min 05 sec)
Heartbeat CPU 0 instructions: 560000095 cycles: 872621255 heartbeat IPC: 0.7503 cumulative IPC: 0.6417 (Simulation time: 01 hr 59 min 26 sec)
Heartbeat CPU 0 instructions: 570000095 cycles: 885957841 heartbeat IPC: 0.7498 cumulative IPC: 0.6434 (Simulation time: 02 hr 00 min 49 sec)
Heartbeat CPU 0 instructions: 580000096 cycles: 899292562 heartbeat IPC: 0.7499 cumulative IPC: 0.645 (Simulation time: 02 hr 02 min 47 sec)
Heartbeat CPU 0 instructions: 590000096 cycles: 912636807 heartbeat IPC: 0.7494 cumulative IPC: 0.6465 (Simulation time: 02 hr 04 min 28 sec)
Heartbeat CPU 0 instructions: 600000100 cycles: 925970844 heartbeat IPC: 0.75 cumulative IPC: 0.648 (Simulation time: 02 hr 06 min 19 sec)
Heartbeat CPU 0 instructions: 610000100 cycles: 938886552 heartbeat IPC: 0.7743 cumulative IPC: 0.6497 (Simulation time: 02 hr 08 min 18 sec)
Heartbeat CPU 0 instructions: 620000102 cycles: 950752257 heartbeat IPC: 0.8428 cumulative IPC: 0.6521 (Simulation time: 02 hr 09 min 58 sec)
Heartbeat CPU 0 instructions: 630000106 cycles: 962623388 heartbeat IPC: 0.8424 cumulative IPC: 0.6545 (Simulation time: 02 hr 11 min 21 sec)
Heartbeat CPU 0 instructions: 640000110 cycles: 974479678 heartbeat IPC: 0.8434 cumulative IPC: 0.6568 (Simulation time: 02 hr 12 min 56 sec)
Heartbeat CPU 0 instructions: 650000111 cycles: 986369080 heartbeat IPC: 0.8411 cumulative IPC: 0.659 (Simulation time: 02 hr 14 min 10 sec)
Heartbeat CPU 0 instructions: 660000112 cycles: 998219500 heartbeat IPC: 0.8439 cumulative IPC: 0.6612 (Simulation time: 02 hr 16 min 03 sec)
Heartbeat CPU 0 instructions: 670000112 cycles: 1010100411 heartbeat IPC: 0.8417 cumulative IPC: 0.6633 (Simulation time: 02 hr 17 min 58 sec)
Heartbeat CPU 0 instructions: 680000115 cycles: 1022112407 heartbeat IPC: 0.8325 cumulative IPC: 0.6653 (Simulation time: 02 hr 19 min 53 sec)
[ERROR_CYCLE] Error added at CPU cycle 1030521912, interval 4, pending count: 1
[DRAM_CYCLE_ERROR] Cycle-based error applied! address=0x2654e7200 additional_latency=173500 cycles
Heartbeat CPU 0 instructions: 690000119 cycles: 1034379423 heartbeat IPC: 0.8152 cumulative IPC: 0.6671 (Simulation time: 02 hr 21 min 48 sec)
Heartbeat CPU 0 instructions: 700000119 cycles: 1045931522 heartbeat IPC: 0.8656 cumulative IPC: 0.6693 (Simulation time: 02 hr 23 min 38 sec)
Heartbeat CPU 0 instructions: 710000122 cycles: 1057495069 heartbeat IPC: 0.8648 cumulative IPC: 0.6714 (Simulation time: 02 hr 25 min 28 sec)
Heartbeat CPU 0 instructions: 720000126 cycles: 1069040551 heartbeat IPC: 0.8661 cumulative IPC: 0.6735 (Simulation time: 02 hr 27 min 18 sec)
Heartbeat CPU 0 instructions: 730000128 cycles: 1080635000 heartbeat IPC: 0.8625 cumulative IPC: 0.6755 (Simulation time: 02 hr 29 min 09 sec)
Heartbeat CPU 0 instructions: 740000129 cycles: 1092169521 heartbeat IPC: 0.867 cumulative IPC: 0.6776 (Simulation time: 02 hr 30 min 59 sec)
Heartbeat CPU 0 instructions: 750000133 cycles: 1103726071 heartbeat IPC: 0.8653 cumulative IPC: 0.6795 (Simulation time: 02 hr 32 min 49 sec)
Heartbeat CPU 0 instructions: 760000135 cycles: 1115310124 heartbeat IPC: 0.8633 cumulative IPC: 0.6814 (Simulation time: 02 hr 34 min 38 sec)
Heartbeat CPU 0 instructions: 770000139 cycles: 1127004138 heartbeat IPC: 0.8551 cumulative IPC: 0.6832 (Simulation time: 02 hr 35 min 55 sec)
Heartbeat CPU 0 instructions: 780000140 cycles: 1139969885 heartbeat IPC: 0.7713 cumulative IPC: 0.6842 (Simulation time: 02 hr 37 min 16 sec)
Heartbeat CPU 0 instructions: 790000143 cycles: 1152934351 heartbeat IPC: 0.7713 cumulative IPC: 0.6852 (Simulation time: 02 hr 38 min 38 sec)
Heartbeat CPU 0 instructions: 800000147 cycles: 1165827357 heartbeat IPC: 0.7756 cumulative IPC: 0.6862 (Simulation time: 02 hr 39 min 58 sec)
Heartbeat CPU 0 instructions: 810000150 cycles: 1178694473 heartbeat IPC: 0.7772 cumulative IPC: 0.6872 (Simulation time: 02 hr 41 min 28 sec)
Heartbeat CPU 0 instructions: 820000150 cycles: 1191169564 heartbeat IPC: 0.8016 cumulative IPC: 0.6884 (Simulation time: 02 hr 42 min 43 sec)
Heartbeat CPU 0 instructions: 830000153 cycles: 1203556716 heartbeat IPC: 0.8073 cumulative IPC: 0.6896 (Simulation time: 02 hr 44 min 01 sec)
Heartbeat CPU 0 instructions: 840000155 cycles: 1215961629 heartbeat IPC: 0.8061 cumulative IPC: 0.6908 (Simulation time: 02 hr 45 min 56 sec)
Heartbeat CPU 0 instructions: 850000155 cycles: 1228365931 heartbeat IPC: 0.8062 cumulative IPC: 0.692 (Simulation time: 02 hr 47 min 51 sec)
Heartbeat CPU 0 instructions: 860000159 cycles: 1241019973 heartbeat IPC: 0.7903 cumulative IPC: 0.693 (Simulation time: 02 hr 49 min 48 sec)
Heartbeat CPU 0 instructions: 870000160 cycles: 1253886046 heartbeat IPC: 0.7772 cumulative IPC: 0.6938 (Simulation time: 02 hr 51 min 47 sec)
Heartbeat CPU 0 instructions: 880000162 cycles: 1266750067 heartbeat IPC: 0.7774 cumulative IPC: 0.6947 (Simulation time: 02 hr 53 min 47 sec)
Heartbeat CPU 0 instructions: 890000163 cycles: 1279633112 heartbeat IPC: 0.7762 cumulative IPC: 0.6955 (Simulation time: 02 hr 55 min 46 sec)
[ERROR_CYCLE] Error added at CPU cycle 1288152391, interval 5, pending count: 1
[DRAM_CYCLE_ERROR] Cycle-based error applied! address=0x10f2628040 additional_latency=173500 cycles
Heartbeat CPU 0 instructions: 900000165 cycles: 1292395134 heartbeat IPC: 0.7836 cumulative IPC: 0.6964 (Simulation time: 02 hr 57 min 45 sec)
Heartbeat CPU 0 instructions: 910000165 cycles: 1304900373 heartbeat IPC: 0.7997 cumulative IPC: 0.6974 (Simulation time: 02 hr 59 min 42 sec)
Heartbeat CPU 0 instructions: 920000166 cycles: 1317366863 heartbeat IPC: 0.8022 cumulative IPC: 0.6984 (Simulation time: 03 hr 01 min 29 sec)
Heartbeat CPU 0 instructions: 930000166 cycles: 1329726213 heartbeat IPC: 0.8091 cumulative IPC: 0.6994 (Simulation time: 03 hr 02 min 45 sec)
Heartbeat CPU 0 instructions: 940000168 cycles: 1342149444 heartbeat IPC: 0.8049 cumulative IPC: 0.7004 (Simulation time: 03 hr 04 min 13 sec)
Heartbeat CPU 0 instructions: 950000171 cycles: 1355104300 heartbeat IPC: 0.7719 cumulative IPC: 0.7011 (Simulation time: 03 hr 05 min 55 sec)
Heartbeat CPU 0 instructions: 960000173 cycles: 1368066788 heartbeat IPC: 0.7715 cumulative IPC: 0.7017 (Simulation time: 03 hr 07 min 54 sec)
Heartbeat CPU 0 instructions: 970000177 cycles: 1380966991 heartbeat IPC: 0.7752 cumulative IPC: 0.7024 (Simulation time: 03 hr 09 min 25 sec)
Heartbeat CPU 0 instructions: 980000179 cycles: 1393851126 heartbeat IPC: 0.7761 cumulative IPC: 0.7031 (Simulation time: 03 hr 10 min 46 sec)
Heartbeat CPU 0 instructions: 990000181 cycles: 1406350680 heartbeat IPC: 0.8 cumulative IPC: 0.7039 (Simulation time: 03 hr 12 min 01 sec)
Heartbeat CPU 0 instructions: 1000000185 cycles: 1418764436 heartbeat IPC: 0.8056 cumulative IPC: 0.7048 (Simulation time: 03 hr 13 min 26 sec)
Heartbeat CPU 0 instructions: 1010000189 cycles: 1431216149 heartbeat IPC: 0.8031 cumulative IPC: 0.7057 (Simulation time: 03 hr 14 min 49 sec)
Heartbeat CPU 0 instructions: 1020000192 cycles: 1443628001 heartbeat IPC: 0.8057 cumulative IPC: 0.7066 (Simulation time: 03 hr 16 min 28 sec)
Heartbeat CPU 0 instructions: 1030000192 cycles: 1458009237 heartbeat IPC: 0.6954 cumulative IPC: 0.7064 (Simulation time: 03 hr 18 min 04 sec)
Heartbeat CPU 0 instructions: 1040000192 cycles: 1470933161 heartbeat IPC: 0.7738 cumulative IPC: 0.707 (Simulation time: 03 hr 19 min 21 sec)
Heartbeat CPU 0 instructions: 1050000195 cycles: 1483476286 heartbeat IPC: 0.7972 cumulative IPC: 0.7078 (Simulation time: 03 hr 20 min 40 sec)
Heartbeat CPU 0 instructions: 1060000198 cycles: 1496053398 heartbeat IPC: 0.7951 cumulative IPC: 0.7085 (Simulation time: 03 hr 21 min 57 sec)
Heartbeat CPU 0 instructions: 1070000202 cycles: 1508611236 heartbeat IPC: 0.7963 cumulative IPC: 0.7093 (Simulation time: 03 hr 23 min 13 sec)
Heartbeat CPU 0 instructions: 1080000203 cycles: 1521021527 heartbeat IPC: 0.8058 cumulative IPC: 0.71 (Simulation time: 03 hr 24 min 28 sec)
Heartbeat CPU 0 instructions: 1090000203 cycles: 1533244774 heartbeat IPC: 0.8181 cumulative IPC: 0.7109 (Simulation time: 03 hr 25 min 46 sec)
Heartbeat CPU 0 instructions: 1100000204 cycles: 1545452762 heartbeat IPC: 0.8191 cumulative IPC: 0.7118 (Simulation time: 03 hr 27 min 09 sec)
[ERROR_CYCLE] Error added at CPU cycle 1545782868, interval 6, pending count: 1
[DRAM_CYCLE_ERROR] Cycle-based error applied! address=0x46a004540 additional_latency=173500 cycles
Heartbeat CPU 0 instructions: 1110000206 cycles: 1557544758 heartbeat IPC: 0.827 cumulative IPC: 0.7127 (Simulation time: 03 hr 28 min 27 sec)
Heartbeat CPU 0 instructions: 1120000207 cycles: 1569701403 heartbeat IPC: 0.8226 cumulative IPC: 0.7135 (Simulation time: 03 hr 29 min 40 sec)
Heartbeat CPU 0 instructions: 1130000207 cycles: 1582330110 heartbeat IPC: 0.7918 cumulative IPC: 0.7141 (Simulation time: 03 hr 30 min 56 sec)
Heartbeat CPU 0 instructions: 1140000207 cycles: 1594931130 heartbeat IPC: 0.7936 cumulative IPC: 0.7148 (Simulation time: 03 hr 32 min 11 sec)
Heartbeat CPU 0 instructions: 1150000211 cycles: 1607511086 heartbeat IPC: 0.7949 cumulative IPC: 0.7154 (Simulation time: 03 hr 33 min 26 sec)
Heartbeat CPU 0 instructions: 1160000211 cycles: 1620080574 heartbeat IPC: 0.7956 cumulative IPC: 0.716 (Simulation time: 03 hr 34 min 40 sec)
Heartbeat CPU 0 instructions: 1170000214 cycles: 1632326625 heartbeat IPC: 0.8166 cumulative IPC: 0.7168 (Simulation time: 03 hr 35 min 55 sec)
Heartbeat CPU 0 instructions: 1180000217 cycles: 1644438532 heartbeat IPC: 0.8256 cumulative IPC: 0.7176 (Simulation time: 03 hr 37 min 11 sec)
Heartbeat CPU 0 instructions: 1190000217 cycles: 1656572486 heartbeat IPC: 0.8241 cumulative IPC: 0.7184 (Simulation time: 03 hr 38 min 24 sec)
Heartbeat CPU 0 instructions: 1200000221 cycles: 1668689715 heartbeat IPC: 0.8253 cumulative IPC: 0.7191 (Simulation time: 03 hr 39 min 36 sec)
Heartbeat CPU 0 instructions: 1210000222 cycles: 1680955563 heartbeat IPC: 0.8153 cumulative IPC: 0.7198 (Simulation time: 03 hr 40 min 49 sec)
Heartbeat CPU 0 instructions: 1220000224 cycles: 1693498158 heartbeat IPC: 0.7973 cumulative IPC: 0.7204 (Simulation time: 03 hr 42 min 03 sec)
Heartbeat CPU 0 instructions: 1230000227 cycles: 1706051018 heartbeat IPC: 0.7966 cumulative IPC: 0.721 (Simulation time: 03 hr 43 min 16 sec)
Heartbeat CPU 0 instructions: 1240000227 cycles: 1718599401 heartbeat IPC: 0.7969 cumulative IPC: 0.7215 (Simulation time: 03 hr 44 min 28 sec)
Heartbeat CPU 0 instructions: 1250000230 cycles: 1731153863 heartbeat IPC: 0.7965 cumulative IPC: 0.7221 (Simulation time: 03 hr 45 min 41 sec)
Heartbeat CPU 0 instructions: 1260000230 cycles: 1743426968 heartbeat IPC: 0.8148 cumulative IPC: 0.7227 (Simulation time: 03 hr 46 min 53 sec)
Heartbeat CPU 0 instructions: 1270000230 cycles: 1755666803 heartbeat IPC: 0.817 cumulative IPC: 0.7234 (Simulation time: 03 hr 48 min 04 sec)
Heartbeat CPU 0 instructions: 1280000234 cycles: 1767792092 heartbeat IPC: 0.8247 cumulative IPC: 0.7241 (Simulation time: 03 hr 49 min 14 sec)
Heartbeat CPU 0 instructions: 1290000235 cycles: 1779889756 heartbeat IPC: 0.8266 cumulative IPC: 0.7248 (Simulation time: 03 hr 50 min 25 sec)
[ERROR_CYCLE] Error added at CPU cycle 1803413346, interval 7, pending count: 1
[DRAM_CYCLE_ERROR] Cycle-based error applied! address=0x10d9fca770 additional_latency=173500 cycles
Heartbeat CPU 0 instructions: 1300000239 cycles: 1841544760 heartbeat IPC: 0.1622 cumulative IPC: 0.7059 (Simulation time: 03 hr 55 min 09 sec)
Heartbeat CPU 0 instructions: 1310000239 cycles: 1854832362 heartbeat IPC: 0.7526 cumulative IPC: 0.7063 (Simulation time: 03 hr 56 min 18 sec)
Heartbeat CPU 0 instructions: 1320000239 cycles: 1867358836 heartbeat IPC: 0.7983 cumulative IPC: 0.7069 (Simulation time: 03 hr 57 min 25 sec)
Heartbeat CPU 0 instructions: 1330000239 cycles: 1879880410 heartbeat IPC: 0.7986 cumulative IPC: 0.7075 (Simulation time: 03 hr 58 min 32 sec)
Heartbeat CPU 0 instructions: 1340000241 cycles: 1892397473 heartbeat IPC: 0.7989 cumulative IPC: 0.7081 (Simulation time: 03 hr 59 min 38 sec)
Heartbeat CPU 0 instructions: 1350000242 cycles: 1904935855 heartbeat IPC: 0.7976 cumulative IPC: 0.7087 (Simulation time: 04 hr 00 min 43 sec)
Heartbeat CPU 0 instructions: 1360000242 cycles: 1917261586 heartbeat IPC: 0.8113 cumulative IPC: 0.7093 (Simulation time: 04 hr 01 min 48 sec)
Heartbeat CPU 0 instructions: 1370000242 cycles: 1929402192 heartbeat IPC: 0.8237 cumulative IPC: 0.7101 (Simulation time: 04 hr 02 min 53 sec)
Heartbeat CPU 0 instructions: 1380000244 cycles: 1941861470 heartbeat IPC: 0.8026 cumulative IPC: 0.7107 (Simulation time: 04 hr 03 min 58 sec)
Heartbeat CPU 0 instructions: 1390000245 cycles: 1954348381 heartbeat IPC: 0.8008 cumulative IPC: 0.7112 (Simulation time: 04 hr 05 min 03 sec)
Heartbeat CPU 0 instructions: 1400000249 cycles: 1966749804 heartbeat IPC: 0.8064 cumulative IPC: 0.7118 (Simulation time: 04 hr 06 min 09 sec)
Heartbeat CPU 0 instructions: 1410000252 cycles: 1979474448 heartbeat IPC: 0.7859 cumulative IPC: 0.7123 (Simulation time: 04 hr 07 min 16 sec)
Heartbeat CPU 0 instructions: 1420000252 cycles: 1992494876 heartbeat IPC: 0.768 cumulative IPC: 0.7127 (Simulation time: 04 hr 08 min 25 sec)
Heartbeat CPU 0 instructions: 1430000256 cycles: 2005388407 heartbeat IPC: 0.7756 cumulative IPC: 0.7131 (Simulation time: 04 hr 09 min 34 sec)
Heartbeat CPU 0 instructions: 1440000259 cycles: 2018196879 heartbeat IPC: 0.7807 cumulative IPC: 0.7135 (Simulation time: 04 hr 10 min 40 sec)
Heartbeat CPU 0 instructions: 1450000263 cycles: 2030717027 heartbeat IPC: 0.7987 cumulative IPC: 0.714 (Simulation time: 04 hr 11 min 45 sec)
Heartbeat CPU 0 instructions: 1460000266 cycles: 2043248089 heartbeat IPC: 0.798 cumulative IPC: 0.7145 (Simulation time: 04 hr 12 min 50 sec)
Heartbeat CPU 0 instructions: 1470000266 cycles: 2055764415 heartbeat IPC: 0.799 cumulative IPC: 0.7151 (Simulation time: 04 hr 13 min 56 sec)
[ERROR_CYCLE] Error added at CPU cycle 2061043825, interval 8, pending count: 1
[DRAM_CYCLE_ERROR] Cycle-based error applied! address=0x18ff703288 additional_latency=173500 cycles
Heartbeat CPU 0 instructions: 1480000268 cycles: 2068313062 heartbeat IPC: 0.7969 cumulative IPC: 0.7156 (Simulation time: 04 hr 15 min 01 sec)
Heartbeat CPU 0 instructions: 1490000270 cycles: 2080812577 heartbeat IPC: 0.8 cumulative IPC: 0.7161 (Simulation time: 04 hr 16 min 06 sec)
Heartbeat CPU 0 instructions: 1500000272 cycles: 2092944922 heartbeat IPC: 0.8242 cumulative IPC: 0.7167 (Simulation time: 04 hr 17 min 09 sec)
Heartbeat CPU 0 instructions: 1510000276 cycles: 2105262394 heartbeat IPC: 0.8119 cumulative IPC: 0.7173 (Simulation time: 04 hr 18 min 13 sec)
Heartbeat CPU 0 instructions: 1520000279 cycles: 2117758503 heartbeat IPC: 0.8002 cumulative IPC: 0.7177 (Simulation time: 04 hr 19 min 19 sec)
Heartbeat CPU 0 instructions: 1530000282 cycles: 2130191973 heartbeat IPC: 0.8043 cumulative IPC: 0.7182 (Simulation time: 04 hr 20 min 25 sec)
Heartbeat CPU 0 instructions: 1540000283 cycles: 2142694132 heartbeat IPC: 0.7999 cumulative IPC: 0.7187 (Simulation time: 04 hr 21 min 32 sec)
Heartbeat CPU 0 instructions: 1550000287 cycles: 2155727298 heartbeat IPC: 0.7673 cumulative IPC: 0.719 (Simulation time: 04 hr 22 min 40 sec)
Heartbeat CPU 0 instructions: 1560000289 cycles: 2168672226 heartbeat IPC: 0.7725 cumulative IPC: 0.7193 (Simulation time: 04 hr 23 min 47 sec)
Heartbeat CPU 0 instructions: 1570000289 cycles: 2181518341 heartbeat IPC: 0.7784 cumulative IPC: 0.7197 (Simulation time: 04 hr 24 min 55 sec)
Heartbeat CPU 0 instructions: 1580000291 cycles: 2194094150 heartbeat IPC: 0.7952 cumulative IPC: 0.7201 (Simulation time: 04 hr 26 min 01 sec)
Heartbeat CPU 0 instructions: 1590000294 cycles: 2206633433 heartbeat IPC: 0.7975 cumulative IPC: 0.7206 (Simulation time: 04 hr 27 min 07 sec)
Heartbeat CPU 0 instructions: 1600000297 cycles: 2219144877 heartbeat IPC: 0.7993 cumulative IPC: 0.721 (Simulation time: 04 hr 28 min 13 sec)
Heartbeat CPU 0 instructions: 1610000297 cycles: 2231693154 heartbeat IPC: 0.7969 cumulative IPC: 0.7214 (Simulation time: 04 hr 29 min 17 sec)
Heartbeat CPU 0 instructions: 1620000298 cycles: 2244261239 heartbeat IPC: 0.7957 cumulative IPC: 0.7218 (Simulation time: 04 hr 30 min 21 sec)
Heartbeat CPU 0 instructions: 1630000300 cycles: 2256472659 heartbeat IPC: 0.8189 cumulative IPC: 0.7224 (Simulation time: 04 hr 31 min 23 sec)
Heartbeat CPU 0 instructions: 1640000304 cycles: 2268653041 heartbeat IPC: 0.821 cumulative IPC: 0.7229 (Simulation time: 04 hr 32 min 26 sec)
Heartbeat CPU 0 instructions: 1650000308 cycles: 2281132122 heartbeat IPC: 0.8013 cumulative IPC: 0.7233 (Simulation time: 04 hr 33 min 31 sec)
Heartbeat CPU 0 instructions: 1660000310 cycles: 2293594875 heartbeat IPC: 0.8024 cumulative IPC: 0.7238 (Simulation time: 04 hr 34 min 37 sec)
Heartbeat CPU 0 instructions: 1670000311 cycles: 2305998965 heartbeat IPC: 0.8062 cumulative IPC: 0.7242 (Simulation time: 04 hr 35 min 42 sec)
[ERROR_CYCLE] Error added at CPU cycle 2318674302, interval 9, pending count: 1
[DRAM_CYCLE_ERROR] Cycle-based error applied! address=0xeeee816c0 additional_latency=173500 cycles
Heartbeat CPU 0 instructions: 1680000314 cycles: 2318871901 heartbeat IPC: 0.7768 cumulative IPC: 0.7245 (Simulation time: 04 hr 36 min 49 sec)
Heartbeat CPU 0 instructions: 1690000317 cycles: 2331899967 heartbeat IPC: 0.7676 cumulative IPC: 0.7247 (Simulation time: 04 hr 37 min 57 sec)
Heartbeat CPU 0 instructions: 1700000318 cycles: 2344748161 heartbeat IPC: 0.7783 cumulative IPC: 0.725 (Simulation time: 04 hr 39 min 04 sec)
Heartbeat CPU 0 instructions: 1710000321 cycles: 2357460669 heartbeat IPC: 0.7866 cumulative IPC: 0.7254 (Simulation time: 04 hr 40 min 10 sec)
Heartbeat CPU 0 instructions: 1720000324 cycles: 2369993511 heartbeat IPC: 0.7979 cumulative IPC: 0.7257 (Simulation time: 04 hr 41 min 15 sec)
Heartbeat CPU 0 instructions: 1730000325 cycles: 2382506237 heartbeat IPC: 0.7992 cumulative IPC: 0.7261 (Simulation time: 04 hr 42 min 21 sec)
Heartbeat CPU 0 instructions: 1740000325 cycles: 2395032728 heartbeat IPC: 0.7983 cumulative IPC: 0.7265 (Simulation time: 04 hr 43 min 27 sec)
Heartbeat CPU 0 instructions: 1750000327 cycles: 2407599691 heartbeat IPC: 0.7957 cumulative IPC: 0.7269 (Simulation time: 04 hr 44 min 33 sec)
Heartbeat CPU 0 instructions: 1760000328 cycles: 2419992857 heartbeat IPC: 0.8069 cumulative IPC: 0.7273 (Simulation time: 04 hr 45 min 37 sec)
Heartbeat CPU 0 instructions: 1770000329 cycles: 2432115241 heartbeat IPC: 0.8249 cumulative IPC: 0.7278 (Simulation time: 04 hr 46 min 58 sec)
Heartbeat CPU 0 instructions: 1780000329 cycles: 2444513443 heartbeat IPC: 0.8066 cumulative IPC: 0.7282 (Simulation time: 04 hr 49 min 01 sec)
Heartbeat CPU 0 instructions: 1790000333 cycles: 2456997304 heartbeat IPC: 0.801 cumulative IPC: 0.7285 (Simulation time: 04 hr 51 min 07 sec)
Heartbeat CPU 0 instructions: 1800000333 cycles: 2469395301 heartbeat IPC: 0.8066 cumulative IPC: 0.7289 (Simulation time: 04 hr 53 min 10 sec)
Heartbeat CPU 0 instructions: 1810000337 cycles: 2482032527 heartbeat IPC: 0.7913 cumulative IPC: 0.7292 (Simulation time: 04 hr 55 min 14 sec)
Heartbeat CPU 0 instructions: 1820000340 cycles: 2495062474 heartbeat IPC: 0.7675 cumulative IPC: 0.7294 (Simulation time: 04 hr 57 min 20 sec)
Heartbeat CPU 0 instructions: 1830000341 cycles: 2507967002 heartbeat IPC: 0.7749 cumulative IPC: 0.7297 (Simulation time: 04 hr 59 min 24 sec)
Heartbeat CPU 0 instructions: 1840000344 cycles: 2520819528 heartbeat IPC: 0.7781 cumulative IPC: 0.7299 (Simulation time: 05 hr 01 min 30 sec)
Heartbeat CPU 0 instructions: 1850000344 cycles: 2533353521 heartbeat IPC: 0.7978 cumulative IPC: 0.7303 (Simulation time: 05 hr 03 min 34 sec)
Heartbeat CPU 0 instructions: 1860000345 cycles: 2545878542 heartbeat IPC: 0.7984 cumulative IPC: 0.7306 (Simulation time: 05 hr 05 min 39 sec)
Heartbeat CPU 0 instructions: 1870000349 cycles: 2558391483 heartbeat IPC: 0.7992 cumulative IPC: 0.7309 (Simulation time: 05 hr 07 min 48 sec)
Heartbeat CPU 0 instructions: 1880000350 cycles: 2570927891 heartbeat IPC: 0.7977 cumulative IPC: 0.7313 (Simulation time: 05 hr 09 min 57 sec)
[ERROR_CYCLE] Error added at CPU cycle 2576304781, interval 10, pending count: 1
[DRAM_CYCLE_ERROR] Cycle-based error applied! address=0x13ece5f548 additional_latency=173500 cycles
Heartbeat CPU 0 instructions: 1890000350 cycles: 2583479211 heartbeat IPC: 0.7967 cumulative IPC: 0.7316 (Simulation time: 05 hr 12 min 00 sec)
Heartbeat CPU 0 instructions: 1900000352 cycles: 2595622100 heartbeat IPC: 0.8235 cumulative IPC: 0.732 (Simulation time: 05 hr 14 min 01 sec)
Heartbeat CPU 0 instructions: 1910000353 cycles: 2607879724 heartbeat IPC: 0.8158 cumulative IPC: 0.7324 (Simulation time: 05 hr 15 min 58 sec)
Heartbeat CPU 0 instructions: 1920000357 cycles: 2620366139 heartbeat IPC: 0.8009 cumulative IPC: 0.7327 (Simulation time: 05 hr 17 min 57 sec)
Heartbeat CPU 0 instructions: 1930000361 cycles: 2632806950 heartbeat IPC: 0.8038 cumulative IPC: 0.7331 (Simulation time: 05 hr 19 min 55 sec)
Heartbeat CPU 0 instructions: 1940000361 cycles: 2645222671 heartbeat IPC: 0.8054 cumulative IPC: 0.7334 (Simulation time: 05 hr 21 min 53 sec)
Heartbeat CPU 0 instructions: 1950000365 cycles: 2658258667 heartbeat IPC: 0.7671 cumulative IPC: 0.7336 (Simulation time: 05 hr 23 min 56 sec)
Heartbeat CPU 0 instructions: 1960000369 cycles: 2671245148 heartbeat IPC: 0.77 cumulative IPC: 0.7337 (Simulation time: 05 hr 25 min 57 sec)
Heartbeat CPU 0 instructions: 1970000369 cycles: 2684095346 heartbeat IPC: 0.7782 cumulative IPC: 0.734 (Simulation time: 05 hr 27 min 57 sec)
Heartbeat CPU 0 instructions: 1980000373 cycles: 2696749322 heartbeat IPC: 0.7903 cumulative IPC: 0.7342 (Simulation time: 05 hr 29 min 58 sec)
Heartbeat CPU 0 instructions: 1990000374 cycles: 2709279835 heartbeat IPC: 0.7981 cumulative IPC: 0.7345 (Simulation time: 05 hr 31 min 57 sec)

=== ERROR PAGE STATISTICS ===
Mode: CYCLE
Error Cycle Interval: 257630478 CPU cycles
Total Error Accesses: 10
==============================
Simulation finished CPU 0 instructions: 1999999509 cycles: 2721810896 cumulative IPC: 0.7348 (Simulation time: 05 hr 33 min 55 sec)
Simulation complete CPU 0 instructions: 1999999509 cycles: 2721810896 cumulative IPC: 0.7348 (Simulation time: 05 hr 33 min 55 sec)

ChampSim completed all CPUs

=== Simulation ===
CPU 0 runs test_traces/649.fotonik3d_s-10881B.champsimtrace.xz

Region of Interest Statistics

CPU 0 cumulative IPC: 0.7348 instructions: 1999999509 cycles: 2721810896
CPU 0 Branch Prediction Accuracy: 97.24% MPKI: 0.2738 Average ROB Occupancy at Mispredict: 264.7
Branch type MPKI
BRANCH_DIRECT_JUMP: 5.5e-06
BRANCH_INDIRECT: 0
BRANCH_CONDITIONAL: 0.2738
BRANCH_DIRECT_CALL: 5e-07
BRANCH_INDIRECT_CALL: 0
BRANCH_RETURN: 5e-07

cpu0->cpu0_STLB TOTAL        ACCESS:    6979169 HIT:    3617402 MISS:    3361767 MSHR_MERGE:          0
cpu0->cpu0_STLB LOAD         ACCESS:    6979169 HIT:    3617402 MISS:    3361767 MSHR_MERGE:          0
cpu0->cpu0_STLB RFO          ACCESS:          0 HIT:          0 MISS:          0 MSHR_MERGE:          0
cpu0->cpu0_STLB PREFETCH     ACCESS:          0 HIT:          0 MISS:          0 MSHR_MERGE:          0
cpu0->cpu0_STLB WRITE        ACCESS:          0 HIT:          0 MISS:          0 MSHR_MERGE:          0
cpu0->cpu0_STLB TRANSLATION  ACCESS:          0 HIT:          0 MISS:          0 MSHR_MERGE:          0
cpu0->cpu0_STLB PREFETCH REQUESTED:          0 ISSUED:          0 USEFUL:          0 USELESS:          0
cpu0->cpu0_STLB AVERAGE MISS LATENCY: 344.5 cycles
cpu0->cpu0_L2C TOTAL        ACCESS:   51671890 HIT:   16865833 MISS:   34806057 MSHR_MERGE:          0
cpu0->cpu0_L2C LOAD         ACCESS:   36315933 HIT:    1510455 MISS:   34805478 MSHR_MERGE:          0
cpu0->cpu0_L2C RFO          ACCESS:       2024 HIT:       1982 MISS:         42 MSHR_MERGE:          0
cpu0->cpu0_L2C PREFETCH     ACCESS:          0 HIT:          0 MISS:          0 MSHR_MERGE:          0
cpu0->cpu0_L2C WRITE        ACCESS:   15353933 HIT:   15353396 MISS:        537 MSHR_MERGE:          0
cpu0->cpu0_L2C TRANSLATION  ACCESS:          0 HIT:          0 MISS:          0 MSHR_MERGE:          0
cpu0->cpu0_L2C PREFETCH REQUESTED:          0 ISSUED:          0 USEFUL:          0 USELESS:          0
cpu0->cpu0_L2C AVERAGE MISS LATENCY: 117 cycles
cpu0->cpu0_L1I TOTAL        ACCESS:  500910062 HIT:  500909120 MISS:        942 MSHR_MERGE:        403
cpu0->cpu0_L1I LOAD         ACCESS:  500910062 HIT:  500909120 MISS:        942 MSHR_MERGE:        403
cpu0->cpu0_L1I RFO          ACCESS:          0 HIT:          0 MISS:          0 MSHR_MERGE:          0
cpu0->cpu0_L1I PREFETCH     ACCESS:          0 HIT:          0 MISS:          0 MSHR_MERGE:          0
cpu0->cpu0_L1I WRITE        ACCESS:          0 HIT:          0 MISS:          0 MSHR_MERGE:          0
cpu0->cpu0_L1I TRANSLATION  ACCESS:          0 HIT:          0 MISS:          0 MSHR_MERGE:          0
cpu0->cpu0_L1I PREFETCH REQUESTED:          0 ISSUED:          0 USEFUL:          0 USELESS:          0
cpu0->cpu0_L1I AVERAGE MISS LATENCY: 146.1 cycles
cpu0->cpu0_L1D TOTAL        ACCESS:  960382996 HIT:  915387838 MISS:   44995158 MSHR_MERGE:    8677728
cpu0->cpu0_L1D LOAD         ACCESS:  842745554 HIT:  797753975 MISS:   44991579 MSHR_MERGE:    8676184
cpu0->cpu0_L1D RFO          ACCESS:          0 HIT:          0 MISS:          0 MSHR_MERGE:          0
cpu0->cpu0_L1D PREFETCH     ACCESS:          0 HIT:          0 MISS:          0 MSHR_MERGE:          0
cpu0->cpu0_L1D WRITE        ACCESS:  117637442 HIT:  117633863 MISS:       3579 MSHR_MERGE:       1544
cpu0->cpu0_L1D TRANSLATION  ACCESS:          0 HIT:          0 MISS:          0 MSHR_MERGE:          0
cpu0->cpu0_L1D PREFETCH REQUESTED:          0 ISSUED:          0 USEFUL:          0 USELESS:          0
cpu0->cpu0_L1D AVERAGE MISS LATENCY: 121.2 cycles
cpu0->cpu0_ITLB TOTAL        ACCESS:  433907369 HIT:  433907311 MISS:         58 MSHR_MERGE:         46
cpu0->cpu0_ITLB LOAD         ACCESS:  433907369 HIT:  433907311 MISS:         58 MSHR_MERGE:         46
cpu0->cpu0_ITLB RFO          ACCESS:          0 HIT:          0 MISS:          0 MSHR_MERGE:          0
cpu0->cpu0_ITLB PREFETCH     ACCESS:          0 HIT:          0 MISS:          0 MSHR_MERGE:          0
cpu0->cpu0_ITLB WRITE        ACCESS:          0 HIT:          0 MISS:          0 MSHR_MERGE:          0
cpu0->cpu0_ITLB TRANSLATION  ACCESS:          0 HIT:          0 MISS:          0 MSHR_MERGE:          0
cpu0->cpu0_ITLB PREFETCH REQUESTED:          0 ISSUED:          0 USEFUL:          0 USELESS:          0
cpu0->cpu0_ITLB AVERAGE MISS LATENCY: 740.6 cycles
cpu0->cpu0_DTLB TOTAL        ACCESS:  901383078 HIT:  892460316 MISS:    8922762 MSHR_MERGE:    1943605
cpu0->cpu0_DTLB LOAD         ACCESS:  901383078 HIT:  892460316 MISS:    8922762 MSHR_MERGE:    1943605
cpu0->cpu0_DTLB RFO          ACCESS:          0 HIT:          0 MISS:          0 MSHR_MERGE:          0
cpu0->cpu0_DTLB PREFETCH     ACCESS:          0 HIT:          0 MISS:          0 MSHR_MERGE:          0
cpu0->cpu0_DTLB WRITE        ACCESS:          0 HIT:          0 MISS:          0 MSHR_MERGE:          0
cpu0->cpu0_DTLB TRANSLATION  ACCESS:          0 HIT:          0 MISS:          0 MSHR_MERGE:          0
cpu0->cpu0_DTLB PREFETCH REQUESTED:          0 ISSUED:          0 USEFUL:          0 USELESS:          0
cpu0->cpu0_DTLB AVERAGE MISS LATENCY: 171.4 cycles
cpu0->LLC TOTAL        ACCESS:   50153704 HIT:   17650905 MISS:   32502799 MSHR_MERGE:          0
cpu0->LLC LOAD         ACCESS:   34805478 HIT:    2303080 MISS:   32502398 MSHR_MERGE:          0
cpu0->LLC RFO          ACCESS:         42 HIT:         16 MISS:         26 MSHR_MERGE:          0
cpu0->LLC PREFETCH     ACCESS:          0 HIT:          0 MISS:          0 MSHR_MERGE:          0
cpu0->LLC WRITE        ACCESS:   15348184 HIT:   15347809 MISS:        375 MSHR_MERGE:          0
cpu0->LLC TRANSLATION  ACCESS:          0 HIT:          0 MISS:          0 MSHR_MERGE:          0
cpu0->LLC PREFETCH REQUESTED:          0 ISSUED:          0 USEFUL:          0 USELESS:          0
cpu0->LLC AVERAGE MISS LATENCY: 108.2 cycles

DRAM Statistics

Channel 0 RQ ROW_BUFFER_HIT:     404962
  ROW_BUFFER_MISS:   19128093
  AVG DBUS CONGESTED CYCLE: 10.97
Channel 0 WQ ROW_BUFFER_HIT:    1362308
  ROW_BUFFER_MISS:    6307473
  FULL:          0
Channel 0 REFRESHES ISSUED:     226803

Channel 1 RQ ROW_BUFFER_HIT:     406600
  ROW_BUFFER_MISS:   19131297
  AVG DBUS CONGESTED CYCLE: 10.96
Channel 1 WQ ROW_BUFFER_HIT:    1358237
  ROW_BUFFER_MISS:    6312270
  FULL:          0
Channel 1 REFRESHES ISSUED:     226803
