
*** ChampSim Multicore Out-of-Order Simulator ***
Warmup Instructions: 0
Simulation Instructions: 9223372036854775807
Number of CPUs: 1
Page size: 1048576

Off-chip DRAM Size: 64 GiB Channels: 2 Width: 32-bit Data Rate: 4807 MT/s
[ERROR_PAGE_MANAGER] Error latency: 2459910500 
[ERROR_PAGE_MANAGER] Random seed: 54321 (fixed for preload reproducibility)
[ERROR_PAGE_MANAGER] Cycle-based error modeling enabled
[ERROR_PAGE_MANAGER] Errors per interval: 1
[ERROR_PAGE_MANAGER] Error cycle interval: 464841614 cycles

=== ERROR PAGE STATISTICS ===
Mode: CYCLE
Error Cycle Interval: 464841614 CPU cycles
Total Error Accesses: 0
==============================
Warmup finished CPU 0 instructions: 0 cycles: 1 cumulative IPC: 0 (Simulation time: 00 hr 00 min 00 sec)
Warmup complete CPU 0 instructions: 0 cycles: 1 cumulative IPC: 0 (Simulation time: 00 hr 00 min 00 sec)
Simulation CPU 0 panic: IPC 0 < 0.01
Simulation CPU 0 panic: IPC 2e-06 < 0.01
Simulation CPU 0 panic: IPC 0 < 0.01
Simulation CPU 0 panic: IPC 2.52e-05 < 0.01
Simulation CPU 0 panic: IPC 0.000543 < 0.01
Simulation CPU 0 panic: IPC 0.0003794 < 0.01
Simulation CPU 0 panic: IPC 7.5e-06 < 0.01
Simulation CPU 0 panic: IPC 2.1e-06 < 0.01
Simulation CPU 0 panic: IPC 1.7e-06 < 0.01
Simulation CPU 0 panic: IPC 1.11e-05 < 0.01
Simulation CPU 0 panic: IPC 1e-07 < 0.01
Simulation CPU 0 panic: IPC 4e-07 < 0.01
Simulation CPU 0 panic: IPC 4e-06 < 0.01
Simulation CPU 0 panic: IPC 8e-06 < 0.01
Simulation CPU 0 panic: IPC 0.0030956 < 0.01
Simulation CPU 0 critical: IPC 0.018621 < 0.02
Simulation CPU 0 critical: IPC 0.015891 < 0.02
Simulation CPU 0 panic: IPC 0.0027506 < 0.01
Simulation CPU 0 warning: IPC 0.021759 < 0.05
Simulation CPU 0 warning: IPC 0.024809 < 0.05
Simulation CPU 0 warning: IPC 0.037198 < 0.05
Simulation CPU 0 panic: IPC 7.2e-06 < 0.01
Simulation CPU 0 panic: IPC 8e-06 < 0.01
Simulation CPU 0 panic: IPC 0.0061778 < 0.01
Simulation CPU 0 panic: IPC 0.0061606 < 0.01
Simulation CPU 0 panic: IPC 0.0093766 < 0.01
Simulation CPU 0 panic: IPC 0.0059319 < 0.01
Simulation CPU 0 critical: IPC 0.012699 < 0.02
Simulation CPU 0 critical: IPC 0.012403 < 0.02
Simulation CPU 0 critical: IPC 0.018633 < 0.02
Simulation CPU 0 panic: IPC 0.009306 < 0.01
Simulation CPU 0 panic: IPC 8e-06 < 0.01
Simulation CPU 0 panic: IPC 0.0030944 < 0.01
Simulation CPU 0 panic: IPC 0.0084984 < 0.01
Simulation CPU 0 critical: IPC 0.010128 < 0.02
Simulation CPU 0 panic: IPC 0.0030958 < 0.01
Simulation CPU 0 critical: IPC 0.018635 < 0.02
Simulation CPU 0 critical: IPC 0.015525 < 0.02
Simulation CPU 0 panic: IPC 0.003084 < 0.01
Simulation CPU 0 panic: IPC 0.0093209 < 0.01
Simulation CPU 0 warning: IPC 0.040334 < 0.05
Simulation CPU 0 panic: IPC 0.0003344 < 0.01
Simulation CPU 0 panic: IPC 0.0001264 < 0.01
[ERROR_CYCLE] Error added at CPU cycle 464841614, interval 1, pending count: 1
[DRAM_CYCLE_ERROR] Cycle-based error applied! address=0x8047e87e0 additional_latency=2459910500 cycles
Simulation CPU 0 panic: IPC 0 < 0.01
Simulation CPU 0 panic: IPC 8e-07 < 0.01
Simulation CPU 0 panic: IPC 1.6e-06 < 0.01
Simulation CPU 0 panic: IPC 8e-07 < 0.01
Simulation CPU 0 panic: IPC 8e-07 < 0.01
Simulation CPU 0 panic: IPC 8.8e-06 < 0.01
Simulation CPU 0 panic: IPC 8e-07 < 0.01
Simulation CPU 0 panic: IPC 0.0010825 < 0.01
Simulation CPU 0 critical: IPC 0.012459 < 0.02
Simulation CPU 0 critical: IPC 0.010631 < 0.02
Simulation CPU 0 critical: IPC 0.011066 < 0.02
Simulation CPU 0 panic: IPC 7.2e-06 < 0.01
Simulation CPU 0 panic: IPC 0.003121 < 0.01
Simulation CPU 0 panic: IPC 0.0030986 < 0.01
Simulation CPU 0 warning: IPC 0.036728 < 0.05
Simulation CPU 0 warning: IPC 0.029702 < 0.05
Heartbeat CPU 0 instructions: 10000002 cycles: 668439469 heartbeat IPC: 0.01496 cumulative IPC: 0.01496 (Simulation time: 00 hr 56 min 42 sec)
Simulation CPU 0 warning: IPC 0.02925 < 0.05
Simulation CPU 0 warning: IPC 0.04774 < 0.05
Simulation CPU 0 panic: IPC 0.0062037 < 0.01
Simulation CPU 0 panic: IPC 0.0039995 < 0.01
Simulation CPU 0 warning: IPC 0.02399 < 0.05
Simulation CPU 0 warning: IPC 0.03414 < 0.05
Simulation CPU 0 warning: IPC 0.022203 < 0.05
Simulation CPU 0 panic: IPC 0.0084508 < 0.01
Simulation CPU 0 critical: IPC 0.012076 < 0.02
Simulation CPU 0 panic: IPC 0.0071009 < 0.01
Simulation CPU 0 critical: IPC 0.018628 < 0.02
Simulation CPU 0 panic: IPC 8e-06 < 0.01
Simulation CPU 0 panic: IPC 0.0062191 < 0.01
Simulation CPU 0 panic: IPC 0.000472 < 0.01
Simulation CPU 0 warning: IPC 0.046519 < 0.05
Simulation CPU 0 warning: IPC 0.027922 < 0.05
Simulation CPU 0 warning: IPC 0.028193 < 0.05
Simulation CPU 0 panic: IPC 0.000504 < 0.01
Simulation CPU 0 panic: IPC 8e-06 < 0.01
Simulation CPU 0 critical: IPC 0.014575 < 0.02
Simulation CPU 0 panic: IPC 0.003084 < 0.01
[ERROR_CYCLE] Error added at CPU cycle 929683228, interval 2, pending count: 1
Simulation CPU 0 warning: IPC 0.021741 < 0.05
[DRAM_CYCLE_ERROR] Cycle-based error applied! address=0x537c690e0 additional_latency=2459910500 cycles
Simulation CPU 0 panic: IPC 0 < 0.01
Simulation CPU 0 critical: IPC 0.018644 < 0.02
Simulation CPU 0 critical: IPC 0.013816 < 0.02
Simulation CPU 0 warning: IPC 0.029198 < 0.05
Heartbeat CPU 0 instructions: 20000002 cycles: 990509193 heartbeat IPC: 0.03105 cumulative IPC: 0.02019 (Simulation time: 01 hr 21 min 55 sec)
Simulation CPU 0 warning: IPC 0.021011 < 0.05
Simulation CPU 0 panic: IPC 8e-06 < 0.01
Simulation CPU 0 warning: IPC 0.021704 < 0.05
Simulation CPU 0 warning: IPC 0.049472 < 0.05
Simulation CPU 0 critical: IPC 0.015526 < 0.02
Simulation CPU 0 warning: IPC 0.021714 < 0.05
Simulation CPU 0 critical: IPC 0.01551 < 0.02
Simulation CPU 0 critical: IPC 0.018613 < 0.02
Simulation CPU 0 critical: IPC 0.012392 < 0.02
Simulation CPU 0 panic: IPC 0.0093017 < 0.01
Simulation CPU 0 critical: IPC 0.015508 < 0.02
Simulation CPU 0 warning: IPC 0.034145 < 0.05
Simulation CPU 0 critical: IPC 0.012406 < 0.02
Simulation CPU 0 warning: IPC 0.037298 < 0.05
Simulation CPU 0 panic: IPC 0.0031301 < 0.01
Simulation CPU 0 critical: IPC 0.015537 < 0.02
Simulation CPU 0 panic: IPC 0.000472 < 0.01
Simulation CPU 0 critical: IPC 0.015048 < 0.02
Simulation CPU 0 critical: IPC 0.012423 < 0.02
Simulation CPU 0 panic: IPC 0.000472 < 0.01
Simulation CPU 0 warning: IPC 0.036737 < 0.05
Simulation CPU 0 warning: IPC 0.024809 < 0.05
Simulation CPU 0 panic: IPC 0.0062005 < 0.01
Simulation CPU 0 warning: IPC 0.049616 < 0.05
Simulation CPU 0 panic: IPC 0.009301 < 0.01
Simulation CPU 0 panic: IPC 0.0031048 < 0.01
Simulation CPU 0 warning: IPC 0.034131 < 0.05
Simulation CPU 0 critical: IPC 0.015517 < 0.02
Heartbeat CPU 0 instructions: 30000004 cycles: 1330424234 heartbeat IPC: 0.02942 cumulative IPC: 0.02255 (Simulation time: 01 hr 46 min 37 sec)
Simulation CPU 0 warning: IPC 0.037211 < 0.05
Simulation CPU 0 critical: IPC 0.015514 < 0.02
Simulation CPU 0 panic: IPC 0 < 0.01
Simulation CPU 0 panic: IPC 0.0062108 < 0.01
Simulation CPU 0 panic: IPC 0.0048863 < 0.01
[ERROR_CYCLE] Error added at CPU cycle 1394524842, interval 3, pending count: 1
[DRAM_CYCLE_ERROR] Cycle-based error applied! address=0x537c97fe8 additional_latency=2459910500 cycles
Simulation CPU 0 panic: IPC 0.0093111 < 0.01
Simulation CPU 0 panic: IPC 0 < 0.01
Simulation CPU 0 critical: IPC 0.012394 < 0.02
Simulation CPU 0 panic: IPC 1.59e-05 < 0.01
Simulation CPU 0 critical: IPC 0.015504 < 0.02
Simulation CPU 0 panic: IPC 0.0073798 < 0.01
Simulation CPU 0 warning: IPC 0.031614 < 0.05
Simulation CPU 0 panic: IPC 8.72e-05 < 0.01
Simulation CPU 0 panic: IPC 5.6e-06 < 0.01
Simulation CPU 0 warning: IPC 0.022949 < 0.05
Simulation CPU 0 critical: IPC 0.016396 < 0.02
Simulation CPU 0 warning: IPC 0.039447 < 0.05
Simulation CPU 0 panic: IPC 0.006212 < 0.01
Simulation CPU 0 panic: IPC 0.0031088 < 0.01
Simulation CPU 0 warning: IPC 0.024504 < 0.05
Simulation CPU 0 warning: IPC 0.043736 < 0.05
Simulation CPU 0 panic: IPC 0.0085768 < 0.01
Simulation CPU 0 warning: IPC 0.021453 < 0.05
Simulation CPU 0 panic: IPC 0.0041138 < 0.01
Simulation CPU 0 warning: IPC 0.020862 < 0.05
Simulation CPU 0 warning: IPC 0.038062 < 0.05
Simulation CPU 0 panic: IPC 0.0062027 < 0.01
Simulation CPU 0 panic: IPC 0.0031156 < 0.01
Simulation CPU 0 warning: IPC 0.037205 < 0.05
Simulation CPU 0 panic: IPC 0.0078495 < 0.01
Simulation CPU 0 critical: IPC 0.01385 < 0.02
Simulation CPU 0 warning: IPC 0.035432 < 0.05
Simulation CPU 0 panic: IPC 0.0062091 < 0.01
Simulation CPU 0 panic: IPC 0.0031298 < 0.01
Simulation CPU 0 panic: IPC 0.0062028 < 0.01
Simulation CPU 0 critical: IPC 0.018643 < 0.02
Simulation CPU 0 critical: IPC 0.018628 < 0.02
Simulation CPU 0 panic: IPC 0.000472 < 0.01
Simulation CPU 0 critical: IPC 0.011207 < 0.02
Simulation CPU 0 warning: IPC 0.025583 < 0.05
Simulation CPU 0 panic: IPC 0.0031006 < 0.01
Simulation CPU 0 warning: IPC 0.021719 < 0.05
Simulation CPU 0 critical: IPC 0.011128 < 0.02
Simulation CPU 0 critical: IPC 0.013677 < 0.02
Simulation CPU 0 critical: IPC 0.012404 < 0.02
Simulation CPU 0 panic: IPC 0.0031006 < 0.01
Heartbeat CPU 0 instructions: 40000005 cycles: 1832632128 heartbeat IPC: 0.01991 cumulative IPC: 0.02183 (Simulation time: 02 hr 26 min 26 sec)
[ERROR_CYCLE] Error added at CPU cycle 1859366456, interval 4, pending count: 1
[DRAM_CYCLE_ERROR] Cycle-based error applied! address=0x537cc5890 additional_latency=2459910500 cycles
Simulation CPU 0 panic: IPC 0 < 0.01
Simulation CPU 0 warning: IPC 0.034142 < 0.05
Simulation CPU 0 warning: IPC 0.040305 < 0.05
Simulation CPU 0 warning: IPC 0.030423 < 0.05
Simulation CPU 0 warning: IPC 0.047096 < 0.05
Simulation CPU 0 warning: IPC 0.027917 < 0.05
Simulation CPU 0 panic: IPC 0.0093076 < 0.01
Simulation CPU 0 panic: IPC 0.0066835 < 0.01
Simulation CPU 0 critical: IPC 0.013914 < 0.02
Simulation CPU 0 warning: IPC 0.042126 < 0.05
Simulation CPU 0 warning: IPC 0.044396 < 0.05
Simulation CPU 0 warning: IPC 0.03002 < 0.05
Simulation CPU 0 warning: IPC 0.046924 < 0.05
Simulation CPU 0 warning: IPC 0.024422 < 0.05
Simulation CPU 0 critical: IPC 0.012422 < 0.02
Simulation CPU 0 critical: IPC 0.012448 < 0.02
Simulation CPU 0 panic: IPC 0.0093099 < 0.01
Simulation CPU 0 panic: IPC 0.0093221 < 0.01
Simulation CPU 0 warning: IPC 0.046528 < 0.05
Simulation CPU 0 warning: IPC 0.044912 < 0.05
Simulation CPU 0 warning: IPC 0.032624 < 0.05
Simulation CPU 0 warning: IPC 0.04032 < 0.05
Heartbeat CPU 0 instructions: 50000009 cycles: 2108492307 heartbeat IPC: 0.03625 cumulative IPC: 0.02371 (Simulation time: 02 hr 44 min 14 sec)
Simulation CPU 0 warning: IPC 0.035837 < 0.05
Simulation CPU 0 warning: IPC 0.029294 < 0.05
Simulation CPU 0 warning: IPC 0.027913 < 0.05
Simulation CPU 0 critical: IPC 0.012347 < 0.02
Simulation CPU 0 panic: IPC 0.0062664 < 0.01
Simulation CPU 0 warning: IPC 0.046498 < 0.05
Simulation CPU 0 panic: IPC 0.0031165 < 0.01
Simulation CPU 0 warning: IPC 0.024802 < 0.05
Simulation CPU 0 panic: IPC 0.0057332 < 0.01
Simulation CPU 0 warning: IPC 0.025781 < 0.05
Simulation CPU 0 warning: IPC 0.035779 < 0.05
Simulation CPU 0 panic: IPC 0.0094624 < 0.01
Simulation CPU 0 warning: IPC 0.021707 < 0.05
Simulation CPU 0 warning: IPC 0.042239 < 0.05
Simulation CPU 0 warning: IPC 0.031905 < 0.05
Simulation CPU 0 panic: IPC 0.0084106 < 0.01
Simulation CPU 0 warning: IPC 0.04377 < 0.05
Simulation CPU 0 panic: IPC 0.0049182 < 0.01
[ERROR_CYCLE] Error added at CPU cycle 2324208070, interval 5, pending count: 1
[DRAM_CYCLE_ERROR] Cycle-based error applied! address=0xb99d9b868 additional_latency=2459910500 cycles
Simulation CPU 0 panic: IPC 0 < 0.01
Simulation CPU 0 panic: IPC 0.0002752 < 0.01
Simulation CPU 0 panic: IPC 0.0004992 < 0.01
Simulation CPU 0 warning: IPC 0.037378 < 0.05
Simulation CPU 0 critical: IPC 0.012407 < 0.02
Simulation CPU 0 critical: IPC 0.016256 < 0.02
Simulation CPU 0 warning: IPC 0.047494 < 0.05
Simulation CPU 0 critical: IPC 0.010089 < 0.02
Heartbeat CPU 0 instructions: 60000012 cycles: 2439796489 heartbeat IPC: 0.03018 cumulative IPC: 0.02459 (Simulation time: 03 hr 11 min 36 sec)
Simulation CPU 0 warning: IPC 0.030063 < 0.05
Simulation CPU 0 panic: IPC 0.0071695 < 0.01
Simulation CPU 0 panic: IPC 0.0062084 < 0.01
Simulation CPU 0 critical: IPC 0.018601 < 0.02
Simulation CPU 0 panic: IPC 0.0031085 < 0.01
Simulation CPU 0 warning: IPC 0.024266 < 0.05
Simulation CPU 0 critical: IPC 0.015975 < 0.02
Simulation CPU 0 critical: IPC 0.016903 < 0.02
Simulation CPU 0 panic: IPC 0.004106 < 0.01
Simulation CPU 0 panic: IPC 0.0095409 < 0.01
Simulation CPU 0 panic: IPC 0.009328 < 0.01
Simulation CPU 0 panic: IPC 0.0031036 < 0.01
Simulation CPU 0 critical: IPC 0.012432 < 0.02
Simulation CPU 0 panic: IPC 0.003084 < 0.01
Simulation CPU 0 panic: IPC 0.0031205 < 0.01
Simulation CPU 0 panic: IPC 0.0031204 < 0.01
Simulation CPU 0 critical: IPC 0.015519 < 0.02
Simulation CPU 0 warning: IPC 0.037201 < 0.05
Simulation CPU 0 panic: IPC 0.0092978 < 0.01
Simulation CPU 0 critical: IPC 0.010541 < 0.02
Simulation CPU 0 warning: IPC 0.045318 < 0.05
Simulation CPU 0 panic: IPC 0.0040887 < 0.01
Simulation CPU 0 panic: IPC 0.0026126 < 0.01
Simulation CPU 0 critical: IPC 0.015526 < 0.02
Simulation CPU 0 warning: IPC 0.049332 < 0.05
Simulation CPU 0 warning: IPC 0.041064 < 0.05
Simulation CPU 0 warning: IPC 0.02866 < 0.05
Simulation CPU 0 panic: IPC 0.006215 < 0.01
Simulation CPU 0 warning: IPC 0.020633 < 0.05
Simulation CPU 0 warning: IPC 0.026898 < 0.05
[ERROR_CYCLE] Error added at CPU cycle 2789049684, interval 6, pending count: 1
Simulation CPU 0 panic: IPC 0.0031046 < 0.01
[DRAM_CYCLE_ERROR] Cycle-based error applied! address=0xa9a437188 additional_latency=2459910500 cycles
Simulation CPU 0 panic: IPC 0 < 0.01
Simulation CPU 0 critical: IPC 0.016003 < 0.02
Simulation CPU 0 panic: IPC 0.0026233 < 0.01
Simulation CPU 0 critical: IPC 0.010371 < 0.02
Heartbeat CPU 0 instructions: 70000012 cycles: 2854250550 heartbeat IPC: 0.02413 cumulative IPC: 0.02452 (Simulation time: 03 hr 47 min 43 sec)
Simulation CPU 0 panic: IPC 0.0001504 < 0.01
Simulation CPU 0 panic: IPC 0.0005464 < 0.01
Simulation CPU 0 warning: IPC 0.047184 < 0.05
Simulation CPU 0 panic: IPC 0.0093234 < 0.01
Simulation CPU 0 panic: IPC 0.0030368 < 0.01
Simulation CPU 0 panic: IPC 0.0031966 < 0.01
Simulation CPU 0 critical: IPC 0.015536 < 0.02
Simulation CPU 0 warning: IPC 0.03103 < 0.05
Simulation CPU 0 critical: IPC 0.017233 < 0.02
Simulation CPU 0 panic: IPC 0.0018687 < 0.01
Simulation CPU 0 warning: IPC 0.028828 < 0.05
Simulation CPU 0 panic: IPC 0.0048377 < 0.01
Simulation CPU 0 panic: IPC 0.0067096 < 0.01
Simulation CPU 0 panic: IPC 0.0026286 < 0.01
Simulation CPU 0 critical: IPC 0.018433 < 0.02
Simulation CPU 0 warning: IPC 0.040478 < 0.05
Simulation CPU 0 panic: IPC 0.0006496 < 0.01
Simulation CPU 0 panic: IPC 0.0023128 < 0.01
Simulation CPU 0 panic: IPC 0 < 0.01
Simulation CPU 0 panic: IPC 4.24e-05 < 0.01
Simulation CPU 0 panic: IPC 0.0024474 < 0.01
Simulation CPU 0 warning: IPC 0.025562 < 0.05
Simulation CPU 0 panic: IPC 0.0062012 < 0.01
Simulation CPU 0 warning: IPC 0.030199 < 0.05
Simulation CPU 0 panic: IPC 0.0038212 < 0.01
Simulation CPU 0 panic: IPC 0.0031162 < 0.01
Simulation CPU 0 warning: IPC 0.031277 < 0.05
Simulation CPU 0 critical: IPC 0.010575 < 0.02
Simulation CPU 0 panic: IPC 8.32e-05 < 0.01
Simulation CPU 0 warning: IPC 0.023593 < 0.05
Simulation CPU 0 warning: IPC 0.029146 < 0.05
Simulation CPU 0 warning: IPC 0.033352 < 0.05
Simulation CPU 0 warning: IPC 0.025557 < 0.05
Simulation CPU 0 critical: IPC 0.019381 < 0.02
Simulation CPU 0 warning: IPC 0.021708 < 0.05
[ERROR_CYCLE] Error added at CPU cycle 3253891298, interval 7, pending count: 1
[DRAM_CYCLE_ERROR] Cycle-based error applied! address=0x7d724faa8 additional_latency=2459910500 cycles
Simulation CPU 0 panic: IPC 0 < 0.01
Simulation CPU 0 panic: IPC 0.000472 < 0.01
Simulation CPU 0 warning: IPC 0.045463 < 0.05
Simulation CPU 0 panic: IPC 0.0044782 < 0.01
Simulation CPU 0 panic: IPC 1.56e-05 < 0.01
Simulation CPU 0 panic: IPC 0.003104 < 0.01
Simulation CPU 0 panic: IPC 0.0093379 < 0.01
Simulation CPU 0 critical: IPC 0.015509 < 0.02
Simulation CPU 0 panic: IPC 0.0093226 < 0.01
Simulation CPU 0 panic: IPC 0.0030953 < 0.01
Simulation CPU 0 warning: IPC 0.024829 < 0.05
Heartbeat CPU 0 instructions: 80000016 cycles: 3374954132 heartbeat IPC: 0.0192 cumulative IPC: 0.0237 (Simulation time: 04 hr 25 min 45 sec)
Simulation CPU 0 critical: IPC 0.019239 < 0.02
Simulation CPU 0 critical: IPC 0.018027 < 0.02
Simulation CPU 0 critical: IPC 0.01551 < 0.02
Simulation CPU 0 panic: IPC 0.0062118 < 0.01
Simulation CPU 0 panic: IPC 0.0031086 < 0.01
Simulation CPU 0 warning: IPC 0.021707 < 0.05
Simulation CPU 0 panic: IPC 0.0031162 < 0.01
Simulation CPU 0 warning: IPC 0.031003 < 0.05
Simulation CPU 0 critical: IPC 0.015517 < 0.02
Simulation CPU 0 critical: IPC 0.011644 < 0.02
Simulation CPU 0 critical: IPC 0.019609 < 0.02
Simulation CPU 0 panic: IPC 0.0093115 < 0.01
Simulation CPU 0 critical: IPC 0.015503 < 0.02
Simulation CPU 0 panic: IPC 7.2e-06 < 0.01
Simulation CPU 0 panic: IPC 0.0030999 < 0.01
Simulation CPU 0 critical: IPC 0.014887 < 0.02
Simulation CPU 0 critical: IPC 0.014667 < 0.02
Simulation CPU 0 warning: IPC 0.035802 < 0.05
Simulation CPU 0 warning: IPC 0.03195 < 0.05
Simulation CPU 0 warning: IPC 0.033392 < 0.05
Simulation CPU 0 warning: IPC 0.049273 < 0.05
Simulation CPU 0 warning: IPC 0.03064 < 0.05
Heartbeat CPU 0 instructions: 90000018 cycles: 3682565178 heartbeat IPC: 0.03251 cumulative IPC: 0.02444 (Simulation time: 04 hr 51 min 55 sec)
Simulation CPU 0 warning: IPC 0.044167 < 0.05
Simulation CPU 0 critical: IPC 0.015484 < 0.02
Simulation CPU 0 warning: IPC 0.039333 < 0.05
[ERROR_CYCLE] Error added at CPU cycle 3718732912, interval 8, pending count: 1
[DRAM_CYCLE_ERROR] Cycle-based error applied! address=0x7d727dcf8 additional_latency=2459910500 cycles
Simulation CPU 0 panic: IPC 0 < 0.01
Simulation CPU 0 panic: IPC 0.0015448 < 0.01
Simulation CPU 0 panic: IPC 0.0078785 < 0.01
Simulation CPU 0 panic: IPC 0.0031066 < 0.01
Simulation CPU 0 panic: IPC 0.000472 < 0.01
Simulation CPU 0 warning: IPC 0.049164 < 0.05
Simulation CPU 0 warning: IPC 0.024824 < 0.05
Simulation CPU 0 critical: IPC 0.01241 < 0.02
Simulation CPU 0 panic: IPC 0.0093118 < 0.01
Simulation CPU 0 warning: IPC 0.02434 < 0.05
Simulation CPU 0 panic: IPC 0.0097679 < 0.01
Simulation CPU 0 warning: IPC 0.020319 < 0.05
Simulation CPU 0 warning: IPC 0.029701 < 0.05
Heartbeat CPU 0 instructions: 100000020 cycles: 3921479485 heartbeat IPC: 0.04186 cumulative IPC: 0.0255 (Simulation time: 05 hr 12 min 10 sec)
Simulation CPU 0 critical: IPC 0.017163 < 0.02
Simulation CPU 0 warning: IPC 0.021101 < 0.05
Simulation CPU 0 panic: IPC 0.0099377 < 0.01
Simulation CPU 0 panic: IPC 0.009306 < 0.01
Simulation CPU 0 warning: IPC 0.037221 < 0.05
Simulation CPU 0 warning: IPC 0.027908 < 0.05
Simulation CPU 0 warning: IPC 0.033023 < 0.05
Simulation CPU 0 warning: IPC 0.025897 < 0.05
Simulation CPU 0 critical: IPC 0.018625 < 0.02
Simulation CPU 0 critical: IPC 0.012412 < 0.02
Simulation CPU 0 warning: IPC 0.048877 < 0.05
Simulation CPU 0 warning: IPC 0.022438 < 0.05
Simulation CPU 0 critical: IPC 0.015513 < 0.02
Simulation CPU 0 panic: IPC 0.0031276 < 0.01
Simulation CPU 0 critical: IPC 0.0193 < 0.02
Simulation CPU 0 warning: IPC 0.029808 < 0.05
Simulation CPU 0 critical: IPC 0.010992 < 0.02
Simulation CPU 0 warning: IPC 0.048 < 0.05
Simulation CPU 0 warning: IPC 0.032624 < 0.05
Simulation CPU 0 panic: IPC 0.000472 < 0.01
Simulation CPU 0 panic: IPC 0.0088329 < 0.01
[ERROR_CYCLE] Error added at CPU cycle 4183574526, interval 9, pending count: 1
[DRAM_CYCLE_ERROR] Cycle-based error applied! address=0x7d72aaa90 additional_latency=2459910500 cycles
Simulation CPU 0 panic: IPC 0 < 0.01
Simulation CPU 0 panic: IPC 0.0031166 < 0.01
Simulation CPU 0 critical: IPC 0.016991 < 0.02
Simulation CPU 0 panic: IPC 0.0016255 < 0.01
Simulation CPU 0 panic: IPC 0.0062184 < 0.01
Simulation CPU 0 critical: IPC 0.012414 < 0.02
Simulation CPU 0 warning: IPC 0.027767 < 0.05
Simulation CPU 0 critical: IPC 0.018799 < 0.02
Simulation CPU 0 panic: IPC 0.0062032 < 0.01
Simulation CPU 0 panic: IPC 0.0031018 < 0.01
Simulation CPU 0 panic: IPC 0.0062335 < 0.01
Simulation CPU 0 warning: IPC 0.032549 < 0.05
Simulation CPU 0 panic: IPC 0.0093185 < 0.01
Simulation CPU 0 panic: IPC 0.0062274 < 0.01
Heartbeat CPU 0 instructions: 110000020 cycles: 4345182374 heartbeat IPC: 0.0236 cumulative IPC: 0.02532 (Simulation time: 05 hr 44 min 31 sec)
Simulation CPU 0 warning: IPC 0.027736 < 0.05
Simulation CPU 0 warning: IPC 0.044337 < 0.05
Simulation CPU 0 critical: IPC 0.018666 < 0.02
Simulation CPU 0 critical: IPC 0.016531 < 0.02
Simulation CPU 0 panic: IPC 0.0051826 < 0.01
Simulation CPU 0 warning: IPC 0.040354 < 0.05
Simulation CPU 0 warning: IPC 0.049623 < 0.05
Simulation CPU 0 panic: IPC 0.0031006 < 0.01
Simulation CPU 0 warning: IPC 0.039765 < 0.05
Simulation CPU 0 warning: IPC 0.042094 < 0.05
Simulation CPU 0 panic: IPC 0.0050182 < 0.01
Simulation CPU 0 panic: IPC 0.0031061 < 0.01
Simulation CPU 0 warning: IPC 0.027917 < 0.05
Simulation CPU 0 warning: IPC 0.027928 < 0.05
Simulation CPU 0 warning: IPC 0.02941 < 0.05
Simulation CPU 0 panic: IPC 0.0015956 < 0.01
Simulation CPU 0 warning: IPC 0.040336 < 0.05
Simulation CPU 0 panic: IPC 0.0031022 < 0.01
Simulation CPU 0 warning: IPC 0.034124 < 0.05
Simulation CPU 0 warning: IPC 0.033681 < 0.05
Simulation CPU 0 warning: IPC 0.03104 < 0.05
Simulation CPU 0 panic: IPC 0.009315 < 0.01
Simulation CPU 0 panic: IPC 0.0030953 < 0.01
Simulation CPU 0 critical: IPC 0.012429 < 0.02
Simulation CPU 0 panic: IPC 0.000472 < 0.01
Simulation CPU 0 panic: IPC 0.0026337 < 0.01
[ERROR_CYCLE] Error added at CPU cycle 4648416140, interval 10, pending count: 1
[DRAM_CYCLE_ERROR] Cycle-based error applied! address=0x7d72d89b0 additional_latency=2459910500 cycles
Simulation CPU 0 panic: IPC 0.0062042 < 0.01
Simulation CPU 0 panic: IPC 0 < 0.01
Simulation CPU 0 panic: IPC 0.0031006 < 0.01
Simulation CPU 0 critical: IPC 0.019854 < 0.02
Simulation CPU 0 warning: IPC 0.03287 < 0.05
Simulation CPU 0 critical: IPC 0.01552 < 0.02
Simulation CPU 0 warning: IPC 0.021712 < 0.05
Simulation CPU 0 panic: IPC 0.0031102 < 0.01
Simulation CPU 0 panic: IPC 0.0031226 < 0.01
Simulation CPU 0 critical: IPC 0.016279 < 0.02
Simulation CPU 0 warning: IPC 0.036449 < 0.05
Heartbeat CPU 0 instructions: 120000024 cycles: 4759633928 heartbeat IPC: 0.02413 cumulative IPC: 0.02521 (Simulation time: 06 hr 17 min 12 sec)
Simulation CPU 0 warning: IPC 0.022508 < 0.05
Simulation CPU 0 warning: IPC 0.029224 < 0.05
Simulation CPU 0 warning: IPC 0.025798 < 0.05
Simulation CPU 0 critical: IPC 0.012397 < 0.02
Simulation CPU 0 warning: IPC 0.024816 < 0.05
Simulation CPU 0 panic: IPC 0.0083047 < 0.01
Simulation CPU 0 warning: IPC 0.044415 < 0.05
Simulation CPU 0 warning: IPC 0.042085 < 0.05
Simulation CPU 0 warning: IPC 0.026159 < 0.05
Simulation CPU 0 panic: IPC 0.0062047 < 0.01
Simulation CPU 0 critical: IPC 0.011248 < 0.02
Simulation CPU 0 panic: IPC 0.0066934 < 0.01
Simulation CPU 0 warning: IPC 0.042915 < 0.05
Simulation CPU 0 critical: IPC 0.016133 < 0.02
Simulation CPU 0 critical: IPC 0.01488 < 0.02
Simulation CPU 0 warning: IPC 0.027915 < 0.05
Simulation CPU 0 critical: IPC 0.015503 < 0.02
Simulation CPU 0 panic: IPC 0.0062005 < 0.01
Simulation CPU 0 panic: IPC 0.0092958 < 0.01
Simulation CPU 0 warning: IPC 0.040332 < 0.05
Simulation CPU 0 panic: IPC 0.0031058 < 0.01
Simulation CPU 0 warning: IPC 0.031006 < 0.05
Simulation CPU 0 warning: IPC 0.032863 < 0.05
Simulation CPU 0 critical: IPC 0.015512 < 0.02
Simulation CPU 0 warning: IPC 0.034125 < 0.05
Simulation CPU 0 critical: IPC 0.015505 < 0.02
Simulation CPU 0 panic: IPC 0.0062091 < 0.01
Simulation CPU 0 panic: IPC 0.0035924 < 0.01
Simulation CPU 0 panic: IPC 0.0026332 < 0.01
Simulation CPU 0 warning: IPC 0.027907 < 0.05
Simulation CPU 0 warning: IPC 0.021717 < 0.05
Simulation CPU 0 critical: IPC 0.012402 < 0.02
[ERROR_CYCLE] Error added at CPU cycle 5113257755, interval 11, pending count: 1
[DRAM_CYCLE_ERROR] Cycle-based error applied! address=0x4a9a51b90 additional_latency=2459910500 cycles
Simulation CPU 0 panic: IPC 0 < 0.01
Simulation CPU 0 critical: IPC 0.01855 < 0.02
Simulation CPU 0 critical: IPC 0.012459 < 0.02
Simulation CPU 0 panic: IPC 0.0062102 < 0.01
Simulation CPU 0 critical: IPC 0.012402 < 0.02
Simulation CPU 0 critical: IPC 0.018601 < 0.02
Simulation CPU 0 panic: IPC 2.22e-05 < 0.01
Simulation CPU 0 warning: IPC 0.044861 < 0.05
Heartbeat CPU 0 instructions: 130000024 cycles: 5192572394 heartbeat IPC: 0.0231 cumulative IPC: 0.02504 (Simulation time: 06 hr 51 min 49 sec)
Simulation CPU 0 warning: IPC 0.024808 < 0.05
Simulation CPU 0 warning: IPC 0.021711 < 0.05
Simulation CPU 0 critical: IPC 0.016107 < 0.02
Simulation CPU 0 warning: IPC 0.038343 < 0.05
Simulation CPU 0 warning: IPC 0.023094 < 0.05
Simulation CPU 0 warning: IPC 0.021711 < 0.05
Simulation CPU 0 critical: IPC 0.01242 < 0.02
Simulation CPU 0 panic: IPC 1.8e-05 < 0.01
Simulation CPU 0 panic: IPC 0.0062084 < 0.01
Simulation CPU 0 panic: IPC 0.0096442 < 0.01
Simulation CPU 0 critical: IPC 0.017865 < 0.02
Simulation CPU 0 warning: IPC 0.034029 < 0.05
Simulation CPU 0 critical: IPC 0.015597 < 0.02
Simulation CPU 0 warning: IPC 0.038429 < 0.05
Simulation CPU 0 warning: IPC 0.034577 < 0.05
Heartbeat CPU 0 instructions: 140000027 cycles: 5430878779 heartbeat IPC: 0.04196 cumulative IPC: 0.02578 (Simulation time: 07 hr 12 min 11 sec)
Simulation CPU 0 warning: IPC 0.041726 < 0.05
Simulation CPU 0 warning: IPC 0.043766 < 0.05
Simulation CPU 0 critical: IPC 0.012422 < 0.02
Simulation CPU 0 panic: IPC 0.003115 < 0.01
Simulation CPU 0 warning: IPC 0.027918 < 0.05
Simulation CPU 0 critical: IPC 0.017531 < 0.02
Simulation CPU 0 critical: IPC 0.013859 < 0.02
[ERROR_CYCLE] Error added at CPU cycle 5578099368, interval 12, pending count: 1
Simulation CPU 0 critical: IPC 0.015247 < 0.02
[DRAM_CYCLE_ERROR] Cycle-based error applied! address=0x331533088 additional_latency=2459910500 cycles
Simulation CPU 0 panic: IPC 0 < 0.01
Simulation CPU 0 warning: IPC 0.029283 < 0.05
Simulation CPU 0 warning: IPC 0.034095 < 0.05
Simulation CPU 0 warning: IPC 0.039079 < 0.05
Heartbeat CPU 0 instructions: 150000029 cycles: 5651319718 heartbeat IPC: 0.04536 cumulative IPC: 0.02654 (Simulation time: 07 hr 31 min 11 sec)
Simulation CPU 0 panic: IPC 0.0046596 < 0.01
Simulation CPU 0 warning: IPC 0.035377 < 0.05
Simulation CPU 0 panic: IPC 0.001886 < 0.01
Simulation CPU 0 warning: IPC 0.037245 < 0.05
Simulation CPU 0 critical: IPC 0.015518 < 0.02
Simulation CPU 0 panic: IPC 0.0062005 < 0.01
Simulation CPU 0 warning: IPC 0.031666 < 0.05
Simulation CPU 0 warning: IPC 0.02915 < 0.05
Simulation CPU 0 warning: IPC 0.043053 < 0.05
Simulation CPU 0 critical: IPC 0.015876 < 0.02
Simulation CPU 0 critical: IPC 0.011254 < 0.02
Simulation CPU 0 panic: IPC 6.32e-05 < 0.01
Simulation CPU 0 panic: IPC 1.28e-05 < 0.01
Simulation CPU 0 panic: IPC 9.12e-05 < 0.01
Simulation CPU 0 panic: IPC 8.8e-05 < 0.01
Simulation CPU 0 panic: IPC 0.0070581 < 0.01
Simulation CPU 0 panic: IPC 0.0082158 < 0.01
Simulation CPU 0 critical: IPC 0.015516 < 0.02
Simulation CPU 0 critical: IPC 0.012422 < 0.02
Simulation CPU 0 panic: IPC 0.0062005 < 0.01
Simulation CPU 0 panic: IPC 0.0031178 < 0.01
Simulation CPU 0 warning: IPC 0.041114 < 0.05
Simulation CPU 0 panic: IPC 0.0053959 < 0.01
Simulation CPU 0 warning: IPC 0.029222 < 0.05
Simulation CPU 0 warning: IPC 0.029788 < 0.05
Simulation CPU 0 critical: IPC 0.017169 < 0.02
Simulation CPU 0 warning: IPC 0.041934 < 0.05
Simulation CPU 0 warning: IPC 0.029482 < 0.05
Heartbeat CPU 0 instructions: 160000031 cycles: 6009744535 heartbeat IPC: 0.0279 cumulative IPC: 0.02662 (Simulation time: 07 hr 57 min 48 sec)
Simulation CPU 0 warning: IPC 0.029573 < 0.05
Simulation CPU 0 warning: IPC 0.021376 < 0.05
[ERROR_CYCLE] Error added at CPU cycle 6042940983, interval 13, pending count: 1
[DRAM_CYCLE_ERROR] Cycle-based error applied! address=0x3315605d0 additional_latency=2459910500 cycles
Simulation CPU 0 warning: IPC 0.024333 < 0.05
Simulation CPU 0 panic: IPC 0 < 0.01
Simulation CPU 0 warning: IPC 0.037209 < 0.05
Simulation CPU 0 panic: IPC 0.0062005 < 0.01
Simulation CPU 0 warning: IPC 0.043413 < 0.05
Simulation CPU 0 panic: IPC 7.2e-05 < 0.01
Simulation CPU 0 critical: IPC 0.012125 < 0.02
Simulation CPU 0 critical: IPC 0.018609 < 0.02
Simulation CPU 0 critical: IPC 0.01109 < 0.02
Simulation CPU 0 warning: IPC 0.034133 < 0.05
Simulation CPU 0 warning: IPC 0.024823 < 0.05
Simulation CPU 0 critical: IPC 0.013086 < 0.02
Simulation CPU 0 critical: IPC 0.015506 < 0.02
Simulation CPU 0 warning: IPC 0.033606 < 0.05
Simulation CPU 0 critical: IPC 0.012934 < 0.02
Simulation CPU 0 panic: IPC 0.0062036 < 0.01
Simulation CPU 0 warning: IPC 0.049602 < 0.05
Simulation CPU 0 panic: IPC 0.0054266 < 0.01
Simulation CPU 0 warning: IPC 0.030006 < 0.05
Simulation CPU 0 warning: IPC 0.022714 < 0.05
Simulation CPU 0 warning: IPC 0.020408 < 0.05
Heartbeat CPU 0 instructions: 170000034 cycles: 6313318966 heartbeat IPC: 0.03294 cumulative IPC: 0.02693 (Simulation time: 08 hr 20 min 58 sec)
Simulation CPU 0 critical: IPC 0.01439 < 0.02
Simulation CPU 0 warning: IPC 0.046981 < 0.05
Simulation CPU 0 panic: IPC 0.008829 < 0.01
Simulation CPU 0 critical: IPC 0.013191 < 0.02
Simulation CPU 0 panic: IPC 0.0085148 < 0.01
Simulation CPU 0 warning: IPC 0.021745 < 0.05
Simulation CPU 0 critical: IPC 0.012358 < 0.02
Simulation CPU 0 panic: IPC 0.0093019 < 0.01
Simulation CPU 0 panic: IPC 0.0031014 < 0.01
Simulation CPU 0 critical: IPC 0.01244 < 0.02
Simulation CPU 0 panic: IPC 0.0093023 < 0.01
Simulation CPU 0 panic: IPC 0.0039242 < 0.01
Simulation CPU 0 warning: IPC 0.031004 < 0.05
Simulation CPU 0 critical: IPC 0.012398 < 0.02
Simulation CPU 0 panic: IPC 0.0093252 < 0.01
[ERROR_CYCLE] Error added at CPU cycle 6507782596, interval 14, pending count: 1
Simulation CPU 0 warning: IPC 0.040326 < 0.05
[DRAM_CYCLE_ERROR] Cycle-based error applied! address=0xf187cb328 additional_latency=2459910500 cycles
Simulation CPU 0 panic: IPC 0 < 0.01
Simulation CPU 0 warning: IPC 0.023187 < 0.05
Simulation CPU 0 critical: IPC 0.017137 < 0.02
Simulation CPU 0 warning: IPC 0.028524 < 0.05
Simulation CPU 0 critical: IPC 0.018007 < 0.02
Simulation CPU 0 critical: IPC 0.012879 < 0.02
Simulation CPU 0 warning: IPC 0.042943 < 0.05
Simulation CPU 0 critical: IPC 0.012407 < 0.02
Simulation CPU 0 warning: IPC 0.02972 < 0.05
Simulation CPU 0 warning: IPC 0.042133 < 0.05
Simulation CPU 0 warning: IPC 0.02269 < 0.05
Simulation CPU 0 panic: IPC 0.0031042 < 0.01
Simulation CPU 0 critical: IPC 0.012418 < 0.02
Heartbeat CPU 0 instructions: 180000036 cycles: 6672313321 heartbeat IPC: 0.02786 cumulative IPC: 0.02698 (Simulation time: 08 hr 48 min 50 sec)
Simulation CPU 0 warning: IPC 0.020462 < 0.05
Simulation CPU 0 critical: IPC 0.015522 < 0.02
Simulation CPU 0 warning: IPC 0.043406 < 0.05
Simulation CPU 0 warning: IPC 0.021745 < 0.05
Simulation CPU 0 warning: IPC 0.032056 < 0.05
Simulation CPU 0 warning: IPC 0.036727 < 0.05
Simulation CPU 0 panic: IPC 0.0092923 < 0.01
Simulation CPU 0 critical: IPC 0.012168 < 0.02
Simulation CPU 0 critical: IPC 0.015751 < 0.02
Simulation CPU 0 warning: IPC 0.034107 < 0.05
Simulation CPU 0 warning: IPC 0.03556 < 0.05
Simulation CPU 0 panic: IPC 0.006978 < 0.01
Simulation CPU 0 warning: IPC 0.025705 < 0.05
Simulation CPU 0 warning: IPC 0.031024 < 0.05
Simulation CPU 0 panic: IPC 0.0031006 < 0.01
Simulation CPU 0 warning: IPC 0.048184 < 0.05
Simulation CPU 0 critical: IPC 0.016987 < 0.02
Simulation CPU 0 warning: IPC 0.027915 < 0.05
Simulation CPU 0 warning: IPC 0.021723 < 0.05
Simulation CPU 0 warning: IPC 0.023849 < 0.05
Simulation CPU 0 panic: IPC 0.0062432 < 0.01
Simulation CPU 0 panic: IPC 0.0031058 < 0.01
Simulation CPU 0 panic: IPC 0.000472 < 0.01
Simulation CPU 0 warning: IPC 0.021234 < 0.05
Simulation CPU 0 critical: IPC 0.012413 < 0.02
Simulation CPU 0 critical: IPC 0.012408 < 0.02
[ERROR_CYCLE] Error added at CPU cycle 6972624211, interval 15, pending count: 1
[DRAM_CYCLE_ERROR] Cycle-based error applied! address=0x3315bb9e8 additional_latency=2459910500 cycles
Simulation CPU 0 critical: IPC 0.012414 < 0.02
Simulation CPU 0 panic: IPC 0.00036 < 0.01
Simulation CPU 0 panic: IPC 0.0089506 < 0.01
Simulation CPU 0 panic: IPC 0.0093342 < 0.01
Simulation CPU 0 critical: IPC 0.018628 < 0.02
Simulation CPU 0 panic: IPC 0.0016322 < 0.01
Simulation CPU 0 panic: IPC 0.00122 < 0.01
Simulation CPU 0 panic: IPC 1.76e-05 < 0.01
Simulation CPU 0 panic: IPC 3.44e-05 < 0.01
Simulation CPU 0 panic: IPC 8e-06 < 0.01
Simulation CPU 0 panic: IPC 8.8e-06 < 0.01
Simulation CPU 0 panic: IPC 1.6e-05 < 0.01
Simulation CPU 0 panic: IPC 1.6e-06 < 0.01
Simulation CPU 0 panic: IPC 8.8e-06 < 0.01
Simulation CPU 0 panic: IPC 1.76e-05 < 0.01
Simulation CPU 0 panic: IPC 1.04e-05 < 0.01
Simulation CPU 0 panic: IPC 8e-06 < 0.01
Simulation CPU 0 panic: IPC 3.2e-05 < 0.01
Simulation CPU 0 panic: IPC 2.4e-05 < 0.01
Simulation CPU 0 panic: IPC 1.6e-05 < 0.01
Simulation CPU 0 panic: IPC 1.6e-06 < 0.01
Simulation CPU 0 panic: IPC 1.04e-05 < 0.01
Simulation CPU 0 panic: IPC 1.84e-05 < 0.01
Simulation CPU 0 panic: IPC 0.0062424 < 0.01
Simulation CPU 0 warning: IPC 0.021714 < 0.05
Heartbeat CPU 0 instructions: 190000039 cycles: 7234608437 heartbeat IPC: 0.01778 cumulative IPC: 0.02626 (Simulation time: 09 hr 33 min 52 sec)
Simulation CPU 0 critical: IPC 0.010883 < 0.02
Simulation CPU 0 warning: IPC 0.028056 < 0.05
Simulation CPU 0 panic: IPC 0.0062151 < 0.01
Simulation CPU 0 panic: IPC 0.0031012 < 0.01
Simulation CPU 0 critical: IPC 0.0186 < 0.02
Simulation CPU 0 warning: IPC 0.032853 < 0.05
Simulation CPU 0 warning: IPC 0.040054 < 0.05
Simulation CPU 0 warning: IPC 0.020148 < 0.05
Simulation CPU 0 warning: IPC 0.038887 < 0.05
Simulation CPU 0 warning: IPC 0.033593 < 0.05
Simulation CPU 0 warning: IPC 0.043639 < 0.05
Simulation CPU 0 warning: IPC 0.02171 < 0.05
Simulation CPU 0 warning: IPC 0.031028 < 0.05
[ERROR_CYCLE] Error added at CPU cycle 7437465824, interval 16, pending count: 1
[DRAM_CYCLE_ERROR] Cycle-based error applied! address=0x3315e9320 additional_latency=2459910500 cycles
Simulation CPU 0 panic: IPC 0 < 0.01
Heartbeat CPU 0 instructions: 200000040 cycles: 7464290399 heartbeat IPC: 0.04354 cumulative IPC: 0.02679 (Simulation time: 09 hr 52 min 43 sec)
Simulation CPU 0 critical: IPC 0.013999 < 0.02
Simulation CPU 0 panic: IPC 0.0062028 < 0.01
Simulation CPU 0 warning: IPC 0.024822 < 0.05
Simulation CPU 0 critical: IPC 0.012403 < 0.02
Simulation CPU 0 warning: IPC 0.037224 < 0.05
Simulation CPU 0 critical: IPC 0.016398 < 0.02
Simulation CPU 0 warning: IPC 0.045658 < 0.05
Simulation CPU 0 panic: IPC 0.0062005 < 0.01
Simulation CPU 0 critical: IPC 0.012413 < 0.02
Simulation CPU 0 panic: IPC 0.0031006 < 0.01
Simulation CPU 0 critical: IPC 0.018607 < 0.02
Simulation CPU 0 warning: IPC 0.027901 < 0.05
Simulation CPU 0 panic: IPC 0.0079078 < 0.01
Simulation CPU 0 critical: IPC 0.019532 < 0.02
Simulation CPU 0 warning: IPC 0.034121 < 0.05
Simulation CPU 0 warning: IPC 0.021734 < 0.05
Simulation CPU 0 panic: IPC 0.0062449 < 0.01
Simulation CPU 0 warning: IPC 0.040363 < 0.05
Simulation CPU 0 warning: IPC 0.030228 < 0.05
Simulation CPU 0 warning: IPC 0.024807 < 0.05
Simulation CPU 0 warning: IPC 0.041678 < 0.05
Heartbeat CPU 0 instructions: 210000042 cycles: 7758021527 heartbeat IPC: 0.03404 cumulative IPC: 0.02707 (Simulation time: 10 hr 15 min 59 sec)
Simulation CPU 0 warning: IPC 0.02102 < 0.05
Simulation CPU 0 warning: IPC 0.031015 < 0.05
Simulation CPU 0 warning: IPC 0.027771 < 0.05
Simulation CPU 0 warning: IPC 0.037359 < 0.05
Simulation CPU 0 warning: IPC 0.027927 < 0.05
Simulation CPU 0 warning: IPC 0.029891 < 0.05
Simulation CPU 0 warning: IPC 0.038322 < 0.05
Simulation CPU 0 warning: IPC 0.030961 < 0.05
Simulation CPU 0 warning: IPC 0.036885 < 0.05
Simulation CPU 0 panic: IPC 0.0031024 < 0.01
Simulation CPU 0 warning: IPC 0.025827 < 0.05
[ERROR_CYCLE] Error added at CPU cycle 7902307439, interval 17, pending count: 1
[DRAM_CYCLE_ERROR] Cycle-based error applied! address=0x254616410 additional_latency=2459910500 cycles
Simulation CPU 0 panic: IPC 0.0052016 < 0.01
Simulation CPU 0 warning: IPC 0.030243 < 0.05
Simulation CPU 0 critical: IPC 0.010095 < 0.02
Simulation CPU 0 critical: IPC 0.012407 < 0.02
Simulation CPU 0 warning: IPC 0.024806 < 0.05
Simulation CPU 0 critical: IPC 0.012416 < 0.02
Simulation CPU 0 panic: IPC 0.0062276 < 0.01
Simulation CPU 0 panic: IPC 2.7e-06 < 0.01
Simulation CPU 0 panic: IPC 0.000472 < 0.01
Simulation CPU 0 panic: IPC 0.0088333 < 0.01
Simulation CPU 0 warning: IPC 0.037207 < 0.05
Simulation CPU 0 panic: IPC 0.005695 < 0.01
Simulation CPU 0 panic: IPC 0.0036147 < 0.01
Simulation CPU 0 panic: IPC 0.0030744 < 0.01
Simulation CPU 0 warning: IPC 0.021711 < 0.05
Simulation CPU 0 warning: IPC 0.024807 < 0.05
Simulation CPU 0 warning: IPC 0.033071 < 0.05
Simulation CPU 0 panic: IPC 0.0072431 < 0.01
Simulation CPU 0 warning: IPC 0.049637 < 0.05
Simulation CPU 0 panic: IPC 0.0031006 < 0.01
Simulation CPU 0 warning: IPC 0.046519 < 0.05
Simulation CPU 0 warning: IPC 0.020039 < 0.05
Simulation CPU 0 warning: IPC 0.03578 < 0.05
Simulation CPU 0 warning: IPC 0.032173 < 0.05
Simulation CPU 0 panic: IPC 0.0019584 < 0.01
Heartbeat CPU 0 instructions: 220000045 cycles: 8163245722 heartbeat IPC: 0.02468 cumulative IPC: 0.02695 (Simulation time: 10 hr 49 min 36 sec)
Simulation CPU 0 warning: IPC 0.040317 < 0.05
Simulation CPU 0 critical: IPC 0.015509 < 0.02
Simulation CPU 0 warning: IPC 0.021716 < 0.05
Simulation CPU 0 panic: IPC 0.0062024 < 0.01
Simulation CPU 0 warning: IPC 0.046521 < 0.05
Simulation CPU 0 critical: IPC 0.018612 < 0.02
Simulation CPU 0 panic: IPC 0.0093055 < 0.01
Simulation CPU 0 warning: IPC 0.02481 < 0.05
Simulation CPU 0 warning: IPC 0.034115 < 0.05
Simulation CPU 0 panic: IPC 0.0071916 < 0.01
Simulation CPU 0 critical: IPC 0.014521 < 0.02
Simulation CPU 0 critical: IPC 0.01241 < 0.02
Simulation CPU 0 warning: IPC 0.027959 < 0.05
Simulation CPU 0 warning: IPC 0.030955 < 0.05
Simulation CPU 0 warning: IPC 0.029949 < 0.05
Simulation CPU 0 warning: IPC 0.02761 < 0.05
Simulation CPU 0 warning: IPC 0.040301 < 0.05
Simulation CPU 0 panic: IPC 0.007573 < 0.01
Simulation CPU 0 warning: IPC 0.040307 < 0.05
[ERROR_CYCLE] Error added at CPU cycle 8367149052, interval 18, pending count: 1
[DRAM_CYCLE_ERROR] Cycle-based error applied! address=0x7334cd178 additional_latency=2459910500 cycles
Simulation CPU 0 panic: IPC 0.0017374 < 0.01
Simulation CPU 0 panic: IPC 0.0095931 < 0.01
Simulation CPU 0 panic: IPC 0.0031024 < 0.01
Simulation CPU 0 warning: IPC 0.025456 < 0.05
Simulation CPU 0 warning: IPC 0.021056 < 0.05
Simulation CPU 0 warning: IPC 0.031012 < 0.05
Simulation CPU 0 critical: IPC 0.018577 < 0.02
Simulation CPU 0 critical: IPC 0.012403 < 0.02
Simulation CPU 0 warning: IPC 0.02424 < 0.05
Simulation CPU 0 warning: IPC 0.030214 < 0.05
Simulation CPU 0 critical: IPC 0.016313 < 0.02
Simulation CPU 0 warning: IPC 0.046509 < 0.05
Simulation CPU 0 critical: IPC 0.01446 < 0.02
Heartbeat CPU 0 instructions: 230000046 cycles: 8531485764 heartbeat IPC: 0.02716 cumulative IPC: 0.02696 (Simulation time: 11 hr 19 min 33 sec)
Simulation CPU 0 panic: IPC 0.00449 < 0.01
Simulation CPU 0 warning: IPC 0.029627 < 0.05
Simulation CPU 0 critical: IPC 0.019539 < 0.02
Simulation CPU 0 panic: IPC 1.84e-05 < 0.01
Simulation CPU 0 panic: IPC 3.36e-05 < 0.01
Simulation CPU 0 panic: IPC 1.92e-05 < 0.01
Simulation CPU 0 panic: IPC 0.0030898 < 0.01
Simulation CPU 0 warning: IPC 0.029203 < 0.05
Simulation CPU 0 critical: IPC 0.010124 < 0.02
Simulation CPU 0 warning: IPC 0.027942 < 0.05
Simulation CPU 0 warning: IPC 0.025469 < 0.05
Simulation CPU 0 critical: IPC 0.011708 < 0.02
Simulation CPU 0 warning: IPC 0.029196 < 0.05
Simulation CPU 0 warning: IPC 0.041098 < 0.05
Simulation CPU 0 warning: IPC 0.037204 < 0.05
Simulation CPU 0 critical: IPC 0.010435 < 0.02
Simulation CPU 0 warning: IPC 0.036067 < 0.05
Simulation CPU 0 warning: IPC 0.022772 < 0.05
Simulation CPU 0 warning: IPC 0.029944 < 0.05
Simulation CPU 0 warning: IPC 0.029046 < 0.05
Simulation CPU 0 critical: IPC 0.010479 < 0.02
Simulation CPU 0 panic: IPC 0.0062035 < 0.01
Simulation CPU 0 warning: IPC 0.049612 < 0.05
Simulation CPU 0 panic: IPC 0.0089842 < 0.01
Simulation CPU 0 warning: IPC 0.029734 < 0.05
Simulation CPU 0 warning: IPC 0.029207 < 0.05
[ERROR_CYCLE] Error added at CPU cycle 8831990667, interval 19, pending count: 1
[DRAM_CYCLE_ERROR] Cycle-based error applied! address=0x254672530 additional_latency=2459910500 cycles
Simulation CPU 0 critical: IPC 0.017056 < 0.02
Simulation CPU 0 critical: IPC 0.018892 < 0.02
Simulation CPU 0 warning: IPC 0.02946 < 0.05
Simulation CPU 0 critical: IPC 0.016521 < 0.02
Simulation CPU 0 warning: IPC 0.041978 < 0.05
Simulation CPU 0 warning: IPC 0.029752 < 0.05
Heartbeat CPU 0 instructions: 240000047 cycles: 8899765632 heartbeat IPC: 0.02715 cumulative IPC: 0.02697 (Simulation time: 11 hr 50 min 20 sec)
Simulation CPU 0 warning: IPC 0.029173 < 0.05
Simulation CPU 0 warning: IPC 0.025131 < 0.05
Simulation CPU 0 warning: IPC 0.037201 < 0.05
Simulation CPU 0 panic: IPC 0.0054607 < 0.01
Simulation CPU 0 warning: IPC 0.031004 < 0.05
Simulation CPU 0 critical: IPC 0.015507 < 0.02
Simulation CPU 0 warning: IPC 0.032864 < 0.05
Simulation CPU 0 warning: IPC 0.035344 < 0.05
Simulation CPU 0 warning: IPC 0.046509 < 0.05
Simulation CPU 0 warning: IPC 0.031009 < 0.05
Simulation CPU 0 warning: IPC 0.030065 < 0.05
Simulation CPU 0 critical: IPC 0.01955 < 0.02
Simulation CPU 0 warning: IPC 0.026013 < 0.05
Simulation CPU 0 critical: IPC 0.014593 < 0.02
Simulation CPU 0 warning: IPC 0.040309 < 0.05
Simulation CPU 0 warning: IPC 0.024827 < 0.05
Simulation CPU 0 panic: IPC 0.006203 < 0.01
Simulation CPU 0 warning: IPC 0.046264 < 0.05
Simulation CPU 0 warning: IPC 0.021967 < 0.05
Simulation CPU 0 warning: IPC 0.031003 < 0.05
Simulation CPU 0 critical: IPC 0.018623 < 0.02
Simulation CPU 0 critical: IPC 0.012405 < 0.02
Simulation CPU 0 warning: IPC 0.024798 < 0.05
Simulation CPU 0 warning: IPC 0.030136 < 0.05
Simulation CPU 0 panic: IPC 0.0070677 < 0.01
Simulation CPU 0 critical: IPC 0.011209 < 0.02
Simulation CPU 0 warning: IPC 0.041502 < 0.05
Simulation CPU 0 warning: IPC 0.032585 < 0.05
Heartbeat CPU 0 instructions: 250000047 cycles: 9211990021 heartbeat IPC: 0.03203 cumulative IPC: 0.02714 (Simulation time: 12 hr 15 min 41 sec)
Simulation CPU 0 panic: IPC 0.004311 < 0.01
Simulation CPU 0 warning: IPC 0.026698 < 0.05
Simulation CPU 0 critical: IPC 0.013317 < 0.02
Simulation CPU 0 panic: IPC 0.006206 < 0.01
Simulation CPU 0 warning: IPC 0.031326 < 0.05
[ERROR_CYCLE] Error added at CPU cycle 9296832280, interval 20, pending count: 1
[DRAM_CYCLE_ERROR] Cycle-based error applied! address=0x25469f058 additional_latency=2459910500 cycles
Simulation CPU 0 critical: IPC 0.018605 < 0.02
Simulation CPU 0 panic: IPC 0 < 0.01
Simulation CPU 0 critical: IPC 0.018597 < 0.02
Simulation CPU 0 critical: IPC 0.012415 < 0.02
Simulation CPU 0 panic: IPC 0.0031012 < 0.01
Simulation CPU 0 panic: IPC 0.0080812 < 0.01
Simulation CPU 0 warning: IPC 0.032242 < 0.05
Simulation CPU 0 warning: IPC 0.027032 < 0.05
Simulation CPU 0 critical: IPC 0.013277 < 0.02
Simulation CPU 0 critical: IPC 0.012358 < 0.02
Simulation CPU 0 warning: IPC 0.037266 < 0.05
Simulation CPU 0 panic: IPC 0.0081045 < 0.01
Simulation CPU 0 warning: IPC 0.041818 < 0.05
Simulation CPU 0 warning: IPC 0.021708 < 0.05
Simulation CPU 0 critical: IPC 0.012406 < 0.02
Simulation CPU 0 critical: IPC 0.015005 < 0.02
Simulation CPU 0 warning: IPC 0.031014 < 0.05
Simulation CPU 0 warning: IPC 0.024551 < 0.05
Simulation CPU 0 warning: IPC 0.031277 < 0.05
Simulation CPU 0 warning: IPC 0.027174 < 0.05
Simulation CPU 0 panic: IPC 0.0007056 < 0.01
Simulation CPU 0 panic: IPC 0.0023968 < 0.01
Simulation CPU 0 panic: IPC 0.0084298 < 0.01
Heartbeat CPU 0 instructions: 260000051 cycles: 9566415224 heartbeat IPC: 0.02821 cumulative IPC: 0.02718 (Simulation time: 12 hr 43 min 37 sec)
Simulation CPU 0 critical: IPC 0.012405 < 0.02
Simulation CPU 0 warning: IPC 0.021706 < 0.05
Simulation CPU 0 critical: IPC 0.015516 < 0.02
Simulation CPU 0 warning: IPC 0.027916 < 0.05
Simulation CPU 0 warning: IPC 0.02171 < 0.05
Simulation CPU 0 warning: IPC 0.032315 < 0.05
Simulation CPU 0 critical: IPC 0.011111 < 0.02
Simulation CPU 0 critical: IPC 0.017601 < 0.02
Simulation CPU 0 warning: IPC 0.028514 < 0.05
Simulation CPU 0 panic: IPC 0.0086437 < 0.01
Simulation CPU 0 critical: IPC 0.018656 < 0.02
Simulation CPU 0 panic: IPC 0.0015792 < 0.01
Simulation CPU 0 warning: IPC 0.028092 < 0.05
Simulation CPU 0 critical: IPC 0.013081 < 0.02
Simulation CPU 0 warning: IPC 0.040326 < 0.05
Simulation CPU 0 critical: IPC 0.015504 < 0.02
[ERROR_CYCLE] Error added at CPU cycle 9761673895, interval 21, pending count: 1
[DRAM_CYCLE_ERROR] Cycle-based error applied! address=0x8a90342b8 additional_latency=2459910500 cycles
Simulation CPU 0 panic: IPC 0 < 0.01
Simulation CPU 0 warning: IPC 0.046515 < 0.05
Simulation CPU 0 warning: IPC 0.034121 < 0.05
Simulation CPU 0 warning: IPC 0.02791 < 0.05
Simulation CPU 0 panic: IPC 0.0031036 < 0.01
Simulation CPU 0 panic: IPC 0.0031006 < 0.01
Simulation CPU 0 panic: IPC 0.0072122 < 0.01
Simulation CPU 0 warning: IPC 0.020706 < 0.05
Simulation CPU 0 warning: IPC 0.043417 < 0.05
Simulation CPU 0 panic: IPC 0.008245 < 0.01
Simulation CPU 0 critical: IPC 0.013459 < 0.02
Simulation CPU 0 panic: IPC 0.006206 < 0.01
Simulation CPU 0 warning: IPC 0.048881 < 0.05
Simulation CPU 0 critical: IPC 0.013156 < 0.02
Simulation CPU 0 warning: IPC 0.049627 < 0.05
Heartbeat CPU 0 instructions: 270000051 cycles: 9934671187 heartbeat IPC: 0.02716 cumulative IPC: 0.02718 (Simulation time: 13 hr 13 min 06 sec)
Simulation CPU 0 warning: IPC 0.043412 < 0.05
Simulation CPU 0 warning: IPC 0.031003 < 0.05
Simulation CPU 0 warning: IPC 0.024805 < 0.05
Simulation CPU 0 warning: IPC 0.021702 < 0.05
Simulation CPU 0 critical: IPC 0.018609 < 0.02
Simulation CPU 0 critical: IPC 0.018602 < 0.02
Simulation CPU 0 warning: IPC 0.034122 < 0.05
Simulation CPU 0 warning: IPC 0.031906 < 0.05
Simulation CPU 0 warning: IPC 0.033213 < 0.05
Simulation CPU 0 warning: IPC 0.040531 < 0.05
Simulation CPU 0 critical: IPC 0.012866 < 0.02
Simulation CPU 0 warning: IPC 0.03411 < 0.05
Simulation CPU 0 warning: IPC 0.036428 < 0.05
Simulation CPU 0 critical: IPC 0.013173 < 0.02
Simulation CPU 0 critical: IPC 0.010327 < 0.02
Simulation CPU 0 warning: IPC 0.027919 < 0.05
Simulation CPU 0 critical: IPC 0.013777 < 0.02
Simulation CPU 0 warning: IPC 0.026548 < 0.05
Simulation CPU 0 warning: IPC 0.041369 < 0.05
Simulation CPU 0 panic: IPC 0.0038074 < 0.01
Simulation CPU 0 warning: IPC 0.021019 < 0.05
Simulation CPU 0 warning: IPC 0.027759 < 0.05
[ERROR_CYCLE] Error added at CPU cycle 10226515508, interval 22, pending count: 1
[DRAM_CYCLE_ERROR] Cycle-based error applied! address=0xe871239c0 additional_latency=2459910500 cycles
Simulation CPU 0 panic: IPC 0 < 0.01
Simulation CPU 0 critical: IPC 0.012409 < 0.02
Simulation CPU 0 panic: IPC 0.0030999 < 0.01
Heartbeat CPU 0 instructions: 280000052 cycles: 10256731071 heartbeat IPC: 0.03105 cumulative IPC: 0.0273 (Simulation time: 13 hr 37 min 20 sec)
Simulation CPU 0 panic: IPC 0.0093067 < 0.01
Simulation CPU 0 panic: IPC 0.0031006 < 0.01
Simulation CPU 0 warning: IPC 0.048168 < 0.05
Simulation CPU 0 critical: IPC 0.012402 < 0.02
Simulation CPU 0 critical: IPC 0.010544 < 0.02
Simulation CPU 0 panic: IPC 0.0093022 < 0.01
Simulation CPU 0 critical: IPC 0.016489 < 0.02
Simulation CPU 0 warning: IPC 0.039795 < 0.05
Simulation CPU 0 warning: IPC 0.046057 < 0.05
Simulation CPU 0 warning: IPC 0.036892 < 0.05
Simulation CPU 0 warning: IPC 0.029117 < 0.05
Simulation CPU 0 warning: IPC 0.037239 < 0.05
Simulation CPU 0 panic: IPC 0.0062005 < 0.01
Simulation CPU 0 panic: IPC 0.0031024 < 0.01
Simulation CPU 0 critical: IPC 0.018621 < 0.02
Simulation CPU 0 panic: IPC 0.0031006 < 0.01
Simulation CPU 0 panic: IPC 0.0093222 < 0.01
Simulation CPU 0 warning: IPC 0.047692 < 0.05
Simulation CPU 0 warning: IPC 0.028822 < 0.05
Simulation CPU 0 warning: IPC 0.022769 < 0.05
Simulation CPU 0 warning: IPC 0.036611 < 0.05
Simulation CPU 0 warning: IPC 0.029736 < 0.05
Heartbeat CPU 0 instructions: 290000052 cycles: 10541228262 heartbeat IPC: 0.03515 cumulative IPC: 0.02751 (Simulation time: 13 hr 58 min 38 sec)
Simulation CPU 0 warning: IPC 0.027914 < 0.05
Simulation CPU 0 critical: IPC 0.017446 < 0.02
Simulation CPU 0 panic: IPC 0.0085866 < 0.01
Simulation CPU 0 warning: IPC 0.029204 < 0.05
Simulation CPU 0 warning: IPC 0.026294 < 0.05
Simulation CPU 0 warning: IPC 0.022178 < 0.05
Simulation CPU 0 critical: IPC 0.016244 < 0.02
Simulation CPU 0 warning: IPC 0.029799 < 0.05
Simulation CPU 0 warning: IPC 0.027458 < 0.05
Simulation CPU 0 panic: IPC 0.0058631 < 0.01
Simulation CPU 0 warning: IPC 0.028653 < 0.05
[ERROR_CYCLE] Error added at CPU cycle 10691357123, interval 23, pending count: 1
[DRAM_CYCLE_ERROR] Cycle-based error applied! address=0x7039e91e8 additional_latency=2459910500 cycles
Simulation CPU 0 panic: IPC 0 < 0.01
Simulation CPU 0 critical: IPC 0.018606 < 0.02
Simulation CPU 0 critical: IPC 0.013996 < 0.02
Simulation CPU 0 warning: IPC 0.026311 < 0.05
Simulation CPU 0 panic: IPC 0.0031006 < 0.01
Simulation CPU 0 critical: IPC 0.014273 < 0.02
Simulation CPU 0 panic: IPC 0.0077244 < 0.01
Simulation CPU 0 warning: IPC 0.045354 < 0.05
Simulation CPU 0 critical: IPC 0.015516 < 0.02
Simulation CPU 0 panic: IPC 0.0031174 < 0.01
Simulation CPU 0 panic: IPC 0.003103 < 0.01
Simulation CPU 0 warning: IPC 0.030238 < 0.05
Heartbeat CPU 0 instructions: 300000056 cycles: 10854061589 heartbeat IPC: 0.03197 cumulative IPC: 0.02764 (Simulation time: 14 hr 24 min 14 sec)
Simulation CPU 0 critical: IPC 0.014491 < 0.02
Simulation CPU 0 warning: IPC 0.041331 < 0.05
Simulation CPU 0 panic: IPC 0.0031184 < 0.01
Simulation CPU 0 critical: IPC 0.015503 < 0.02
Simulation CPU 0 warning: IPC 0.020087 < 0.05
Simulation CPU 0 warning: IPC 0.045019 < 0.05
Simulation CPU 0 panic: IPC 0.003127 < 0.01
Simulation CPU 0 critical: IPC 0.015525 < 0.02
Simulation CPU 0 critical: IPC 0.012423 < 0.02
Simulation CPU 0 panic: IPC 0.0062198 < 0.01
Simulation CPU 0 critical: IPC 0.012417 < 0.02
Simulation CPU 0 warning: IPC 0.024822 < 0.05
Simulation CPU 0 critical: IPC 0.019511 < 0.02
Simulation CPU 0 warning: IPC 0.029366 < 0.05
Simulation CPU 0 warning: IPC 0.029816 < 0.05
Simulation CPU 0 warning: IPC 0.029261 < 0.05
Simulation CPU 0 warning: IPC 0.022425 < 0.05
Simulation CPU 0 warning: IPC 0.036281 < 0.05
Simulation CPU 0 warning: IPC 0.046131 < 0.05
Simulation CPU 0 critical: IPC 0.010731 < 0.02
Simulation CPU 0 warning: IPC 0.026823 < 0.05
Simulation CPU 0 warning: IPC 0.020916 < 0.05
Simulation CPU 0 warning: IPC 0.031055 < 0.05
Simulation CPU 0 critical: IPC 0.013199 < 0.02
Simulation CPU 0 critical: IPC 0.014719 < 0.02
[ERROR_CYCLE] Error added at CPU cycle 11156198736, interval 24, pending count: 1
[DRAM_CYCLE_ERROR] Cycle-based error applied! address=0xf37d55880 additional_latency=2459910500 cycles
Simulation CPU 0 panic: IPC 0.0051695 < 0.01
Simulation CPU 0 panic: IPC 0 < 0.01
Heartbeat CPU 0 instructions: 310000056 cycles: 11185350923 heartbeat IPC: 0.03019 cumulative IPC: 0.02771 (Simulation time: 14 hr 51 min 44 sec)
Simulation CPU 0 warning: IPC 0.049652 < 0.05
Simulation CPU 0 critical: IPC 0.018615 < 0.02
Simulation CPU 0 panic: IPC 0.0031119 < 0.01
Simulation CPU 0 warning: IPC 0.031018 < 0.05
Simulation CPU 0 warning: IPC 0.02171 < 0.05
Simulation CPU 0 panic: IPC 0.0031012 < 0.01
Simulation CPU 0 warning: IPC 0.031021 < 0.05
Simulation CPU 0 panic: IPC 0.0093126 < 0.01
Simulation CPU 0 critical: IPC 0.015522 < 0.02
Simulation CPU 0 panic: IPC 0.0062171 < 0.01
Simulation CPU 0 critical: IPC 0.013218 < 0.02
Simulation CPU 0 warning: IPC 0.024842 < 0.05
Simulation CPU 0 critical: IPC 0.01857 < 0.02
Simulation CPU 0 critical: IPC 0.018114 < 0.02
Simulation CPU 0 panic: IPC 0.0005063 < 0.01
Simulation CPU 0 warning: IPC 0.0279 < 0.05
Simulation CPU 0 warning: IPC 0.042356 < 0.05
Simulation CPU 0 warning: IPC 0.025866 < 0.05
Simulation CPU 0 panic: IPC 1.78e-05 < 0.01
Simulation CPU 0 critical: IPC 0.015534 < 0.02
Simulation CPU 0 warning: IPC 0.040309 < 0.05
Simulation CPU 0 critical: IPC 0.012405 < 0.02
Simulation CPU 0 warning: IPC 0.027773 < 0.05
Simulation CPU 0 warning: IPC 0.029735 < 0.05
Simulation CPU 0 warning: IPC 0.029312 < 0.05
Simulation CPU 0 warning: IPC 0.029609 < 0.05
Simulation CPU 0 critical: IPC 0.011383 < 0.02
Simulation CPU 0 warning: IPC 0.047585 < 0.05
Simulation CPU 0 warning: IPC 0.022881 < 0.05
Simulation CPU 0 warning: IPC 0.026457 < 0.05
Simulation CPU 0 warning: IPC 0.035748 < 0.05
Simulation CPU 0 critical: IPC 0.017912 < 0.02
Simulation CPU 0 warning: IPC 0.044051 < 0.05
Simulation CPU 0 warning: IPC 0.048801 < 0.05
Simulation CPU 0 critical: IPC 0.010075 < 0.02
Simulation CPU 0 warning: IPC 0.036067 < 0.05
Simulation CPU 0 warning: IPC 0.041541 < 0.05
Heartbeat CPU 0 instructions: 320000059 cycles: 11571472775 heartbeat IPC: 0.0259 cumulative IPC: 0.02765 (Simulation time: 15 hr 23 min 15 sec)
Simulation CPU 0 warning: IPC 0.041508 < 0.05
Simulation CPU 0 warning: IPC 0.039129 < 0.05
Simulation CPU 0 warning: IPC 0.043557 < 0.05
Simulation CPU 0 warning: IPC 0.036633 < 0.05
Simulation CPU 0 critical: IPC 0.015948 < 0.02
[ERROR_CYCLE] Error added at CPU cycle 11621040351, interval 25, pending count: 1
[DRAM_CYCLE_ERROR] Cycle-based error applied! address=0xbd9f8a510 additional_latency=2459910500 cycles
Simulation CPU 0 panic: IPC 0 < 0.01
Simulation CPU 0 warning: IPC 0.031019 < 0.05
Simulation CPU 0 warning: IPC 0.045734 < 0.05
Simulation CPU 0 critical: IPC 0.017598 < 0.02
Simulation CPU 0 warning: IPC 0.022717 < 0.05
Simulation CPU 0 warning: IPC 0.043413 < 0.05
Simulation CPU 0 panic: IPC 8e-06 < 0.01
Simulation CPU 0 panic: IPC 0.0030919 < 0.01
Simulation CPU 0 warning: IPC 0.020014 < 0.05
Simulation CPU 0 warning: IPC 0.045093 < 0.05
Simulation CPU 0 critical: IPC 0.013497 < 0.02
Simulation CPU 0 panic: IPC 0.0062005 < 0.01
Simulation CPU 0 critical: IPC 0.015511 < 0.02
Simulation CPU 0 warning: IPC 0.046371 < 0.05
Simulation CPU 0 warning: IPC 0.021705 < 0.05
Simulation CPU 0 panic: IPC 0.0093018 < 0.01
Simulation CPU 0 warning: IPC 0.045363 < 0.05
Simulation CPU 0 warning: IPC 0.032183 < 0.05
Simulation CPU 0 panic: IPC 0.0078857 < 0.01
Simulation CPU 0 critical: IPC 0.010701 < 0.02
Simulation CPU 0 warning: IPC 0.043418 < 0.05
Simulation CPU 0 warning: IPC 0.041584 < 0.05
Heartbeat CPU 0 instructions: 330000059 cycles: 11893538162 heartbeat IPC: 0.03105 cumulative IPC: 0.02775 (Simulation time: 15 hr 49 min 13 sec)
Simulation CPU 0 panic: IPC 0.0026279 < 0.01
Simulation CPU 0 critical: IPC 0.019069 < 0.02
Simulation CPU 0 critical: IPC 0.011933 < 0.02
Simulation CPU 0 warning: IPC 0.037478 < 0.05
Simulation CPU 0 critical: IPC 0.015502 < 0.02
Simulation CPU 0 panic: IPC 0.0093068 < 0.01
Simulation CPU 0 warning: IPC 0.020461 < 0.05
Simulation CPU 0 panic: IPC 7.2e-05 < 0.01
Simulation CPU 0 panic: IPC 0.0016288 < 0.01
Simulation CPU 0 panic: IPC 1.84e-05 < 0.01
Simulation CPU 0 panic: IPC 0.0001312 < 0.01
Simulation CPU 0 panic: IPC 3.2e-06 < 0.01
[ERROR_CYCLE] Error added at CPU cycle 12085881964, interval 26, pending count: 1
[DRAM_CYCLE_ERROR] Cycle-based error applied! address=0xf37db0598 additional_latency=2459910500 cycles
Simulation CPU 0 panic: IPC 1.36e-05 < 0.01
Simulation CPU 0 panic: IPC 0 < 0.01
Simulation CPU 0 panic: IPC 0.0024919 < 0.01
Simulation CPU 0 panic: IPC 0.0047004 < 0.01
Simulation CPU 0 critical: IPC 0.012413 < 0.02
Simulation CPU 0 warning: IPC 0.024817 < 0.05
Simulation CPU 0 panic: IPC 0.000472 < 0.01
Simulation CPU 0 warning: IPC 0.043807 < 0.05
Simulation CPU 0 warning: IPC 0.046168 < 0.05
Simulation CPU 0 panic: IPC 0.004067 < 0.01
Simulation CPU 0 warning: IPC 0.040332 < 0.05
Simulation CPU 0 warning: IPC 0.046509 < 0.05
Heartbeat CPU 0 instructions: 340000061 cycles: 12234090987 heartbeat IPC: 0.02936 cumulative IPC: 0.02779 (Simulation time: 16 hr 17 min 37 sec)
Simulation CPU 0 warning: IPC 0.029333 < 0.05
Simulation CPU 0 panic: IPC 0.0050973 < 0.01
Simulation CPU 0 warning: IPC 0.037208 < 0.05
Simulation CPU 0 warning: IPC 0.036471 < 0.05
Simulation CPU 0 warning: IPC 0.021722 < 0.05
Simulation CPU 0 critical: IPC 0.012396 < 0.02
Simulation CPU 0 panic: IPC 0.0007865 < 0.01
Simulation CPU 0 warning: IPC 0.035844 < 0.05
Simulation CPU 0 warning: IPC 0.047495 < 0.05
Simulation CPU 0 warning: IPC 0.038964 < 0.05
Simulation CPU 0 warning: IPC 0.020673 < 0.05
Simulation CPU 0 critical: IPC 0.016133 < 0.02
Simulation CPU 0 panic: IPC 0.0031009 < 0.01
Simulation CPU 0 warning: IPC 0.043416 < 0.05
Simulation CPU 0 warning: IPC 0.046522 < 0.05
Simulation CPU 0 panic: IPC 0.003109 < 0.01
Heartbeat CPU 0 instructions: 350000063 cycles: 12481646242 heartbeat IPC: 0.0404 cumulative IPC: 0.02804 (Simulation time: 16 hr 36 min 46 sec)
Simulation CPU 0 warning: IPC 0.048512 < 0.05
Simulation CPU 0 panic: IPC 0.0010976 < 0.01
Simulation CPU 0 warning: IPC 0.021709 < 0.05
Simulation CPU 0 warning: IPC 0.02002 < 0.05
Simulation CPU 0 warning: IPC 0.043431 < 0.05
Simulation CPU 0 critical: IPC 0.015498 < 0.02
[ERROR_CYCLE] Error added at CPU cycle 12550723579, interval 27, pending count: 1
[DRAM_CYCLE_ERROR] Cycle-based error applied! address=0x432805828 additional_latency=2459910500 cycles
Simulation CPU 0 panic: IPC 0 < 0.01
Simulation CPU 0 panic: IPC 0.0030999 < 0.01
Simulation CPU 0 panic: IPC 0.0093041 < 0.01
Simulation CPU 0 critical: IPC 0.01853 < 0.02
Simulation CPU 0 warning: IPC 0.045773 < 0.05
Simulation CPU 0 warning: IPC 0.02817 < 0.05
Simulation CPU 0 panic: IPC 0.009303 < 0.01
Simulation CPU 0 warning: IPC 0.044155 < 0.05
Simulation CPU 0 warning: IPC 0.04031 < 0.05
Simulation CPU 0 warning: IPC 0.027903 < 0.05
Simulation CPU 0 warning: IPC 0.043405 < 0.05
Simulation CPU 0 critical: IPC 0.018596 < 0.02
Simulation CPU 0 panic: IPC 0.0017278 < 0.01
Simulation CPU 0 warning: IPC 0.024677 < 0.05
Simulation CPU 0 panic: IPC 0.0031006 < 0.01
Simulation CPU 0 panic: IPC 0.0031022 < 0.01
Simulation CPU 0 panic: IPC 0.0062024 < 0.01
Simulation CPU 0 panic: IPC 0.0074109 < 0.01
Heartbeat CPU 0 instructions: 360000064 cycles: 12803707733 heartbeat IPC: 0.03105 cumulative IPC: 0.02812 (Simulation time: 17 hr 02 min 16 sec)
Simulation CPU 0 critical: IPC 0.01737 < 0.02
Simulation CPU 0 panic: IPC 0.0062005 < 0.01
Simulation CPU 0 warning: IPC 0.044939 < 0.05
Simulation CPU 0 critical: IPC 0.014318 < 0.02
Simulation CPU 0 warning: IPC 0.029759 < 0.05
Simulation CPU 0 warning: IPC 0.047573 < 0.05
Simulation CPU 0 warning: IPC 0.043901 < 0.05
Simulation CPU 0 warning: IPC 0.038218 < 0.05
Simulation CPU 0 warning: IPC 0.024802 < 0.05
Simulation CPU 0 warning: IPC 0.040305 < 0.05
Simulation CPU 0 warning: IPC 0.031056 < 0.05
Simulation CPU 0 warning: IPC 0.027909 < 0.05
Heartbeat CPU 0 instructions: 370000067 cycles: 13014318941 heartbeat IPC: 0.04748 cumulative IPC: 0.02843 (Simulation time: 17 hr 19 min 26 sec)
[ERROR_CYCLE] Error added at CPU cycle 13015565192, interval 28, pending count: 1
[DRAM_CYCLE_ERROR] Cycle-based error applied! address=0x5653098b8 additional_latency=2459910500 cycles
Simulation CPU 0 panic: IPC 0.0093047 < 0.01
Simulation CPU 0 panic: IPC 0 < 0.01
Simulation CPU 0 panic: IPC 0.0093327 < 0.01
Simulation CPU 0 panic: IPC 0.000472 < 0.01
Simulation CPU 0 panic: IPC 0.0057544 < 0.01
Simulation CPU 0 panic: IPC 0.0062129 < 0.01
Simulation CPU 0 panic: IPC 0.009303 < 0.01
Simulation CPU 0 warning: IPC 0.035923 < 0.05
Simulation CPU 0 panic: IPC 0.0016525 < 0.01
Simulation CPU 0 panic: IPC 0.0093033 < 0.01
Simulation CPU 0 warning: IPC 0.029402 < 0.05
Simulation CPU 0 warning: IPC 0.035713 < 0.05
Simulation CPU 0 critical: IPC 0.018628 < 0.02
Simulation CPU 0 warning: IPC 0.021723 < 0.05
Simulation CPU 0 warning: IPC 0.041632 < 0.05
Simulation CPU 0 critical: IPC 0.01108 < 0.02
Simulation CPU 0 critical: IPC 0.015497 < 0.02
Simulation CPU 0 warning: IPC 0.038524 < 0.05
Simulation CPU 0 warning: IPC 0.029168 < 0.05
Simulation CPU 0 warning: IPC 0.040877 < 0.05
Simulation CPU 0 critical: IPC 0.017965 < 0.02
Simulation CPU 0 critical: IPC 0.019269 < 0.02
Simulation CPU 0 warning: IPC 0.039789 < 0.05
Simulation CPU 0 warning: IPC 0.029745 < 0.05
Simulation CPU 0 warning: IPC 0.029276 < 0.05
Simulation CPU 0 warning: IPC 0.029812 < 0.05
Simulation CPU 0 warning: IPC 0.02925 < 0.05
Simulation CPU 0 panic: IPC 0.0065015 < 0.01
Simulation CPU 0 warning: IPC 0.037195 < 0.05
Simulation CPU 0 warning: IPC 0.024816 < 0.05
Simulation CPU 0 panic: IPC 0.0062018 < 0.01
Simulation CPU 0 critical: IPC 0.015509 < 0.02
Simulation CPU 0 panic: IPC 0.0062018 < 0.01
Simulation CPU 0 warning: IPC 0.031004 < 0.05
Simulation CPU 0 panic: IPC 0.002347 < 0.01
Simulation CPU 0 panic: IPC 0.0069728 < 0.01
Simulation CPU 0 warning: IPC 0.043432 < 0.05
Simulation CPU 0 warning: IPC 0.043412 < 0.05
Simulation CPU 0 panic: IPC 0.0030953 < 0.01
Simulation CPU 0 critical: IPC 0.015512 < 0.02
Simulation CPU 0 critical: IPC 0.018611 < 0.02
Simulation CPU 0 panic: IPC 0.0031012 < 0.01
Heartbeat CPU 0 instructions: 380000068 cycles: 13465704156 heartbeat IPC: 0.02215 cumulative IPC: 0.02822 (Simulation time: 17 hr 54 min 13 sec)
Simulation CPU 0 warning: IPC 0.046507 < 0.05
Simulation CPU 0 warning: IPC 0.04342 < 0.05
[ERROR_CYCLE] Error added at CPU cycle 13480406807, interval 29, pending count: 1
[DRAM_CYCLE_ERROR] Cycle-based error applied! address=0x565337c18 additional_latency=2459910500 cycles
Simulation CPU 0 panic: IPC 0 < 0.01
Simulation CPU 0 panic: IPC 0.0062036 < 0.01
Simulation CPU 0 warning: IPC 0.026012 < 0.05
Simulation CPU 0 warning: IPC 0.029858 < 0.05
Simulation CPU 0 warning: IPC 0.049948 < 0.05
Simulation CPU 0 panic: IPC 0.0031046 < 0.01
Simulation CPU 0 warning: IPC 0.040314 < 0.05
Simulation CPU 0 warning: IPC 0.021448 < 0.05
Simulation CPU 0 warning: IPC 0.02925 < 0.05
Simulation CPU 0 warning: IPC 0.03919 < 0.05
Simulation CPU 0 warning: IPC 0.033182 < 0.05
Simulation CPU 0 warning: IPC 0.021731 < 0.05
Simulation CPU 0 warning: IPC 0.023812 < 0.05
Simulation CPU 0 warning: IPC 0.029689 < 0.05
Simulation CPU 0 warning: IPC 0.029297 < 0.05
Simulation CPU 0 critical: IPC 0.019543 < 0.02
Simulation CPU 0 warning: IPC 0.027911 < 0.05
Simulation CPU 0 critical: IPC 0.012411 < 0.02
Simulation CPU 0 warning: IPC 0.04033 < 0.05
Simulation CPU 0 critical: IPC 0.012409 < 0.02
Simulation CPU 0 panic: IPC 0.000472 < 0.01
Simulation CPU 0 panic: IPC 0.00574 < 0.01
Simulation CPU 0 panic: IPC 0.0093138 < 0.01
Simulation CPU 0 critical: IPC 0.018616 < 0.02
Simulation CPU 0 critical: IPC 0.01861 < 0.02
Simulation CPU 0 panic: IPC 0.0031048 < 0.01
Simulation CPU 0 panic: IPC 0.0062126 < 0.01
Simulation CPU 0 critical: IPC 0.012415 < 0.02
Simulation CPU 0 panic: IPC 0.0031042 < 0.01
Simulation CPU 0 panic: IPC 0.009321 < 0.01
Simulation CPU 0 critical: IPC 0.015963 < 0.02
Simulation CPU 0 panic: IPC 0.0002832 < 0.01
Simulation CPU 0 panic: IPC 0.0008984 < 0.01
Simulation CPU 0 panic: IPC 0.0045696 < 0.01
Simulation CPU 0 warning: IPC 0.040315 < 0.05
Heartbeat CPU 0 instructions: 390000071 cycles: 13870913444 heartbeat IPC: 0.02468 cumulative IPC: 0.02812 (Simulation time: 18 hr 25 min 19 sec)
Simulation CPU 0 critical: IPC 0.014718 < 0.02
Simulation CPU 0 warning: IPC 0.031814 < 0.05
Simulation CPU 0 warning: IPC 0.036148 < 0.05
Simulation CPU 0 critical: IPC 0.019944 < 0.02
Simulation CPU 0 warning: IPC 0.023459 < 0.05
[ERROR_CYCLE] Error added at CPU cycle 13945248420, interval 30, pending count: 1
[DRAM_CYCLE_ERROR] Cycle-based error applied! address=0x565365ce8 additional_latency=2459910500 cycles
Simulation CPU 0 warning: IPC 0.03102 < 0.05
Simulation CPU 0 panic: IPC 0 < 0.01
Simulation CPU 0 panic: IPC 0.0092997 < 0.01
Simulation CPU 0 panic: IPC 8e-06 < 0.01
Simulation CPU 0 panic: IPC 5.68e-05 < 0.01
Simulation CPU 0 warning: IPC 0.021773 < 0.05
Simulation CPU 0 panic: IPC 0.0055141 < 0.01
Simulation CPU 0 warning: IPC 0.034124 < 0.05
Simulation CPU 0 critical: IPC 0.012256 < 0.02
Simulation CPU 0 warning: IPC 0.027422 < 0.05
Simulation CPU 0 warning: IPC 0.022564 < 0.05
Simulation CPU 0 panic: IPC 0.0031006 < 0.01
Simulation CPU 0 warning: IPC 0.035698 < 0.05
Simulation CPU 0 critical: IPC 0.01823 < 0.02
Simulation CPU 0 critical: IPC 0.017428 < 0.02
Simulation CPU 0 warning: IPC 0.031016 < 0.05
Simulation CPU 0 critical: IPC 0.012422 < 0.02
Simulation CPU 0 critical: IPC 0.01861 < 0.02
Simulation CPU 0 warning: IPC 0.021743 < 0.05
Simulation CPU 0 critical: IPC 0.012408 < 0.02
Simulation CPU 0 warning: IPC 0.034109 < 0.05
Simulation CPU 0 critical: IPC 0.012444 < 0.02
Simulation CPU 0 critical: IPC 0.0186 < 0.02
Simulation CPU 0 warning: IPC 0.046518 < 0.05
Simulation CPU 0 warning: IPC 0.021736 < 0.05
Simulation CPU 0 warning: IPC 0.027924 < 0.05
Simulation CPU 0 panic: IPC 0.0039776 < 0.01
Simulation CPU 0 panic: IPC 0.0094057 < 0.01
Heartbeat CPU 0 instructions: 400000074 cycles: 14248423581 heartbeat IPC: 0.02649 cumulative IPC: 0.02807 (Simulation time: 18 hr 58 min 36 sec)
Simulation CPU 0 critical: IPC 0.018858 < 0.02
Simulation CPU 0 warning: IPC 0.030789 < 0.05
Simulation CPU 0 critical: IPC 0.018617 < 0.02
Simulation CPU 0 panic: IPC 0.0058215 < 0.01
Simulation CPU 0 critical: IPC 0.01241 < 0.02
Simulation CPU 0 panic: IPC 0.0061965 < 0.01
Simulation CPU 0 panic: IPC 1.02e-05 < 0.01
Simulation CPU 0 warning: IPC 0.024813 < 0.05
Simulation CPU 0 warning: IPC 0.037224 < 0.05
Simulation CPU 0 panic: IPC 0.009309 < 0.01
Simulation CPU 0 warning: IPC 0.040325 < 0.05
Simulation CPU 0 panic: IPC 0.0062011 < 0.01
[ERROR_CYCLE] Error added at CPU cycle 14410090035, interval 31, pending count: 1
[DRAM_CYCLE_ERROR] Cycle-based error applied! address=0x565393da8 additional_latency=2459910500 cycles
Simulation CPU 0 panic: IPC 0 < 0.01
Simulation CPU 0 panic: IPC 0.0031084 < 0.01
Simulation CPU 0 warning: IPC 0.027915 < 0.05
Simulation CPU 0 critical: IPC 0.013215 < 0.02
Simulation CPU 0 warning: IPC 0.040289 < 0.05
Simulation CPU 0 critical: IPC 0.012398 < 0.02
Simulation CPU 0 warning: IPC 0.030482 < 0.05
Simulation CPU 0 panic: IPC 0.0098672 < 0.01
Simulation CPU 0 panic: IPC 0.0031012 < 0.01
Simulation CPU 0 warning: IPC 0.040327 < 0.05
Simulation CPU 0 panic: IPC 0.0062005 < 0.01
Simulation CPU 0 panic: IPC 0.0031078 < 0.01
Simulation CPU 0 panic: IPC 0.0093333 < 0.01
Simulation CPU 0 panic: IPC 0.009336 < 0.01
Simulation CPU 0 panic: IPC 0.0093042 < 0.01
Simulation CPU 0 warning: IPC 0.031551 < 0.05
Simulation CPU 0 warning: IPC 0.049067 < 0.05
Simulation CPU 0 critical: IPC 0.015523 < 0.02
Heartbeat CPU 0 instructions: 410000076 cycles: 14625915863 heartbeat IPC: 0.02649 cumulative IPC: 0.02803 (Simulation time: 19 hr 27 min 33 sec)
Simulation CPU 0 critical: IPC 0.015525 < 0.02
Simulation CPU 0 panic: IPC 0.0062005 < 0.01
Simulation CPU 0 panic: IPC 0.0030996 < 0.01
Simulation CPU 0 panic: IPC 0.0093164 < 0.01
Simulation CPU 0 critical: IPC 0.012411 < 0.02
Simulation CPU 0 critical: IPC 0.012408 < 0.02
Simulation CPU 0 panic: IPC 8e-06 < 0.01
Simulation CPU 0 critical: IPC 0.012403 < 0.02
Simulation CPU 0 warning: IPC 0.027906 < 0.05
Simulation CPU 0 panic: IPC 0.0031114 < 0.01
Simulation CPU 0 warning: IPC 0.037229 < 0.05
Simulation CPU 0 warning: IPC 0.034128 < 0.05
Simulation CPU 0 panic: IPC 0.003084 < 0.01
Simulation CPU 0 critical: IPC 0.012042 < 0.02
Simulation CPU 0 warning: IPC 0.0298 < 0.05
Simulation CPU 0 warning: IPC 0.032607 < 0.05
Simulation CPU 0 warning: IPC 0.026507 < 0.05
Simulation CPU 0 warning: IPC 0.041735 < 0.05
Simulation CPU 0 warning: IPC 0.043385 < 0.05
Simulation CPU 0 critical: IPC 0.018619 < 0.02
Simulation CPU 0 warning: IPC 0.040398 < 0.05
Simulation CPU 0 warning: IPC 0.034016 < 0.05
Simulation CPU 0 warning: IPC 0.040307 < 0.05
Simulation CPU 0 warning: IPC 0.024816 < 0.05
Simulation CPU 0 critical: IPC 0.015561 < 0.02
[ERROR_CYCLE] Error added at CPU cycle 14874931648, interval 32, pending count: 1
[DRAM_CYCLE_ERROR] Cycle-based error applied! address=0x5653c1df8 additional_latency=2459910500 cycles
Simulation CPU 0 warning: IPC 0.034143 < 0.05
Simulation CPU 0 panic: IPC 0 < 0.01
Simulation CPU 0 warning: IPC 0.03633 < 0.05
Simulation CPU 0 panic: IPC 0.0070043 < 0.01
Simulation CPU 0 warning: IPC 0.027904 < 0.05
Simulation CPU 0 warning: IPC 0.024959 < 0.05
Simulation CPU 0 warning: IPC 0.029558 < 0.05
Simulation CPU 0 warning: IPC 0.029441 < 0.05
Simulation CPU 0 warning: IPC 0.044923 < 0.05
Simulation CPU 0 critical: IPC 0.01417 < 0.02
Simulation CPU 0 warning: IPC 0.029543 < 0.05
Simulation CPU 0 warning: IPC 0.032081 < 0.05
Simulation CPU 0 warning: IPC 0.026979 < 0.05
Simulation CPU 0 panic: IPC 0.0062023 < 0.01
Simulation CPU 0 warning: IPC 0.049613 < 0.05
Heartbeat CPU 0 instructions: 420000076 cycles: 15031105879 heartbeat IPC: 0.02468 cumulative IPC: 0.02794 (Simulation time: 19 hr 57 min 40 sec)
Simulation CPU 0 warning: IPC 0.021708 < 0.05
Simulation CPU 0 warning: IPC 0.046482 < 0.05
Simulation CPU 0 critical: IPC 0.015543 < 0.02
Simulation CPU 0 panic: IPC 0.0032104 < 0.01
Simulation CPU 0 panic: IPC 0.0092044 < 0.01
Simulation CPU 0 warning: IPC 0.039748 < 0.05
Simulation CPU 0 warning: IPC 0.039785 < 0.05
Simulation CPU 0 warning: IPC 0.0321 < 0.05
Simulation CPU 0 warning: IPC 0.026915 < 0.05
Simulation CPU 0 warning: IPC 0.029809 < 0.05
Simulation CPU 0 warning: IPC 0.029306 < 0.05
Simulation CPU 0 warning: IPC 0.029878 < 0.05
Simulation CPU 0 warning: IPC 0.029855 < 0.05
Simulation CPU 0 warning: IPC 0.021706 < 0.05
Simulation CPU 0 warning: IPC 0.036555 < 0.05
Simulation CPU 0 warning: IPC 0.02998 < 0.05
Simulation CPU 0 warning: IPC 0.029031 < 0.05
Simulation CPU 0 warning: IPC 0.031015 < 0.05
Simulation CPU 0 warning: IPC 0.021714 < 0.05
Simulation CPU 0 critical: IPC 0.018596 < 0.02
Simulation CPU 0 critical: IPC 0.014136 < 0.02
Simulation CPU 0 warning: IPC 0.029266 < 0.05
Simulation CPU 0 warning: IPC 0.029825 < 0.05
Simulation CPU 0 critical: IPC 0.019819 < 0.02
Simulation CPU 0 warning: IPC 0.039257 < 0.05
Simulation CPU 0 warning: IPC 0.029666 < 0.05
Simulation CPU 0 warning: IPC 0.02722 < 0.05
Simulation CPU 0 critical: IPC 0.018629 < 0.02
Simulation CPU 0 warning: IPC 0.034101 < 0.05
[ERROR_CYCLE] Error added at CPU cycle 15339773263, interval 33, pending count: 1
Simulation CPU 0 warning: IPC 0.021716 < 0.05
[DRAM_CYCLE_ERROR] Cycle-based error applied! address=0x5653efee0 additional_latency=2459910500 cycles
Simulation CPU 0 panic: IPC 0 < 0.01
Simulation CPU 0 warning: IPC 0.027914 < 0.05
Simulation CPU 0 warning: IPC 0.021709 < 0.05
Simulation CPU 0 critical: IPC 0.014137 < 0.02
Simulation CPU 0 panic: IPC 0.0093023 < 0.01
Heartbeat CPU 0 instructions: 430000076 cycles: 15408566736 heartbeat IPC: 0.02649 cumulative IPC: 0.02791 (Simulation time: 20 hr 29 min 18 sec)
Simulation CPU 0 panic: IPC 0.0072213 < 0.01
Simulation CPU 0 warning: IPC 0.020689 < 0.05
Simulation CPU 0 critical: IPC 0.015489 < 0.02
Simulation CPU 0 warning: IPC 0.040997 < 0.05
Simulation CPU 0 panic: IPC 0.0062046 < 0.01
Simulation CPU 0 panic: IPC 0.0031042 < 0.01
Simulation CPU 0 critical: IPC 0.015376 < 0.02
Simulation CPU 0 warning: IPC 0.028056 < 0.05
Simulation CPU 0 warning: IPC 0.043424 < 0.05
Simulation CPU 0 panic: IPC 0.0061952 < 0.01
Simulation CPU 0 panic: IPC 6.5e-06 < 0.01
Simulation CPU 0 panic: IPC 0.0062072 < 0.01
Simulation CPU 0 warning: IPC 0.046517 < 0.05
Simulation CPU 0 warning: IPC 0.045376 < 0.05
Simulation CPU 0 warning: IPC 0.029617 < 0.05
Simulation CPU 0 warning: IPC 0.029297 < 0.05
Simulation CPU 0 warning: IPC 0.020716 < 0.05
Simulation CPU 0 warning: IPC 0.03312 < 0.05
Simulation CPU 0 warning: IPC 0.034915 < 0.05
Simulation CPU 0 warning: IPC 0.029307 < 0.05
Simulation CPU 0 critical: IPC 0.016464 < 0.02
Simulation CPU 0 panic: IPC 0.005414 < 0.01
Simulation CPU 0 warning: IPC 0.029218 < 0.05
Simulation CPU 0 warning: IPC 0.029052 < 0.05
Simulation CPU 0 warning: IPC 0.02989 < 0.05
Simulation CPU 0 critical: IPC 0.01972 < 0.02
Simulation CPU 0 warning: IPC 0.029427 < 0.05
Heartbeat CPU 0 instructions: 440000080 cycles: 15739267758 heartbeat IPC: 0.03024 cumulative IPC: 0.02796 (Simulation time: 20 hr 55 min 20 sec)
Simulation CPU 0 warning: IPC 0.027796 < 0.05
Simulation CPU 0 warning: IPC 0.04074 < 0.05
Simulation CPU 0 warning: IPC 0.02933 < 0.05
Simulation CPU 0 warning: IPC 0.029538 < 0.05
Simulation CPU 0 warning: IPC 0.029308 < 0.05
[ERROR_CYCLE] Error added at CPU cycle 15804614876, interval 34, pending count: 1
[DRAM_CYCLE_ERROR] Cycle-based error applied! address=0x84d91c340 additional_latency=2459910500 cycles
Simulation CPU 0 warning: IPC 0.040877 < 0.05
Simulation CPU 0 panic: IPC 0 < 0.01
Simulation CPU 0 warning: IPC 0.033284 < 0.05
Simulation CPU 0 warning: IPC 0.029006 < 0.05
Simulation CPU 0 panic: IPC 0.006203 < 0.01
Simulation CPU 0 warning: IPC 0.027915 < 0.05
Simulation CPU 0 panic: IPC 0.0093029 < 0.01
Simulation CPU 0 panic: IPC 0.0031012 < 0.01
Simulation CPU 0 warning: IPC 0.021702 < 0.05
Simulation CPU 0 warning: IPC 0.034128 < 0.05
Simulation CPU 0 panic: IPC 0.0031151 < 0.01
Simulation CPU 0 warning: IPC 0.028689 < 0.05
Simulation CPU 0 warning: IPC 0.020958 < 0.05
Simulation CPU 0 panic: IPC 0.0030986 < 0.01
Simulation CPU 0 critical: IPC 0.018678 < 0.02
Simulation CPU 0 warning: IPC 0.024006 < 0.05
Simulation CPU 0 critical: IPC 0.010108 < 0.02
Simulation CPU 0 warning: IPC 0.046518 < 0.05
Simulation CPU 0 warning: IPC 0.049633 < 0.05
Simulation CPU 0 warning: IPC 0.02793 < 0.05
Simulation CPU 0 warning: IPC 0.031777 < 0.05
Simulation CPU 0 warning: IPC 0.03027 < 0.05
Simulation CPU 0 panic: IPC 0.0030999 < 0.01
Heartbeat CPU 0 instructions: 450000081 cycles: 16065950575 heartbeat IPC: 0.03061 cumulative IPC: 0.02801 (Simulation time: 21 hr 21 min 20 sec)
Simulation CPU 0 warning: IPC 0.03411 < 0.05
Simulation CPU 0 warning: IPC 0.031004 < 0.05
Simulation CPU 0 critical: IPC 0.018049 < 0.02
Simulation CPU 0 warning: IPC 0.038017 < 0.05
Simulation CPU 0 warning: IPC 0.033012 < 0.05
Simulation CPU 0 panic: IPC 0.0010496 < 0.01
Simulation CPU 0 warning: IPC 0.046116 < 0.05
Simulation CPU 0 warning: IPC 0.029246 < 0.05
Simulation CPU 0 warning: IPC 0.029731 < 0.05
Simulation CPU 0 panic: IPC 0.006206 < 0.01
Simulation CPU 0 warning: IPC 0.021699 < 0.05
Heartbeat CPU 0 instructions: 460000083 cycles: 16267312985 heartbeat IPC: 0.04966 cumulative IPC: 0.02828 (Simulation time: 21 hr 37 min 41 sec)
[ERROR_CYCLE] Error added at CPU cycle 16269456491, interval 35, pending count: 1
[DRAM_CYCLE_ERROR] Cycle-based error applied! address=0x84d949078 additional_latency=2459910500 cycles
Simulation CPU 0 panic: IPC 0 < 0.01
Simulation CPU 0 panic: IPC 0.0093073 < 0.01
Simulation CPU 0 warning: IPC 0.038353 < 0.05
Simulation CPU 0 critical: IPC 0.019389 < 0.02
Simulation CPU 0 warning: IPC 0.038587 < 0.05
Heartbeat CPU 0 instructions: 470000085 cycles: 16432303444 heartbeat IPC: 0.06061 cumulative IPC: 0.0286 (Simulation time: 21 hr 50 min 42 sec)
Simulation CPU 0 critical: IPC 0.01758 < 0.02
Simulation CPU 0 warning: IPC 0.0292 < 0.05
Simulation CPU 0 warning: IPC 0.033956 < 0.05
Simulation CPU 0 warning: IPC 0.024869 < 0.05
Simulation CPU 0 warning: IPC 0.034794 < 0.05
Simulation CPU 0 warning: IPC 0.039108 < 0.05
Simulation CPU 0 warning: IPC 0.038182 < 0.05
Heartbeat CPU 0 instructions: 480000086 cycles: 16605953019 heartbeat IPC: 0.05759 cumulative IPC: 0.02891 (Simulation time: 22 hr 05 min 22 sec)
Simulation CPU 0 warning: IPC 0.045766 < 0.05
Simulation CPU 0 warning: IPC 0.035068 < 0.05
Simulation CPU 0 warning: IPC 0.048391 < 0.05
Simulation CPU 0 warning: IPC 0.029598 < 0.05
Simulation CPU 0 critical: IPC 0.016004 < 0.02
[ERROR_CYCLE] Error added at CPU cycle 16734298104, interval 36, pending count: 1
[DRAM_CYCLE_ERROR] Cycle-based error applied! address=0xd76500000 additional_latency=2459910500 cycles
Simulation CPU 0 panic: IPC 0 < 0.01
Simulation CPU 0 warning: IPC 0.027933 < 0.05
Heartbeat CPU 0 instructions: 490000086 cycles: 16780191033 heartbeat IPC: 0.05739 cumulative IPC: 0.0292 (Simulation time: 22 hr 18 min 50 sec)
Simulation CPU 0 warning: IPC 0.029706 < 0.05
Simulation CPU 0 warning: IPC 0.030159 < 0.05
Simulation CPU 0 warning: IPC 0.024804 < 0.05
Simulation CPU 0 warning: IPC 0.046508 < 0.05
Simulation CPU 0 panic: IPC 0.0093066 < 0.01
Simulation CPU 0 panic: IPC 0.0062005 < 0.01
Simulation CPU 0 warning: IPC 0.038937 < 0.05
Simulation CPU 0 panic: IPC 0.0044773 < 0.01
Simulation CPU 0 panic: IPC 0.00311 < 0.01
Simulation CPU 0 critical: IPC 0.015505 < 0.02
Simulation CPU 0 critical: IPC 0.01241 < 0.02
Simulation CPU 0 warning: IPC 0.0426 < 0.05
Simulation CPU 0 panic: IPC 0.0031031 < 0.01
Simulation CPU 0 warning: IPC 0.034128 < 0.05
Simulation CPU 0 warning: IPC 0.024813 < 0.05
Simulation CPU 0 panic: IPC 0.006206 < 0.01
Simulation CPU 0 warning: IPC 0.027904 < 0.05
Simulation CPU 0 panic: IPC 6.5e-06 < 0.01
Simulation CPU 0 warning: IPC 0.021711 < 0.05
Simulation CPU 0 panic: IPC 0.0031018 < 0.01
Simulation CPU 0 warning: IPC 0.043448 < 0.05
Simulation CPU 0 panic: IPC 0.0031031 < 0.01
Simulation CPU 0 warning: IPC 0.031037 < 0.05
Simulation CPU 0 panic: IPC 0.0031036 < 0.01
Simulation CPU 0 critical: IPC 0.018612 < 0.02
Simulation CPU 0 critical: IPC 0.015977 < 0.02
Simulation CPU 0 warning: IPC 0.036742 < 0.05
Heartbeat CPU 0 instructions: 500000086 cycles: 17129389357 heartbeat IPC: 0.02864 cumulative IPC: 0.02919 (Simulation time: 22 hr 46 min 45 sec)
Simulation CPU 0 warning: IPC 0.025715 < 0.05
Simulation CPU 0 warning: IPC 0.023917 < 0.05
Simulation CPU 0 panic: IPC 0 < 0.01
Simulation CPU 0 warning: IPC 0.021717 < 0.05
Simulation CPU 0 warning: IPC 0.031016 < 0.05
Simulation CPU 0 panic: IPC 0.0031072 < 0.01
[ERROR_CYCLE] Error added at CPU cycle 17199139719, interval 37, pending count: 1
Simulation CPU 0 panic: IPC 0.0030873 < 0.01
[DRAM_CYCLE_ERROR] Cycle-based error applied! address=0x2f808a778 additional_latency=2459910500 cycles
Simulation CPU 0 panic: IPC 0 < 0.01
Simulation CPU 0 panic: IPC 2.58e-05 < 0.01
Simulation CPU 0 warning: IPC 0.02791 < 0.05
Simulation CPU 0 panic: IPC 0.0062088 < 0.01
Simulation CPU 0 warning: IPC 0.049653 < 0.05
Simulation CPU 0 panic: IPC 0.0031018 < 0.01
Simulation CPU 0 warning: IPC 0.029531 < 0.05
Simulation CPU 0 warning: IPC 0.0418 < 0.05
Simulation CPU 0 critical: IPC 0.018623 < 0.02
Simulation CPU 0 warning: IPC 0.044458 < 0.05
Simulation CPU 0 warning: IPC 0.039301 < 0.05
Simulation CPU 0 panic: IPC 0.0062048 < 0.01
Simulation CPU 0 warning: IPC 0.024799 < 0.05
Simulation CPU 0 panic: IPC 0.0031179 < 0.01
Simulation CPU 0 critical: IPC 0.012416 < 0.02
Simulation CPU 0 critical: IPC 0.016063 < 0.02
Simulation CPU 0 warning: IPC 0.021708 < 0.05
Heartbeat CPU 0 instructions: 510000087 cycles: 17428340812 heartbeat IPC: 0.03345 cumulative IPC: 0.02926 (Simulation time: 23 hr 12 min 25 sec)
Simulation CPU 0 warning: IPC 0.048599 < 0.05
Simulation CPU 0 warning: IPC 0.03464 < 0.05
Simulation CPU 0 warning: IPC 0.033076 < 0.05
Simulation CPU 0 warning: IPC 0.025885 < 0.05
Simulation CPU 0 critical: IPC 0.019365 < 0.02
Simulation CPU 0 warning: IPC 0.03502 < 0.05
Simulation CPU 0 warning: IPC 0.029186 < 0.05
Simulation CPU 0 warning: IPC 0.029728 < 0.05
Simulation CPU 0 warning: IPC 0.04492 < 0.05
Heartbeat CPU 0 instructions: 520000087 cycles: 17601969023 heartbeat IPC: 0.05759 cumulative IPC: 0.02954 (Simulation time: 23 hr 25 min 24 sec)
Simulation CPU 0 warning: IPC 0.03936 < 0.05
[ERROR_CYCLE] Error added at CPU cycle 17663981332, interval 38, pending count: 1
[DRAM_CYCLE_ERROR] Cycle-based error applied! address=0x84d9cbec8 additional_latency=2459910500 cycles
Simulation CPU 0 panic: IPC 0 < 0.01
Simulation CPU 0 warning: IPC 0.0395 < 0.05
Simulation CPU 0 warning: IPC 0.029736 < 0.05
[...]
Simulation CPU 0 panic: IPC 4.8e-06 < 0.01
[DRAM_CYCLE_ERROR] Cycle-based error applied! address=0x52f50cec8 additional_latency=2459910500 cycles
Simulation CPU 0 panic: IPC 0 < 0.01
Simulation CPU 0 panic: IPC 1.12e-05 < 0.01
Simulation CPU 0 panic: IPC 3.2e-06 < 0.01
Simulation CPU 0 panic: IPC 2.56e-05 < 0.01
Simulation CPU 0 panic: IPC 1.2e-05 < 0.01
Simulation CPU 0 panic: IPC 2.08e-05 < 0.01
Simulation CPU 0 panic: IPC 2.4e-05 < 0.01
Simulation CPU 0 panic: IPC 1.12e-05 < 0.01
Simulation CPU 0 panic: IPC 8e-06 < 0.01
Simulation CPU 0 panic: IPC 8e-06 < 0.01
Simulation CPU 0 panic: IPC 8e-07 < 0.01
Simulation CPU 0 panic: IPC 8e-07 < 0.01
Simulation CPU 0 panic: IPC 8e-07 < 0.01
Simulation CPU 0 panic: IPC 1.6e-05 < 0.01
Simulation CPU 0 panic: IPC 8e-06 < 0.01
Simulation CPU 0 panic: IPC 7.2e-06 < 0.01
Simulation CPU 0 panic: IPC 1.6e-06 < 0.01
Simulation CPU 0 panic: IPC 3.2e-06 < 0.01
Simulation CPU 0 panic: IPC 2.4e-06 < 0.01
Simulation CPU 0 panic: IPC 4e-06 < 0.01
Simulation CPU 0 panic: IPC 8e-07 < 0.01
Simulation CPU 0 panic: IPC 1.6e-06 < 0.01
Simulation CPU 0 panic: IPC 1.6e-05 < 0.01
Simulation CPU 0 panic: IPC 1.6e-06 < 0.01
Simulation CPU 0 panic: IPC 8e-07 < 0.01
Simulation CPU 0 panic: IPC 2.4e-06 < 0.01
Simulation CPU 0 panic: IPC 1.6e-06 < 0.01
Simulation CPU 0 panic: IPC 2.4e-06 < 0.01
Simulation CPU 0 panic: IPC 2.4e-06 < 0.01
Simulation CPU 0 panic: IPC 8e-07 < 0.01
Simulation CPU 0 panic: IPC 1.6e-06 < 0.01
Simulation CPU 0 panic: IPC 2.4e-06 < 0.01
Simulation CPU 0 panic: IPC 2.4e-06 < 0.01
Simulation CPU 0 panic: IPC 2.4e-06 < 0.01
Simulation CPU 0 panic: IPC 9.6e-06 < 0.01
Simulation CPU 0 panic: IPC 8.8e-06 < 0.01
Simulation CPU 0 panic: IPC 2.4e-06 < 0.01
Simulation CPU 0 panic: IPC 3.2e-06 < 0.01
Simulation CPU 0 panic: IPC 1.6e-06 < 0.01
Simulation CPU 0 panic: IPC 2.4e-06 < 0.01
Simulation CPU 0 panic: IPC 3.2e-06 < 0.01
Simulation CPU 0 panic: IPC 2.4e-06 < 0.01
Simulation CPU 0 panic: IPC 8e-07 < 0.01
Simulation CPU 0 panic: IPC 1.6e-06 < 0.01
Simulation CPU 0 panic: IPC 8.8e-06 < 0.01
Simulation CPU 0 panic: IPC 0 < 0.01
[ERROR_CYCLE] Error added at CPU cycle 21382714244, interval 46, pending count: 1
[DRAM_CYCLE_ERROR] Cycle-based error applied! address=0xfebb0d020 additional_latency=2459910500 cycles
Simulation CPU 0 panic: IPC 0 < 0.01
Simulation CPU 0 panic: IPC 8e-07 < 0.01
Simulation CPU 0 panic: IPC 2.4e-06 < 0.01
Simulation CPU 0 panic: IPC 8e-07 < 0.01
Simulation CPU 0 panic: IPC 7.2e-06 < 0.01
Simulation CPU 0 panic: IPC 9.6e-06 < 0.01
Simulation CPU 0 panic: IPC 4.4e-05 < 0.01
Simulation CPU 0 panic: IPC 0.0024192 < 0.01
Simulation CPU 0 panic: IPC 4.16e-05 < 0.01
Simulation CPU 0 panic: IPC 0.001323 < 0.01
Simulation CPU 0 panic: IPC 0.003622 < 0.01
Simulation CPU 0 panic: IPC 7.2e-05 < 0.01
Simulation CPU 0 panic: IPC 4.08e-05 < 0.01
Simulation CPU 0 panic: IPC 0.0001712 < 0.01
Simulation CPU 0 panic: IPC 0.0049372 < 0.01
Simulation CPU 0 panic: IPC 0.0002944 < 0.01
Simulation CPU 0 panic: IPC 9.6e-06 < 0.01
Simulation CPU 0 panic: IPC 0.0001184 < 0.01
Simulation CPU 0 panic: IPC 0.0005118 < 0.01
Simulation CPU 0 panic: IPC 0.001616 < 0.01
Simulation CPU 0 critical: IPC 0.012032 < 0.02
Simulation CPU 0 panic: IPC 0.0067939 < 0.01
Simulation CPU 0 panic: IPC 8.8e-06 < 0.01
Simulation CPU 0 panic: IPC 0.0002 < 0.01
Simulation CPU 0 panic: IPC 0.0001408 < 0.01
Simulation CPU 0 panic: IPC 0.0004406 < 0.01
Simulation CPU 0 panic: IPC 0.000472 < 0.01
Simulation CPU 0 panic: IPC 0.0036352 < 0.01
Simulation CPU 0 panic: IPC 4e-06 < 0.01
Simulation CPU 0 panic: IPC 0.000148 < 0.01
Simulation CPU 0 panic: IPC 0.0024168 < 0.01
Simulation CPU 0 panic: IPC 0.0003168 < 0.01
Simulation CPU 0 panic: IPC 0 < 0.01
Simulation CPU 0 panic: IPC 0.0054117 < 0.01
Simulation CPU 0 panic: IPC 0.0007384 < 0.01
Simulation CPU 0 panic: IPC 8.8e-06 < 0.01
Simulation CPU 0 panic: IPC 3.2e-05 < 0.01
Simulation CPU 0 panic: IPC 0.0078982 < 0.01
Simulation CPU 0 panic: IPC 7.36e-05 < 0.01
Simulation CPU 0 panic: IPC 1.68e-05 < 0.01
Simulation CPU 0 panic: IPC 0.0010046 < 0.01
Simulation CPU 0 panic: IPC 0.0040191 < 0.01
Simulation CPU 0 panic: IPC 0.0001256 < 0.01
Simulation CPU 0 panic: IPC 8e-06 < 0.01
Simulation CPU 0 panic: IPC 1.6e-06 < 0.01
Simulation CPU 0 panic: IPC 8e-07 < 0.01
[ERROR_CYCLE] Error added at CPU cycle 21847555859, interval 47, pending count: 1
Simulation CPU 0 panic: IPC 9.2e-05 < 0.01
[DRAM_CYCLE_ERROR] Cycle-based error applied! address=0xd511f88d8 additional_latency=2459910500 cycles
Simulation CPU 0 panic: IPC 0 < 0.01
Simulation CPU 0 panic: IPC 8.8e-06 < 0.01
Simulation CPU 0 panic: IPC 1.84e-05 < 0.01
Simulation CPU 0 panic: IPC 1.04e-05 < 0.01
Simulation CPU 0 panic: IPC 1.6e-05 < 0.01
Simulation CPU 0 panic: IPC 8e-06 < 0.01
Simulation CPU 0 panic: IPC 8e-07 < 0.01
Simulation CPU 0 panic: IPC 8e-07 < 0.01
Simulation CPU 0 panic: IPC 8e-07 < 0.01
Simulation CPU 0 panic: IPC 1.6e-06 < 0.01
Simulation CPU 0 panic: IPC 4.56e-05 < 0.01
Simulation CPU 0 panic: IPC 4e-06 < 0.01
Simulation CPU 0 panic: IPC 3.2e-06 < 0.01
Simulation CPU 0 panic: IPC 2.4e-06 < 0.01
Simulation CPU 0 panic: IPC 1.6e-06 < 0.01
Simulation CPU 0 panic: IPC 3.28e-05 < 0.01
Simulation CPU 0 panic: IPC 1.6e-06 < 0.01
Simulation CPU 0 panic: IPC 1.6e-06 < 0.01
Simulation CPU 0 panic: IPC 8e-07 < 0.01
Simulation CPU 0 panic: IPC 2.4e-06 < 0.01
Simulation CPU 0 panic: IPC 8e-07 < 0.01
Simulation CPU 0 panic: IPC 1.6e-06 < 0.01
Simulation CPU 0 panic: IPC 1.6e-06 < 0.01
Simulation CPU 0 panic: IPC 1.6e-06 < 0.01
Simulation CPU 0 panic: IPC 0.0004312 < 0.01
Simulation CPU 0 panic: IPC 1.04e-05 < 0.01
Simulation CPU 0 panic: IPC 0.0070724 < 0.01
Simulation CPU 0 panic: IPC 0.0061447 < 0.01
Simulation CPU 0 panic: IPC 0.0064913 < 0.01
Simulation CPU 0 panic: IPC 1.6e-05 < 0.01
Simulation CPU 0 panic: IPC 0.0064294 < 0.01
Simulation CPU 0 panic: IPC 0.0057119 < 0.01
Simulation CPU 0 panic: IPC 0.0001839 < 0.01
Simulation CPU 0 panic: IPC 0.0059527 < 0.01
Simulation CPU 0 panic: IPC 0.0017838 < 0.01
Simulation CPU 0 panic: IPC 0.0076111 < 0.01
Simulation CPU 0 panic: IPC 1.6e-05 < 0.01
Simulation CPU 0 panic: IPC 0.0030772 < 0.01
Simulation CPU 0 panic: IPC 0.000472 < 0.01
Simulation CPU 0 critical: IPC 0.017551 < 0.02
Simulation CPU 0 panic: IPC 0.0093071 < 0.01
Simulation CPU 0 panic: IPC 0.0067663 < 0.01
Simulation CPU 0 critical: IPC 0.018621 < 0.02
Simulation CPU 0 panic: IPC 0.0035732 < 0.01
Simulation CPU 0 panic: IPC 0.0016288 < 0.01
Simulation CPU 0 warning: IPC 0.032017 < 0.05
[ERROR_CYCLE] Error added at CPU cycle 22312397472, interval 48, pending count: 1
[DRAM_CYCLE_ERROR] Cycle-based error applied! address=0xf8a590c38 additional_latency=2459910500 cycles
Simulation CPU 0 panic: IPC 0 < 0.01
Simulation CPU 0 critical: IPC 0.017288 < 0.02
Simulation CPU 0 panic: IPC 0.0044207 < 0.01
Simulation CPU 0 warning: IPC 0.021719 < 0.05
Simulation CPU 0 warning: IPC 0.024823 < 0.05
Simulation CPU 0 critical: IPC 0.011657 < 0.02
Simulation CPU 0 panic: IPC 0.0038559 < 0.01
Simulation CPU 0 panic: IPC 0.0006256 < 0.01
Simulation CPU 0 warning: IPC 0.033499 < 0.05
Simulation CPU 0 panic: IPC 0.0066718 < 0.01
Simulation CPU 0 panic: IPC 0.0031072 < 0.01
Simulation CPU 0 warning: IPC 0.021721 < 0.05
Simulation CPU 0 critical: IPC 0.01552 < 0.02
Simulation CPU 0 panic: IPC 0.0052756 < 0.01
Simulation CPU 0 critical: IPC 0.010236 < 0.02
Simulation CPU 0 panic: IPC 0.0062017 < 0.01
Simulation CPU 0 warning: IPC 0.027915 < 0.05
Simulation CPU 0 critical: IPC 0.017163 < 0.02
Simulation CPU 0 panic: IPC 0.0045766 < 0.01
Simulation CPU 0 warning: IPC 0.031037 < 0.05
Simulation CPU 0 critical: IPC 0.015518 < 0.02
Simulation CPU 0 panic: IPC 0.0061998 < 0.01
Simulation CPU 0 panic: IPC 0.0031018 < 0.01
Simulation CPU 0 critical: IPC 0.01551 < 0.02
Simulation CPU 0 warning: IPC 0.027918 < 0.05
Simulation CPU 0 panic: IPC 0.0093055 < 0.01
Simulation CPU 0 warning: IPC 0.049616 < 0.05
Simulation CPU 0 warning: IPC 0.021704 < 0.05
Simulation CPU 0 panic: IPC 0.0062078 < 0.01
Simulation CPU 0 panic: IPC 0.0093041 < 0.01
Simulation CPU 0 warning: IPC 0.034113 < 0.05
Simulation CPU 0 critical: IPC 0.015508 < 0.02
Simulation CPU 0 panic: IPC 0.009306 < 0.01
Heartbeat CPU 0 instructions: 620000107 cycles: 22686095396 heartbeat IPC: 0.004995 cumulative IPC: 0.02733 (Simulation time: 06 hr 14 min 35 sec)
Simulation CPU 0 warning: IPC 0.040321 < 0.05
Simulation CPU 0 panic: IPC 0.000192 < 0.01
Simulation CPU 0 panic: IPC 0.0029122 < 0.01
Simulation CPU 0 warning: IPC 0.021706 < 0.05
Simulation CPU 0 critical: IPC 0.018607 < 0.02
Simulation CPU 0 critical: IPC 0.018603 < 0.02
Simulation CPU 0 warning: IPC 0.046539 < 0.05
Simulation CPU 0 panic: IPC 0.0062005 < 0.01
Simulation CPU 0 panic: IPC 0.003124 < 0.01
[ERROR_CYCLE] Error added at CPU cycle 22777239087, interval 49, pending count: 1
[DRAM_CYCLE_ERROR] Cycle-based error applied! address=0x52f5cf790 additional_latency=2459910500 cycles
Simulation CPU 0 critical: IPC 0.012412 < 0.02
Simulation CPU 0 panic: IPC 0 < 0.01
Simulation CPU 0 warning: IPC 0.024073 < 0.05
Simulation CPU 0 panic: IPC 0.0062011 < 0.01
Simulation CPU 0 warning: IPC 0.025978 < 0.05
Simulation CPU 0 warning: IPC 0.043415 < 0.05
Simulation CPU 0 warning: IPC 0.021723 < 0.05
Simulation CPU 0 critical: IPC 0.018602 < 0.02
Simulation CPU 0 critical: IPC 0.011185 < 0.02
Simulation CPU 0 critical: IPC 0.012402 < 0.02
Simulation CPU 0 warning: IPC 0.033699 < 0.05
Simulation CPU 0 critical: IPC 0.012413 < 0.02
Simulation CPU 0 panic: IPC 0.000184 < 0.01
Simulation CPU 0 warning: IPC 0.024611 < 0.05
Simulation CPU 0 warning: IPC 0.024808 < 0.05
Simulation CPU 0 warning: IPC 0.034107 < 0.05
Simulation CPU 0 critical: IPC 0.017094 < 0.02
Simulation CPU 0 warning: IPC 0.044159 < 0.05
Simulation CPU 0 warning: IPC 0.041061 < 0.05
Simulation CPU 0 critical: IPC 0.012414 < 0.02
Heartbeat CPU 0 instructions: 630000107 cycles: 23045918069 heartbeat IPC: 0.02779 cumulative IPC: 0.02734 (Simulation time: 06 hr 42 min 31 sec)
Simulation CPU 0 warning: IPC 0.029791 < 0.05
Simulation CPU 0 panic: IPC 0.0043402 < 0.01
Simulation CPU 0 warning: IPC 0.037215 < 0.05
Simulation CPU 0 warning: IPC 0.031017 < 0.05
Simulation CPU 0 panic: IPC 0.0093077 < 0.01
Simulation CPU 0 critical: IPC 0.015529 < 0.02
Simulation CPU 0 warning: IPC 0.024805 < 0.05
Simulation CPU 0 critical: IPC 0.016581 < 0.02
Simulation CPU 0 panic: IPC 0.0024094 < 0.01
Simulation CPU 0 warning: IPC 0.027527 < 0.05
Simulation CPU 0 warning: IPC 0.02171 < 0.05
Simulation CPU 0 warning: IPC 0.027179 < 0.05
Simulation CPU 0 panic: IPC 0.0069412 < 0.01
Simulation CPU 0 panic: IPC 0.0031018 < 0.01
Simulation CPU 0 warning: IPC 0.034116 < 0.05
Simulation CPU 0 panic: IPC 0.0031006 < 0.01
Simulation CPU 0 warning: IPC 0.045314 < 0.05
Simulation CPU 0 panic: IPC 0.0074235 < 0.01
Simulation CPU 0 critical: IPC 0.01241 < 0.02
Simulation CPU 0 panic: IPC 0.0075364 < 0.01
[ERROR_CYCLE] Error added at CPU cycle 23242080700, interval 50, pending count: 1
[DRAM_CYCLE_ERROR] Cycle-based error applied! address=0x52f5fd970 additional_latency=2459910500 cycles
Simulation CPU 0 panic: IPC 0.0079893 < 0.01
Simulation CPU 0 critical: IPC 0.018618 < 0.02
Simulation CPU 0 warning: IPC 0.03102 < 0.05
Simulation CPU 0 warning: IPC 0.025043 < 0.05
Simulation CPU 0 warning: IPC 0.041263 < 0.05
Simulation CPU 0 warning: IPC 0.04798 < 0.05
Simulation CPU 0 critical: IPC 0.015971 < 0.02
Simulation CPU 0 warning: IPC 0.031011 < 0.05
Simulation CPU 0 warning: IPC 0.040039 < 0.05
Simulation CPU 0 critical: IPC 0.016726 < 0.02
Simulation CPU 0 panic: IPC 0.0061998 < 0.01
Simulation CPU 0 critical: IPC 0.015503 < 0.02
Simulation CPU 0 warning: IPC 0.030164 < 0.05
Heartbeat CPU 0 instructions: 640000107 cycles: 23414480973 heartbeat IPC: 0.02713 cumulative IPC: 0.02733 (Simulation time: 07 hr 09 min 24 sec)
Simulation CPU 0 panic: IPC 0.0031572 < 0.01
Simulation CPU 0 warning: IPC 0.034159 < 0.05
Simulation CPU 0 warning: IPC 0.024032 < 0.05
Simulation CPU 0 warning: IPC 0.041118 < 0.05
Simulation CPU 0 warning: IPC 0.026887 < 0.05
Simulation CPU 0 warning: IPC 0.028948 < 0.05
Simulation CPU 0 warning: IPC 0.027934 < 0.05
Simulation CPU 0 warning: IPC 0.024822 < 0.05
Simulation CPU 0 critical: IPC 0.01079 < 0.02
Simulation CPU 0 critical: IPC 0.014344 < 0.02
Simulation CPU 0 critical: IPC 0.015515 < 0.02
Simulation CPU 0 warning: IPC 0.031004 < 0.05
Simulation CPU 0 warning: IPC 0.034313 < 0.05
Simulation CPU 0 warning: IPC 0.043214 < 0.05
Simulation CPU 0 critical: IPC 0.01347 < 0.02
Simulation CPU 0 panic: IPC 0.0043543 < 0.01
Simulation CPU 0 critical: IPC 0.010341 < 0.02
Simulation CPU 0 warning: IPC 0.045159 < 0.05
Simulation CPU 0 panic: IPC 0.0031012 < 0.01
Simulation CPU 0 warning: IPC 0.049605 < 0.05
Simulation CPU 0 critical: IPC 0.0104 < 0.02
[ERROR_CYCLE] Error added at CPU cycle 23706922315, interval 51, pending count: 1
[DRAM_CYCLE_ERROR] Cycle-based error applied! address=0xfc5300008 additional_latency=2459910500 cycles
Simulation CPU 0 panic: IPC 0 < 0.01
Simulation CPU 0 panic: IPC 0.0051055 < 0.01
Heartbeat CPU 0 instructions: 650000107 cycles: 23727879185 heartbeat IPC: 0.03191 cumulative IPC: 0.02739 (Simulation time: 07 hr 34 min 34 sec)
Simulation CPU 0 critical: IPC 0.010009 < 0.02
Simulation CPU 0 critical: IPC 0.018736 < 0.02
Simulation CPU 0 critical: IPC 0.01241 < 0.02
Simulation CPU 0 panic: IPC 0.0062072 < 0.01
Simulation CPU 0 warning: IPC 0.039196 < 0.05
Simulation CPU 0 warning: IPC 0.029702 < 0.05
Simulation CPU 0 warning: IPC 0.02939 < 0.05
Simulation CPU 0 critical: IPC 0.010258 < 0.02
Simulation CPU 0 panic: IPC 0.0031024 < 0.01
Simulation CPU 0 warning: IPC 0.032355 < 0.05
Simulation CPU 0 critical: IPC 0.0111 < 0.02
Simulation CPU 0 warning: IPC 0.047545 < 0.05
Simulation CPU 0 panic: IPC 0.008277 < 0.01
Simulation CPU 0 warning: IPC 0.027925 < 0.05
Simulation CPU 0 panic: IPC 0.009307 < 0.01
Simulation CPU 0 warning: IPC 0.03722 < 0.05
Simulation CPU 0 panic: IPC 0.0092693 < 0.01
Simulation CPU 0 panic: IPC 4.51e-05 < 0.01
Simulation CPU 0 warning: IPC 0.036719 < 0.05
Simulation CPU 0 critical: IPC 0.016012 < 0.02
Simulation CPU 0 warning: IPC 0.039539 < 0.05
Simulation CPU 0 critical: IPC 0.010076 < 0.02
Simulation CPU 0 warning: IPC 0.048623 < 0.05
Simulation CPU 0 critical: IPC 0.010294 < 0.02
Simulation CPU 0 warning: IPC 0.037237 < 0.05
Simulation CPU 0 warning: IPC 0.049649 < 0.05
Simulation CPU 0 critical: IPC 0.018624 < 0.02
Simulation CPU 0 warning: IPC 0.043426 < 0.05
Simulation CPU 0 panic: IPC 0.0093061 < 0.01
Simulation CPU 0 warning: IPC 0.028628 < 0.05
Simulation CPU 0 panic: IPC 0.0024102 < 0.01
Heartbeat CPU 0 instructions: 660000108 cycles: 24086412747 heartbeat IPC: 0.02789 cumulative IPC: 0.0274 (Simulation time: 08 hr 00 min 33 sec)
Simulation CPU 0 critical: IPC 0.015643 < 0.02
Simulation CPU 0 warning: IPC 0.043451 < 0.05
Simulation CPU 0 panic: IPC 0.0084649 < 0.01
Simulation CPU 0 warning: IPC 0.025684 < 0.05
Simulation CPU 0 critical: IPC 0.012413 < 0.02
Simulation CPU 0 panic: IPC 0.0081634 < 0.01
Simulation CPU 0 warning: IPC 0.025966 < 0.05
Simulation CPU 0 critical: IPC 0.018657 < 0.02
[ERROR_CYCLE] Error added at CPU cycle 24171763928, interval 52, pending count: 1
[DRAM_CYCLE_ERROR] Cycle-based error applied! address=0x45caf5230 additional_latency=2459910500 cycles
Simulation CPU 0 panic: IPC 0 < 0.01
Simulation CPU 0 panic: IPC 0.0031006 < 0.01
Simulation CPU 0 panic: IPC 0.0092991 < 0.01
Simulation CPU 0 warning: IPC 0.044329 < 0.05
Simulation CPU 0 panic: IPC 0.0030999 < 0.01
Simulation CPU 0 panic: IPC 0.0061998 < 0.01
Simulation CPU 0 warning: IPC 0.031049 < 0.05
Simulation CPU 0 panic: IPC 0.0093126 < 0.01
Simulation CPU 0 warning: IPC 0.03647 < 0.05
Simulation CPU 0 warning: IPC 0.035116 < 0.05
Simulation CPU 0 panic: IPC 0.000472 < 0.01
Simulation CPU 0 panic: IPC 0.0057418 < 0.01
Simulation CPU 0 critical: IPC 0.012426 < 0.02
Simulation CPU 0 panic: IPC 0.006212 < 0.01
Simulation CPU 0 warning: IPC 0.021753 < 0.05
Simulation CPU 0 warning: IPC 0.024834 < 0.05
Simulation CPU 0 warning: IPC 0.047009 < 0.05
Simulation CPU 0 warning: IPC 0.0468 < 0.05
Simulation CPU 0 warning: IPC 0.02793 < 0.05
Simulation CPU 0 warning: IPC 0.030166 < 0.05
Simulation CPU 0 warning: IPC 0.022567 < 0.05
Simulation CPU 0 panic: IPC 0.0062108 < 0.01
Heartbeat CPU 0 instructions: 670000109 cycles: 24436205416 heartbeat IPC: 0.02859 cumulative IPC: 0.02742 (Simulation time: 08 hr 30 min 21 sec)
Simulation CPU 0 panic: IPC 0.0014384 < 0.01
Simulation CPU 0 warning: IPC 0.037209 < 0.05
Simulation CPU 0 warning: IPC 0.044677 < 0.05
Simulation CPU 0 critical: IPC 0.012403 < 0.02
Simulation CPU 0 critical: IPC 0.015029 < 0.02
Simulation CPU 0 warning: IPC 0.046519 < 0.05
Simulation CPU 0 critical: IPC 0.015504 < 0.02
Simulation CPU 0 warning: IPC 0.024818 < 0.05
Simulation CPU 0 panic: IPC 0.0031036 < 0.01
Simulation CPU 0 panic: IPC 0.0084616 < 0.01
Simulation CPU 0 warning: IPC 0.047365 < 0.05
Simulation CPU 0 panic: IPC 0.0093138 < 0.01
Simulation CPU 0 warning: IPC 0.032754 < 0.05
Simulation CPU 0 critical: IPC 0.010662 < 0.02
Simulation CPU 0 panic: IPC 0.0093265 < 0.01
[ERROR_CYCLE] Error added at CPU cycle 24636605542, interval 53, pending count: 1
[DRAM_CYCLE_ERROR] Cycle-based error applied! address=0x2cf81ec70 additional_latency=2459910500 cycles
Simulation CPU 0 panic: IPC 0 < 0.01
Simulation CPU 0 warning: IPC 0.029317 < 0.05
Heartbeat CPU 0 instructions: 680000110 cycles: 24693628129 heartbeat IPC: 0.03885 cumulative IPC: 0.02754 (Simulation time: 08 hr 52 min 46 sec)
Simulation CPU 0 warning: IPC 0.029217 < 0.05
Simulation CPU 0 warning: IPC 0.029707 < 0.05
Simulation CPU 0 warning: IPC 0.048405 < 0.05
Simulation CPU 0 critical: IPC 0.01878 < 0.02
Simulation CPU 0 warning: IPC 0.031035 < 0.05
Simulation CPU 0 warning: IPC 0.027916 < 0.05
Simulation CPU 0 warning: IPC 0.031632 < 0.05
Heartbeat CPU 0 instructions: 690000111 cycles: 24858025566 heartbeat IPC: 0.06083 cumulative IPC: 0.02776 (Simulation time: 09 hr 07 min 26 sec)
Simulation CPU 0 warning: IPC 0.035268 < 0.05
Simulation CPU 0 warning: IPC 0.029251 < 0.05
Heartbeat CPU 0 instructions: 700000115 cycles: 24994705587 heartbeat IPC: 0.07316 cumulative IPC: 0.02801 (Simulation time: 09 hr 19 min 48 sec)
Simulation CPU 0 warning: IPC 0.029709 < 0.05
Simulation CPU 0 warning: IPC 0.035022 < 0.05
Simulation CPU 0 warning: IPC 0.036332 < 0.05
[ERROR_CYCLE] Error added at CPU cycle 25101447156, interval 54, pending count: 1
[DRAM_CYCLE_ERROR] Cycle-based error applied! address=0x9a65081a0 additional_latency=2459910500 cycles
Simulation CPU 0 panic: IPC 0 < 0.01
Simulation CPU 0 warning: IPC 0.043417 < 0.05
Heartbeat CPU 0 instructions: 710000116 cycles: 25150464180 heartbeat IPC: 0.0642 cumulative IPC: 0.02823 (Simulation time: 09 hr 33 min 34 sec)
Simulation CPU 0 warning: IPC 0.029637 < 0.05
Simulation CPU 0 panic: IPC 0.0097349 < 0.01
Simulation CPU 0 warning: IPC 0.029869 < 0.05
Heartbeat CPU 0 instructions: 720000117 cycles: 25296371533 heartbeat IPC: 0.06854 cumulative IPC: 0.02846 (Simulation time: 09 hr 46 min 50 sec)
Simulation CPU 0 panic: IPC 0.003605 < 0.01
Simulation CPU 0 warning: IPC 0.042641 < 0.05
Simulation CPU 0 warning: IPC 0.030786 < 0.05
Simulation CPU 0 warning: IPC 0.032025 < 0.05
Simulation CPU 0 warning: IPC 0.023111 < 0.05
Simulation CPU 0 warning: IPC 0.02654 < 0.05
Simulation CPU 0 warning: IPC 0.031702 < 0.05
Simulation CPU 0 warning: IPC 0.031758 < 0.05
Simulation CPU 0 warning: IPC 0.04232 < 0.05
Simulation CPU 0 warning: IPC 0.032213 < 0.05
Simulation CPU 0 warning: IPC 0.044649 < 0.05
Simulation CPU 0 warning: IPC 0.032925 < 0.05
Simulation CPU 0 warning: IPC 0.043438 < 0.05
Simulation CPU 0 critical: IPC 0.013149 < 0.02
Heartbeat CPU 0 instructions: 730000120 cycles: 25525450165 heartbeat IPC: 0.04365 cumulative IPC: 0.0286 (Simulation time: 10 hr 03 min 23 sec)
Simulation CPU 