[VMEM] WARNING: physical memory size is smaller than virtual memory size.

*** ChampSim Multicore Out-of-Order Simulator ***
Warmup Instructions: 0
Simulation Instructions: 9223372036854775807
Number of CPUs: 1
Page size: 4096

Off-chip DRAM Size: 64 GiB Channels: 2 Width: 32-bit Data Rate: 4807 MT/s
[ERROR_PAGE_MANAGER] Error latency: 0 
[ERROR_PAGE_MANAGER] Random seed: 54321 (fixed for preload reproducibility)
[ERROR_PAGE_MANAGER] Error pages off

=== ERROR PAGE STATISTICS ===
Mode: OFF
Total Error Accesses: 0
==============================
Warmup finished CPU 0 instructions: 0 cycles: 1 cumulative IPC: 0 (Simulation time: 00 hr 00 min 03 sec)
Warmup complete CPU 0 instructions: 0 cycles: 1 cumulative IPC: 0 (Simulation time: 00 hr 00 min 03 sec)
Heartbeat CPU 0 instructions: 10000003 cycles: 9267110 heartbeat IPC: 1.079 cumulative IPC: 1.079 (Simulation time: 00 hr 01 min 08 sec)
Heartbeat CPU 0 instructions: 20000006 cycles: 19900777 heartbeat IPC: 0.9404 cumulative IPC: 1.005 (Simulation time: 00 hr 02 min 12 sec)
Heartbeat CPU 0 instructions: 30000006 cycles: 32036301 heartbeat IPC: 0.824 cumulative IPC: 0.9364 (Simulation time: 00 hr 03 min 36 sec)
Heartbeat CPU 0 instructions: 40000008 cycles: 48170100 heartbeat IPC: 0.6198 cumulative IPC: 0.8304 (Simulation time: 00 hr 05 min 54 sec)
Heartbeat CPU 0 instructions: 50000009 cycles: 59509392 heartbeat IPC: 0.8819 cumulative IPC: 0.8402 (Simulation time: 00 hr 07 min 28 sec)
Heartbeat CPU 0 instructions: 60000012 cycles: 71628635 heartbeat IPC: 0.8251 cumulative IPC: 0.8377 (Simulation time: 00 hr 09 min 05 sec)
Heartbeat CPU 0 instructions: 70000012 cycles: 86224985 heartbeat IPC: 0.6851 cumulative IPC: 0.8118 (Simulation time: 00 hr 11 min 05 sec)
Heartbeat CPU 0 instructions: 80000013 cycles: 98234120 heartbeat IPC: 0.8327 cumulative IPC: 0.8144 (Simulation time: 00 hr 12 min 41 sec)
Heartbeat CPU 0 instructions: 90000015 cycles: 110693802 heartbeat IPC: 0.8026 cumulative IPC: 0.8131 (Simulation time: 00 hr 14 min 21 sec)
Heartbeat CPU 0 instructions: 100000015 cycles: 128020170 heartbeat IPC: 0.5772 cumulative IPC: 0.7811 (Simulation time: 00 hr 16 min 38 sec)
Heartbeat CPU 0 instructions: 110000019 cycles: 134471366 heartbeat IPC: 1.55 cumulative IPC: 0.818 (Simulation time: 00 hr 17 min 42 sec)
Heartbeat CPU 0 instructions: 120000021 cycles: 142649434 heartbeat IPC: 1.223 cumulative IPC: 0.8412 (Simulation time: 00 hr 18 min 54 sec)
Heartbeat CPU 0 instructions: 130000021 cycles: 148733229 heartbeat IPC: 1.644 cumulative IPC: 0.874 (Simulation time: 00 hr 19 min 53 sec)
Heartbeat CPU 0 instructions: 140000021 cycles: 157004561 heartbeat IPC: 1.209 cumulative IPC: 0.8917 (Simulation time: 00 hr 21 min 06 sec)
Heartbeat CPU 0 instructions: 150000024 cycles: 163606223 heartbeat IPC: 1.515 cumulative IPC: 0.9168 (Simulation time: 00 hr 22 min 07 sec)
Heartbeat CPU 0 instructions: 160000027 cycles: 171013135 heartbeat IPC: 1.35 cumulative IPC: 0.9356 (Simulation time: 00 hr 23 min 15 sec)
Heartbeat CPU 0 instructions: 170000028 cycles: 178948823 heartbeat IPC: 1.26 cumulative IPC: 0.95 (Simulation time: 00 hr 24 min 12 sec)
Heartbeat CPU 0 instructions: 180000028 cycles: 185146501 heartbeat IPC: 1.614 cumulative IPC: 0.9722 (Simulation time: 00 hr 24 min 54 sec)
Heartbeat CPU 0 instructions: 190000028 cycles: 193896848 heartbeat IPC: 1.143 cumulative IPC: 0.9799 (Simulation time: 00 hr 25 min 48 sec)
Heartbeat CPU 0 instructions: 200000028 cycles: 200252857 heartbeat IPC: 1.573 cumulative IPC: 0.9987 (Simulation time: 00 hr 26 min 33 sec)
Heartbeat CPU 0 instructions: 210000028 cycles: 206637345 heartbeat IPC: 1.566 cumulative IPC: 1.016 (Simulation time: 00 hr 27 min 17 sec)
Heartbeat CPU 0 instructions: 220000030 cycles: 213126273 heartbeat IPC: 1.541 cumulative IPC: 1.032 (Simulation time: 00 hr 28 min 14 sec)
Heartbeat CPU 0 instructions: 230000031 cycles: 225712423 heartbeat IPC: 0.7945 cumulative IPC: 1.019 (Simulation time: 00 hr 29 min 57 sec)
Heartbeat CPU 0 instructions: 240000032 cycles: 238484752 heartbeat IPC: 0.7829 cumulative IPC: 1.006 (Simulation time: 00 hr 31 min 43 sec)
Heartbeat CPU 0 instructions: 250000033 cycles: 244784115 heartbeat IPC: 1.587 cumulative IPC: 1.021 (Simulation time: 00 hr 32 min 45 sec)
Heartbeat CPU 0 instructions: 260000037 cycles: 251866038 heartbeat IPC: 1.412 cumulative IPC: 1.032 (Simulation time: 00 hr 33 min 53 sec)
Heartbeat CPU 0 instructions: 270000040 cycles: 258747676 heartbeat IPC: 1.453 cumulative IPC: 1.043 (Simulation time: 00 hr 35 min 00 sec)
Heartbeat CPU 0 instructions: 280000044 cycles: 264938398 heartbeat IPC: 1.615 cumulative IPC: 1.057 (Simulation time: 00 hr 36 min 01 sec)
Heartbeat CPU 0 instructions: 290000047 cycles: 271771805 heartbeat IPC: 1.463 cumulative IPC: 1.067 (Simulation time: 00 hr 37 min 07 sec)
Heartbeat CPU 0 instructions: 300000049 cycles: 279917411 heartbeat IPC: 1.228 cumulative IPC: 1.072 (Simulation time: 00 hr 38 min 19 sec)
Heartbeat CPU 0 instructions: 310000049 cycles: 292388687 heartbeat IPC: 0.8018 cumulative IPC: 1.06 (Simulation time: 00 hr 40 min 04 sec)
Heartbeat CPU 0 instructions: 320000053 cycles: 301301300 heartbeat IPC: 1.122 cumulative IPC: 1.062 (Simulation time: 00 hr 41 min 25 sec)
Heartbeat CPU 0 instructions: 330000055 cycles: 312053666 heartbeat IPC: 0.93 cumulative IPC: 1.058 (Simulation time: 00 hr 42 min 51 sec)
Heartbeat CPU 0 instructions: 340000057 cycles: 324110048 heartbeat IPC: 0.8294 cumulative IPC: 1.049 (Simulation time: 00 hr 44 min 30 sec)
Heartbeat CPU 0 instructions: 350000057 cycles: 339927843 heartbeat IPC: 0.6322 cumulative IPC: 1.03 (Simulation time: 00 hr 46 min 41 sec)
Heartbeat CPU 0 instructions: 360000059 cycles: 351613007 heartbeat IPC: 0.8558 cumulative IPC: 1.024 (Simulation time: 00 hr 48 min 14 sec)
Heartbeat CPU 0 instructions: 370000059 cycles: 363925704 heartbeat IPC: 0.8122 cumulative IPC: 1.017 (Simulation time: 00 hr 49 min 43 sec)
Heartbeat CPU 0 instructions: 380000060 cycles: 378691923 heartbeat IPC: 0.6772 cumulative IPC: 1.003 (Simulation time: 00 hr 51 min 05 sec)
Heartbeat CPU 0 instructions: 390000060 cycles: 391102034 heartbeat IPC: 0.8058 cumulative IPC: 0.9972 (Simulation time: 00 hr 52 min 38 sec)
Heartbeat CPU 0 instructions: 400000060 cycles: 403919935 heartbeat IPC: 0.7802 cumulative IPC: 0.9903 (Simulation time: 00 hr 54 min 20 sec)
Heartbeat CPU 0 instructions: 410000063 cycles: 418350777 heartbeat IPC: 0.693 cumulative IPC: 0.98 (Simulation time: 00 hr 56 min 06 sec)
Heartbeat CPU 0 instructions: 420000066 cycles: 430722981 heartbeat IPC: 0.8083 cumulative IPC: 0.9751 (Simulation time: 00 hr 57 min 23 sec)
Heartbeat CPU 0 instructions: 430000068 cycles: 445178822 heartbeat IPC: 0.6918 cumulative IPC: 0.9659 (Simulation time: 00 hr 58 min 55 sec)
Heartbeat CPU 0 instructions: 440000069 cycles: 458848573 heartbeat IPC: 0.7315 cumulative IPC: 0.9589 (Simulation time: 01 hr 00 min 13 sec)
Heartbeat CPU 0 instructions: 450000069 cycles: 471076992 heartbeat IPC: 0.8178 cumulative IPC: 0.9553 (Simulation time: 01 hr 01 min 39 sec)
Heartbeat CPU 0 instructions: 460000072 cycles: 486833451 heartbeat IPC: 0.6347 cumulative IPC: 0.9449 (Simulation time: 01 hr 03 min 18 sec)
Heartbeat CPU 0 instructions: 470000074 cycles: 504232285 heartbeat IPC: 0.5748 cumulative IPC: 0.9321 (Simulation time: 01 hr 05 min 26 sec)
Heartbeat CPU 0 instructions: 480000074 cycles: 510604623 heartbeat IPC: 1.569 cumulative IPC: 0.9401 (Simulation time: 01 hr 06 min 25 sec)
Heartbeat CPU 0 instructions: 490000078 cycles: 517754220 heartbeat IPC: 1.399 cumulative IPC: 0.9464 (Simulation time: 01 hr 07 min 37 sec)
Heartbeat CPU 0 instructions: 500000080 cycles: 526603999 heartbeat IPC: 1.13 cumulative IPC: 0.9495 (Simulation time: 01 hr 08 min 45 sec)
Heartbeat CPU 0 instructions: 510000083 cycles: 538151619 heartbeat IPC: 0.866 cumulative IPC: 0.9477 (Simulation time: 01 hr 10 min 00 sec)
Heartbeat CPU 0 instructions: 520000087 cycles: 544583313 heartbeat IPC: 1.555 cumulative IPC: 0.9549 (Simulation time: 01 hr 11 min 07 sec)
Heartbeat CPU 0 instructions: 530000091 cycles: 551851831 heartbeat IPC: 1.376 cumulative IPC: 0.9604 (Simulation time: 01 hr 12 min 19 sec)
Heartbeat CPU 0 instructions: 540000092 cycles: 561423233 heartbeat IPC: 1.045 cumulative IPC: 0.9618 (Simulation time: 01 hr 13 min 43 sec)
Heartbeat CPU 0 instructions: 550000092 cycles: 573359155 heartbeat IPC: 0.8378 cumulative IPC: 0.9593 (Simulation time: 01 hr 15 min 20 sec)
Heartbeat CPU 0 instructions: 560000093 cycles: 579794038 heartbeat IPC: 1.554 cumulative IPC: 0.9659 (Simulation time: 01 hr 16 min 28 sec)
Heartbeat CPU 0 instructions: 570000093 cycles: 587053315 heartbeat IPC: 1.378 cumulative IPC: 0.971 (Simulation time: 01 hr 17 min 42 sec)
Heartbeat CPU 0 instructions: 580000093 cycles: 596663796 heartbeat IPC: 1.041 cumulative IPC: 0.9721 (Simulation time: 01 hr 19 min 08 sec)
Heartbeat CPU 0 instructions: 590000093 cycles: 608304985 heartbeat IPC: 0.859 cumulative IPC: 0.9699 (Simulation time: 01 hr 20 min 43 sec)
Heartbeat CPU 0 instructions: 600000094 cycles: 614809955 heartbeat IPC: 1.537 cumulative IPC: 0.9759 (Simulation time: 01 hr 21 min 52 sec)
Heartbeat CPU 0 instructions: 610000096 cycles: 622057652 heartbeat IPC: 1.38 cumulative IPC: 0.9806 (Simulation time: 01 hr 23 min 06 sec)
Heartbeat CPU 0 instructions: 620000096 cycles: 631955006 heartbeat IPC: 1.01 cumulative IPC: 0.9811 (Simulation time: 01 hr 24 min 30 sec)
Heartbeat CPU 0 instructions: 630000097 cycles: 643745993 heartbeat IPC: 0.8481 cumulative IPC: 0.9786 (Simulation time: 01 hr 25 min 36 sec)
Heartbeat CPU 0 instructions: 640000097 cycles: 650269752 heartbeat IPC: 1.533 cumulative IPC: 0.9842 (Simulation time: 01 hr 26 min 24 sec)
Heartbeat CPU 0 instructions: 650000098 cycles: 657579812 heartbeat IPC: 1.368 cumulative IPC: 0.9885 (Simulation time: 01 hr 27 min 33 sec)
Heartbeat CPU 0 instructions: 660000099 cycles: 667533295 heartbeat IPC: 1.005 cumulative IPC: 0.9887 (Simulation time: 01 hr 28 min 56 sec)
Heartbeat CPU 0 instructions: 670000103 cycles: 679776695 heartbeat IPC: 0.8168 cumulative IPC: 0.9856 (Simulation time: 01 hr 30 min 29 sec)
Heartbeat CPU 0 instructions: 680000105 cycles: 686178231 heartbeat IPC: 1.562 cumulative IPC: 0.991 (Simulation time: 01 hr 31 min 21 sec)
Heartbeat CPU 0 instructions: 690000106 cycles: 692605420 heartbeat IPC: 1.556 cumulative IPC: 0.9962 (Simulation time: 01 hr 32 min 05 sec)
Heartbeat CPU 0 instructions: 700000110 cycles: 699014646 heartbeat IPC: 1.56 cumulative IPC: 1.001 (Simulation time: 01 hr 32 min 47 sec)
Heartbeat CPU 0 instructions: 710000110 cycles: 706450220 heartbeat IPC: 1.345 cumulative IPC: 1.005 (Simulation time: 01 hr 33 min 35 sec)
Heartbeat CPU 0 instructions: 720000110 cycles: 713289321 heartbeat IPC: 1.462 cumulative IPC: 1.009 (Simulation time: 01 hr 34 min 32 sec)
Heartbeat CPU 0 instructions: 730000110 cycles: 720149527 heartbeat IPC: 1.458 cumulative IPC: 1.014 (Simulation time: 01 hr 35 min 17 sec)
Heartbeat CPU 0 instructions: 740000110 cycles: 728039013 heartbeat IPC: 1.268 cumulative IPC: 1.016 (Simulation time: 01 hr 36 min 17 sec)
Heartbeat CPU 0 instructions: 750000110 cycles: 735863348 heartbeat IPC: 1.278 cumulative IPC: 1.019 (Simulation time: 01 hr 37 min 07 sec)
Heartbeat CPU 0 instructions: 760000110 cycles: 743809799 heartbeat IPC: 1.258 cumulative IPC: 1.022 (Simulation time: 01 hr 38 min 08 sec)
Heartbeat CPU 0 instructions: 770000110 cycles: 751708752 heartbeat IPC: 1.266 cumulative IPC: 1.024 (Simulation time: 01 hr 39 min 08 sec)
Heartbeat CPU 0 instructions: 780000114 cycles: 759642245 heartbeat IPC: 1.26 cumulative IPC: 1.027 (Simulation time: 01 hr 40 min 08 sec)
Heartbeat CPU 0 instructions: 790000115 cycles: 767647808 heartbeat IPC: 1.249 cumulative IPC: 1.029 (Simulation time: 01 hr 41 min 06 sec)
Heartbeat CPU 0 instructions: 800000115 cycles: 775540136 heartbeat IPC: 1.267 cumulative IPC: 1.032 (Simulation time: 01 hr 42 min 06 sec)
Heartbeat CPU 0 instructions: 810000115 cycles: 783497345 heartbeat IPC: 1.257 cumulative IPC: 1.034 (Simulation time: 01 hr 43 min 07 sec)
Heartbeat CPU 0 instructions: 820000115 cycles: 791572991 heartbeat IPC: 1.238 cumulative IPC: 1.036 (Simulation time: 01 hr 44 min 08 sec)
Heartbeat CPU 0 instructions: 830000115 cycles: 799365571 heartbeat IPC: 1.283 cumulative IPC: 1.038 (Simulation time: 01 hr 45 min 08 sec)
Heartbeat CPU 0 instructions: 840000119 cycles: 807576011 heartbeat IPC: 1.218 cumulative IPC: 1.04 (Simulation time: 01 hr 46 min 10 sec)
Heartbeat CPU 0 instructions: 850000122 cycles: 815444930 heartbeat IPC: 1.271 cumulative IPC: 1.042 (Simulation time: 01 hr 47 min 10 sec)
Heartbeat CPU 0 instructions: 860000126 cycles: 823659522 heartbeat IPC: 1.217 cumulative IPC: 1.044 (Simulation time: 01 hr 48 min 13 sec)
Heartbeat CPU 0 instructions: 870000127 cycles: 831578443 heartbeat IPC: 1.263 cumulative IPC: 1.046 (Simulation time: 01 hr 49 min 14 sec)
Heartbeat CPU 0 instructions: 880000130 cycles: 839695927 heartbeat IPC: 1.232 cumulative IPC: 1.048 (Simulation time: 01 hr 50 min 16 sec)
Heartbeat CPU 0 instructions: 890000130 cycles: 847887886 heartbeat IPC: 1.221 cumulative IPC: 1.05 (Simulation time: 01 hr 51 min 18 sec)
Heartbeat CPU 0 instructions: 900000134 cycles: 855763943 heartbeat IPC: 1.27 cumulative IPC: 1.052 (Simulation time: 01 hr 52 min 19 sec)
Heartbeat CPU 0 instructions: 910000134 cycles: 864230692 heartbeat IPC: 1.181 cumulative IPC: 1.053 (Simulation time: 01 hr 53 min 23 sec)
Heartbeat CPU 0 instructions: 920000138 cycles: 872300363 heartbeat IPC: 1.239 cumulative IPC: 1.055 (Simulation time: 01 hr 54 min 25 sec)
Heartbeat CPU 0 instructions: 930000142 cycles: 880414439 heartbeat IPC: 1.232 cumulative IPC: 1.056 (Simulation time: 01 hr 55 min 25 sec)
Heartbeat CPU 0 instructions: 940000145 cycles: 888627627 heartbeat IPC: 1.218 cumulative IPC: 1.058 (Simulation time: 01 hr 56 min 26 sec)
Heartbeat CPU 0 instructions: 950000148 cycles: 896606747 heartbeat IPC: 1.253 cumulative IPC: 1.06 (Simulation time: 01 hr 57 min 26 sec)
Heartbeat CPU 0 instructions: 960000148 cycles: 904896141 heartbeat IPC: 1.206 cumulative IPC: 1.061 (Simulation time: 01 hr 58 min 27 sec)
Heartbeat CPU 0 instructions: 970000150 cycles: 912850660 heartbeat IPC: 1.257 cumulative IPC: 1.063 (Simulation time: 01 hr 59 min 27 sec)
Heartbeat CPU 0 instructions: 980000151 cycles: 921230131 heartbeat IPC: 1.193 cumulative IPC: 1.064 (Simulation time: 02 hr 00 min 28 sec)
Heartbeat CPU 0 instructions: 990000151 cycles: 929109391 heartbeat IPC: 1.269 cumulative IPC: 1.066 (Simulation time: 02 hr 01 min 28 sec)
Heartbeat CPU 0 instructions: 1000000152 cycles: 937477664 heartbeat IPC: 1.195 cumulative IPC: 1.067 (Simulation time: 02 hr 02 min 30 sec)
Heartbeat CPU 0 instructions: 1010000154 cycles: 945310653 heartbeat IPC: 1.277 cumulative IPC: 1.068 (Simulation time: 02 hr 03 min 29 sec)
Heartbeat CPU 0 instructions: 1020000155 cycles: 953578065 heartbeat IPC: 1.21 cumulative IPC: 1.07 (Simulation time: 02 hr 04 min 31 sec)
Heartbeat CPU 0 instructions: 1030000157 cycles: 961593973 heartbeat IPC: 1.248 cumulative IPC: 1.071 (Simulation time: 02 hr 05 min 31 sec)
Heartbeat CPU 0 instructions: 1040000157 cycles: 969930399 heartbeat IPC: 1.2 cumulative IPC: 1.072 (Simulation time: 02 hr 06 min 33 sec)
Heartbeat CPU 0 instructions: 1050000157 cycles: 978048882 heartbeat IPC: 1.232 cumulative IPC: 1.074 (Simulation time: 02 hr 07 min 34 sec)
Heartbeat CPU 0 instructions: 1060000158 cycles: 985930271 heartbeat IPC: 1.269 cumulative IPC: 1.075 (Simulation time: 02 hr 08 min 34 sec)
Heartbeat CPU 0 instructions: 1070000161 cycles: 994201621 heartbeat IPC: 1.209 cumulative IPC: 1.076 (Simulation time: 02 hr 09 min 32 sec)
Heartbeat CPU 0 instructions: 1080000163 cycles: 1002265130 heartbeat IPC: 1.24 cumulative IPC: 1.078 (Simulation time: 02 hr 10 min 16 sec)
Heartbeat CPU 0 instructions: 1090000163 cycles: 1010362322 heartbeat IPC: 1.235 cumulative IPC: 1.079 (Simulation time: 02 hr 11 min 01 sec)
Heartbeat CPU 0 instructions: 1100000167 cycles: 1018305698 heartbeat IPC: 1.259 cumulative IPC: 1.08 (Simulation time: 02 hr 11 min 58 sec)
Heartbeat CPU 0 instructions: 1110000170 cycles: 1026390041 heartbeat IPC: 1.237 cumulative IPC: 1.081 (Simulation time: 02 hr 12 min 59 sec)
Heartbeat CPU 0 instructions: 1120000170 cycles: 1034165164 heartbeat IPC: 1.286 cumulative IPC: 1.083 (Simulation time: 02 hr 13 min 59 sec)
Heartbeat CPU 0 instructions: 1130000172 cycles: 1042728312 heartbeat IPC: 1.168 cumulative IPC: 1.084 (Simulation time: 02 hr 15 min 05 sec)
Heartbeat CPU 0 instructions: 1140000172 cycles: 1050572004 heartbeat IPC: 1.275 cumulative IPC: 1.085 (Simulation time: 02 hr 16 min 19 sec)
Heartbeat CPU 0 instructions: 1150000172 cycles: 1056937402 heartbeat IPC: 1.571 cumulative IPC: 1.088 (Simulation time: 02 hr 17 min 22 sec)
Heartbeat CPU 0 instructions: 1160000172 cycles: 1063329961 heartbeat IPC: 1.564 cumulative IPC: 1.091 (Simulation time: 02 hr 18 min 26 sec)
Heartbeat CPU 0 instructions: 1170000173 cycles: 1074000779 heartbeat IPC: 0.9371 cumulative IPC: 1.089 (Simulation time: 02 hr 20 min 06 sec)
Heartbeat CPU 0 instructions: 1180000173 cycles: 1089542394 heartbeat IPC: 0.6434 cumulative IPC: 1.083 (Simulation time: 02 hr 21 min 58 sec)
Heartbeat CPU 0 instructions: 1190000173 cycles: 1099204462 heartbeat IPC: 1.035 cumulative IPC: 1.083 (Simulation time: 02 hr 23 min 36 sec)
Heartbeat CPU 0 instructions: 1200000175 cycles: 1106298330 heartbeat IPC: 1.41 cumulative IPC: 1.085 (Simulation time: 02 hr 24 min 46 sec)
Heartbeat CPU 0 instructions: 1210000175 cycles: 1113383239 heartbeat IPC: 1.411 cumulative IPC: 1.087 (Simulation time: 02 hr 25 min 34 sec)
Heartbeat CPU 0 instructions: 1220000176 cycles: 1120479559 heartbeat IPC: 1.409 cumulative IPC: 1.089 (Simulation time: 02 hr 26 min 37 sec)
Heartbeat CPU 0 instructions: 1230000176 cycles: 1136801422 heartbeat IPC: 0.6127 cumulative IPC: 1.082 (Simulation time: 02 hr 28 min 32 sec)
Heartbeat CPU 0 instructions: 1240000176 cycles: 1149076767 heartbeat IPC: 0.8146 cumulative IPC: 1.079 (Simulation time: 02 hr 30 min 06 sec)
Heartbeat CPU 0 instructions: 1250000176 cycles: 1157046391 heartbeat IPC: 1.255 cumulative IPC: 1.08 (Simulation time: 02 hr 30 min 59 sec)
Heartbeat CPU 0 instructions: 1260000180 cycles: 1164935024 heartbeat IPC: 1.268 cumulative IPC: 1.082 (Simulation time: 02 hr 31 min 52 sec)
Heartbeat CPU 0 instructions: 1270000180 cycles: 1172821089 heartbeat IPC: 1.268 cumulative IPC: 1.083 (Simulation time: 02 hr 32 min 53 sec)
Heartbeat CPU 0 instructions: 1280000181 cycles: 1180705125 heartbeat IPC: 1.268 cumulative IPC: 1.084 (Simulation time: 02 hr 33 min 53 sec)
Heartbeat CPU 0 instructions: 1290000182 cycles: 1188582360 heartbeat IPC: 1.269 cumulative IPC: 1.085 (Simulation time: 02 hr 34 min 52 sec)
Heartbeat CPU 0 instructions: 1300000182 cycles: 1196462137 heartbeat IPC: 1.269 cumulative IPC: 1.087 (Simulation time: 02 hr 35 min 42 sec)
Heartbeat CPU 0 instructions: 1310000185 cycles: 1204324604 heartbeat IPC: 1.272 cumulative IPC: 1.088 (Simulation time: 02 hr 36 min 44 sec)
Heartbeat CPU 0 instructions: 1320000186 cycles: 1212171358 heartbeat IPC: 1.274 cumulative IPC: 1.089 (Simulation time: 02 hr 37 min 44 sec)
Heartbeat CPU 0 instructions: 1330000186 cycles: 1220006025 heartbeat IPC: 1.276 cumulative IPC: 1.09 (Simulation time: 02 hr 38 min 45 sec)
Heartbeat CPU 0 instructions: 1340000188 cycles: 1227826367 heartbeat IPC: 1.279 cumulative IPC: 1.091 (Simulation time: 02 hr 39 min 42 sec)
Heartbeat CPU 0 instructions: 1350000188 cycles: 1235630105 heartbeat IPC: 1.281 cumulative IPC: 1.093 (Simulation time: 02 hr 40 min 27 sec)
Heartbeat CPU 0 instructions: 1360000188 cycles: 1243416939 heartbeat IPC: 1.284 cumulative IPC: 1.094 (Simulation time: 02 hr 41 min 22 sec)
Heartbeat CPU 0 instructions: 1370000190 cycles: 1251216514 heartbeat IPC: 1.282 cumulative IPC: 1.095 (Simulation time: 02 hr 42 min 22 sec)
Heartbeat CPU 0 instructions: 1380000194 cycles: 1259007708 heartbeat IPC: 1.284 cumulative IPC: 1.096 (Simulation time: 02 hr 43 min 22 sec)
Heartbeat CPU 0 instructions: 1390000196 cycles: 1266802525 heartbeat IPC: 1.283 cumulative IPC: 1.097 (Simulation time: 02 hr 44 min 22 sec)
Heartbeat CPU 0 instructions: 1400000200 cycles: 1274601122 heartbeat IPC: 1.282 cumulative IPC: 1.098 (Simulation time: 02 hr 45 min 22 sec)
Heartbeat CPU 0 instructions: 1410000200 cycles: 1282400575 heartbeat IPC: 1.282 cumulative IPC: 1.1 (Simulation time: 02 hr 46 min 22 sec)
Heartbeat CPU 0 instructions: 1420000200 cycles: 1290213501 heartbeat IPC: 1.28 cumulative IPC: 1.101 (Simulation time: 02 hr 47 min 21 sec)
Heartbeat CPU 0 instructions: 1430000200 cycles: 1298028855 heartbeat IPC: 1.28 cumulative IPC: 1.102 (Simulation time: 02 hr 48 min 21 sec)
Heartbeat CPU 0 instructions: 1440000204 cycles: 1305844108 heartbeat IPC: 1.28 cumulative IPC: 1.103 (Simulation time: 02 hr 49 min 21 sec)
Heartbeat CPU 0 instructions: 1450000204 cycles: 1313649710 heartbeat IPC: 1.281 cumulative IPC: 1.104 (Simulation time: 02 hr 50 min 21 sec)
Heartbeat CPU 0 instructions: 1460000205 cycles: 1321456257 heartbeat IPC: 1.281 cumulative IPC: 1.105 (Simulation time: 02 hr 51 min 20 sec)
Heartbeat CPU 0 instructions: 1470000205 cycles: 1329265630 heartbeat IPC: 1.281 cumulative IPC: 1.106 (Simulation time: 02 hr 52 min 20 sec)
Heartbeat CPU 0 instructions: 1480000207 cycles: 1337079542 heartbeat IPC: 1.28 cumulative IPC: 1.107 (Simulation time: 02 hr 53 min 20 sec)
Heartbeat CPU 0 instructions: 1490000209 cycles: 1344896776 heartbeat IPC: 1.279 cumulative IPC: 1.108 (Simulation time: 02 hr 54 min 20 sec)
Heartbeat CPU 0 instructions: 1500000209 cycles: 1352713317 heartbeat IPC: 1.279 cumulative IPC: 1.109 (Simulation time: 02 hr 55 min 21 sec)
Heartbeat CPU 0 instructions: 1510000210 cycles: 1360530427 heartbeat IPC: 1.279 cumulative IPC: 1.11 (Simulation time: 02 hr 56 min 21 sec)
Heartbeat CPU 0 instructions: 1520000211 cycles: 1368335750 heartbeat IPC: 1.281 cumulative IPC: 1.111 (Simulation time: 02 hr 57 min 21 sec)
Heartbeat CPU 0 instructions: 1530000211 cycles: 1376147565 heartbeat IPC: 1.28 cumulative IPC: 1.112 (Simulation time: 02 hr 58 min 10 sec)
Heartbeat CPU 0 instructions: 1540000211 cycles: 1383949765 heartbeat IPC: 1.282 cumulative IPC: 1.113 (Simulation time: 02 hr 59 min 11 sec)
Heartbeat CPU 0 instructions: 1550000213 cycles: 1391744837 heartbeat IPC: 1.283 cumulative IPC: 1.114 (Simulation time: 03 hr 00 min 11 sec)
Heartbeat CPU 0 instructions: 1560000215 cycles: 1399508002 heartbeat IPC: 1.288 cumulative IPC: 1.115 (Simulation time: 03 hr 01 min 11 sec)
Heartbeat CPU 0 instructions: 1570000218 cycles: 1407271581 heartbeat IPC: 1.288 cumulative IPC: 1.116 (Simulation time: 03 hr 02 min 10 sec)
Heartbeat CPU 0 instructions: 1580000219 cycles: 1415049431 heartbeat IPC: 1.286 cumulative IPC: 1.117 (Simulation time: 03 hr 03 min 08 sec)
Heartbeat CPU 0 instructions: 1590000219 cycles: 1422829385 heartbeat IPC: 1.285 cumulative IPC: 1.117 (Simulation time: 03 hr 04 min 08 sec)
Heartbeat CPU 0 instructions: 1600000219 cycles: 1430600496 heartbeat IPC: 1.287 cumulative IPC: 1.118 (Simulation time: 03 hr 05 min 08 sec)
Heartbeat CPU 0 instructions: 1610000219 cycles: 1438376646 heartbeat IPC: 1.286 cumulative IPC: 1.119 (Simulation time: 03 hr 06 min 08 sec)
Heartbeat CPU 0 instructions: 1620000221 cycles: 1446143731 heartbeat IPC: 1.287 cumulative IPC: 1.12 (Simulation time: 03 hr 07 min 08 sec)
Heartbeat CPU 0 instructions: 1630000222 cycles: 1453919505 heartbeat IPC: 1.286 cumulative IPC: 1.121 (Simulation time: 03 hr 08 min 08 sec)
Heartbeat CPU 0 instructions: 1640000222 cycles: 1461698796 heartbeat IPC: 1.285 cumulative IPC: 1.122 (Simulation time: 03 hr 09 min 07 sec)
Heartbeat CPU 0 instructions: 1650000224 cycles: 1469483237 heartbeat IPC: 1.285 cumulative IPC: 1.123 (Simulation time: 03 hr 09 min 54 sec)
Heartbeat CPU 0 instructions: 1660000224 cycles: 1477278544 heartbeat IPC: 1.283 cumulative IPC: 1.124 (Simulation time: 03 hr 10 min 41 sec)
Heartbeat CPU 0 instructions: 1670000225 cycles: 1485079905 heartbeat IPC: 1.282 cumulative IPC: 1.125 (Simulation time: 03 hr 11 min 27 sec)
Heartbeat CPU 0 instructions: 1680000228 cycles: 1492892429 heartbeat IPC: 1.28 cumulative IPC: 1.125 (Simulation time: 03 hr 12 min 10 sec)
Heartbeat CPU 0 instructions: 1690000228 cycles: 1500711725 heartbeat IPC: 1.279 cumulative IPC: 1.126 (Simulation time: 03 hr 12 min 49 sec)
Heartbeat CPU 0 instructions: 1700000229 cycles: 1508522742 heartbeat IPC: 1.28 cumulative IPC: 1.127 (Simulation time: 03 hr 13 min 37 sec)
Heartbeat CPU 0 instructions: 1710000233 cycles: 1516336291 heartbeat IPC: 1.28 cumulative IPC: 1.128 (Simulation time: 03 hr 14 min 26 sec)
Heartbeat CPU 0 instructions: 1720000234 cycles: 1524150205 heartbeat IPC: 1.28 cumulative IPC: 1.128 (Simulation time: 03 hr 15 min 12 sec)
Heartbeat CPU 0 instructions: 1730000234 cycles: 1531963627 heartbeat IPC: 1.28 cumulative IPC: 1.129 (Simulation time: 03 hr 15 min 59 sec)
Heartbeat CPU 0 instructions: 1740000234 cycles: 1539775242 heartbeat IPC: 1.28 cumulative IPC: 1.13 (Simulation time: 03 hr 16 min 51 sec)
Heartbeat CPU 0 instructions: 1750000238 cycles: 1547587512 heartbeat IPC: 1.28 cumulative IPC: 1.131 (Simulation time: 03 hr 17 min 40 sec)
Heartbeat CPU 0 instructions: 1760000238 cycles: 1555400953 heartbeat IPC: 1.28 cumulative IPC: 1.132 (Simulation time: 03 hr 18 min 23 sec)
Heartbeat CPU 0 instructions: 1770000238 cycles: 1563219184 heartbeat IPC: 1.279 cumulative IPC: 1.132 (Simulation time: 03 hr 19 min 12 sec)
Heartbeat CPU 0 instructions: 1780000240 cycles: 1571032739 heartbeat IPC: 1.28 cumulative IPC: 1.133 (Simulation time: 03 hr 20 min 11 sec)
Heartbeat CPU 0 instructions: 1790000242 cycles: 1578855397 heartbeat IPC: 1.278 cumulative IPC: 1.134 (Simulation time: 03 hr 21 min 08 sec)
Heartbeat CPU 0 instructions: 1800000246 cycles: 1586667538 heartbeat IPC: 1.28 cumulative IPC: 1.134 (Simulation time: 03 hr 22 min 04 sec)
Heartbeat CPU 0 instructions: 1810000248 cycles: 1594480583 heartbeat IPC: 1.28 cumulative IPC: 1.135 (Simulation time: 03 hr 22 min 53 sec)
Heartbeat CPU 0 instructions: 1820000248 cycles: 1602296051 heartbeat IPC: 1.28 cumulative IPC: 1.136 (Simulation time: 03 hr 23 min 53 sec)
Heartbeat CPU 0 instructions: 1830000248 cycles: 1609602532 heartbeat IPC: 1.369 cumulative IPC: 1.137 (Simulation time: 03 hr 24 min 39 sec)
Heartbeat CPU 0 instructions: 1840000251 cycles: 1615906194 heartbeat IPC: 1.586 cumulative IPC: 1.139 (Simulation time: 03 hr 25 min 27 sec)
Heartbeat CPU 0 instructions: 1850000251 cycles: 1622362146 heartbeat IPC: 1.549 cumulative IPC: 1.14 (Simulation time: 03 hr 26 min 25 sec)
Heartbeat CPU 0 instructions: 1860000252 cycles: 1628894753 heartbeat IPC: 1.531 cumulative IPC: 1.142 (Simulation time: 03 hr 27 min 23 sec)
Heartbeat CPU 0 instructions: 1870000252 cycles: 1635468739 heartbeat IPC: 1.521 cumulative IPC: 1.143 (Simulation time: 03 hr 28 min 21 sec)
Heartbeat CPU 0 instructions: 1880000253 cycles: 1642171549 heartbeat IPC: 1.492 cumulative IPC: 1.145 (Simulation time: 03 hr 29 min 09 sec)
Heartbeat CPU 0 instructions: 1890000257 cycles: 1649165643 heartbeat IPC: 1.43 cumulative IPC: 1.146 (Simulation time: 03 hr 29 min 57 sec)
Heartbeat CPU 0 instructions: 1900000258 cycles: 1654776628 heartbeat IPC: 1.782 cumulative IPC: 1.148 (Simulation time: 03 hr 30 min 35 sec)
Heartbeat CPU 0 instructions: 1910000258 cycles: 1660347582 heartbeat IPC: 1.795 cumulative IPC: 1.15 (Simulation time: 03 hr 31 min 14 sec)
Heartbeat CPU 0 instructions: 1920000258 cycles: 1666054853 heartbeat IPC: 1.752 cumulative IPC: 1.152 (Simulation time: 03 hr 32 min 08 sec)
Heartbeat CPU 0 instructions: 1930000261 cycles: 1671675555 heartbeat IPC: 1.779 cumulative IPC: 1.155 (Simulation time: 03 hr 33 min 02 sec)
Heartbeat CPU 0 instructions: 1940000264 cycles: 1677260023 heartbeat IPC: 1.791 cumulative IPC: 1.157 (Simulation time: 03 hr 33 min 47 sec)
Heartbeat CPU 0 instructions: 1950000264 cycles: 1682901012 heartbeat IPC: 1.773 cumulative IPC: 1.159 (Simulation time: 03 hr 34 min 25 sec)
Heartbeat CPU 0 instructions: 1960000264 cycles: 1688511055 heartbeat IPC: 1.783 cumulative IPC: 1.161 (Simulation time: 03 hr 35 min 09 sec)
Heartbeat CPU 0 instructions: 1970000267 cycles: 1694128608 heartbeat IPC: 1.78 cumulative IPC: 1.163 (Simulation time: 03 hr 35 min 45 sec)
Heartbeat CPU 0 instructions: 1980000268 cycles: 1699713896 heartbeat IPC: 1.79 cumulative IPC: 1.165 (Simulation time: 03 hr 36 min 22 sec)
Heartbeat CPU 0 instructions: 1990000270 cycles: 1705267082 heartbeat IPC: 1.801 cumulative IPC: 1.167 (Simulation time: 03 hr 37 min 05 sec)

=== ERROR PAGE STATISTICS ===
Mode: OFF
Total Error Accesses: 0
==============================
Simulation finished CPU 0 instructions: 1999999905 cycles: 1714475184 cumulative IPC: 1.167 (Simulation time: 03 hr 37 min 55 sec)
Simulation complete CPU 0 instructions: 1999999905 cycles: 1714475184 cumulative IPC: 1.167 (Simulation time: 03 hr 37 min 55 sec)

ChampSim completed all CPUs

=== Simulation ===
CPU 0 runs test_traces/621.wrf_s-6673B.champsimtrace.xz

Region of Interest Statistics

CPU 0 cumulative IPC: 1.167 instructions: 1999999905 cycles: 1714475184
CPU 0 Branch Prediction Accuracy: 93.25% MPKI: 6.743 Average ROB Occupancy at Mispredict: 68.22
Branch type MPKI
BRANCH_DIRECT_JUMP: 0.00112
BRANCH_INDIRECT: 6.95e-05
BRANCH_CONDITIONAL: 5.98
BRANCH_DIRECT_CALL: 0.002089
BRANCH_INDIRECT_CALL: 2e-06
BRANCH_RETURN: 0.7595

cpu0->cpu0_STLB TOTAL        ACCESS:    1304318 HIT:    1183709 MISS:     120609 MSHR_MERGE:          0
cpu0->cpu0_STLB LOAD         ACCESS:    1304318 HIT:    1183709 MISS:     120609 MSHR_MERGE:          0
cpu0->cpu0_STLB RFO          ACCESS:          0 HIT:          0 MISS:          0 MSHR_MERGE:          0
cpu0->cpu0_STLB PREFETCH     ACCESS:          0 HIT:          0 MISS:          0 MSHR_MERGE:          0
cpu0->cpu0_STLB WRITE        ACCESS:          0 HIT:          0 MISS:          0 MSHR_MERGE:          0
cpu0->cpu0_STLB TRANSLATION  ACCESS:          0 HIT:          0 MISS:          0 MSHR_MERGE:          0
cpu0->cpu0_STLB PREFETCH REQUESTED:          0 ISSUED:          0 USEFUL:          0 USELESS:          0
cpu0->cpu0_STLB AVERAGE MISS LATENCY: 267.5 cycles
cpu0->cpu0_L2C TOTAL        ACCESS:   24598630 HIT:   12909915 MISS:   11688715 MSHR_MERGE:          0
cpu0->cpu0_L2C LOAD         ACCESS:   13804954 HIT:    4641260 MISS:    9163694 MSHR_MERGE:          0
cpu0->cpu0_L2C RFO          ACCESS:    3870268 HIT:    1349388 MISS:    2520880 MSHR_MERGE:          0
cpu0->cpu0_L2C PREFETCH     ACCESS:          0 HIT:          0 MISS:          0 MSHR_MERGE:          0
cpu0->cpu0_L2C WRITE        ACCESS:    6923408 HIT:    6919267 MISS:       4141 MSHR_MERGE:          0
cpu0->cpu0_L2C TRANSLATION  ACCESS:          0 HIT:          0 MISS:          0 MSHR_MERGE:          0
cpu0->cpu0_L2C PREFETCH REQUESTED:          0 ISSUED:          0 USEFUL:          0 USELESS:          0
cpu0->cpu0_L2C AVERAGE MISS LATENCY: 111.3 cycles
cpu0->cpu0_L1I TOTAL        ACCESS:  174632879 HIT:  173505371 MISS:    1127508 MSHR_MERGE:     425213
cpu0->cpu0_L1I LOAD         ACCESS:  174632879 HIT:  173505371 MISS:    1127508 MSHR_MERGE:     425213
cpu0->cpu0_L1I RFO          ACCESS:          0 HIT:          0 MISS:          0 MSHR_MERGE:          0
cpu0->cpu0_L1I PREFETCH     ACCESS:          0 HIT:          0 MISS:          0 MSHR_MERGE:          0
cpu0->cpu0_L1I WRITE        ACCESS:          0 HIT:          0 MISS:          0 MSHR_MERGE:          0
cpu0->cpu0_L1I TRANSLATION  ACCESS:          0 HIT:          0 MISS:          0 MSHR_MERGE:          0
cpu0->cpu0_L1I PREFETCH REQUESTED:          0 ISSUED:          0 USEFUL:          0 USELESS:          0
cpu0->cpu0_L1I AVERAGE MISS LATENCY: 13.77 cycles
cpu0->cpu0_L1D TOTAL        ACCESS:  520563462 HIT:  483437266 MISS:   37126196 MSHR_MERGE:   20153103
cpu0->cpu0_L1D LOAD         ACCESS:  407440928 HIT:  384024959 MISS:   23415969 MSHR_MERGE:   10313220
cpu0->cpu0_L1D RFO          ACCESS:          0 HIT:          0 MISS:          0 MSHR_MERGE:          0
cpu0->cpu0_L1D PREFETCH     ACCESS:          0 HIT:          0 MISS:          0 MSHR_MERGE:          0
cpu0->cpu0_L1D WRITE        ACCESS:  113122534 HIT:   99412307 MISS:   13710227 MSHR_MERGE:    9839883
cpu0->cpu0_L1D TRANSLATION  ACCESS:          0 HIT:          0 MISS:          0 MSHR_MERGE:          0
cpu0->cpu0_L1D PREFETCH REQUESTED:          0 ISSUED:          0 USEFUL:          0 USELESS:          0
cpu0->cpu0_L1D AVERAGE MISS LATENCY: 85.22 cycles
cpu0->cpu0_ITLB TOTAL        ACCESS:  150104512 HIT:  150101073 MISS:       3439 MSHR_MERGE:       2434
cpu0->cpu0_ITLB LOAD         ACCESS:  150104512 HIT:  150101073 MISS:       3439 MSHR_MERGE:       2434
cpu0->cpu0_ITLB RFO          ACCESS:          0 HIT:          0 MISS:          0 MSHR_MERGE:          0
cpu0->cpu0_ITLB PREFETCH     ACCESS:          0 HIT:          0 MISS:          0 MSHR_MERGE:          0
cpu0->cpu0_ITLB WRITE        ACCESS:          0 HIT:          0 MISS:          0 MSHR_MERGE:          0
cpu0->cpu0_ITLB TRANSLATION  ACCESS:          0 HIT:          0 MISS:          0 MSHR_MERGE:          0
cpu0->cpu0_ITLB PREFETCH REQUESTED:          0 ISSUED:          0 USEFUL:          0 USELESS:          0
cpu0->cpu0_ITLB AVERAGE MISS LATENCY: 411.1 cycles
cpu0->cpu0_DTLB TOTAL        ACCESS:  475784899 HIT:  473793826 MISS:    1991073 MSHR_MERGE:     687760
cpu0->cpu0_DTLB LOAD         ACCESS:  475784899 HIT:  473793826 MISS:    1991073 MSHR_MERGE:     687760
cpu0->cpu0_DTLB RFO          ACCESS:          0 HIT:          0 MISS:          0 MSHR_MERGE:          0
cpu0->cpu0_DTLB PREFETCH     ACCESS:          0 HIT:          0 MISS:          0 MSHR_MERGE:          0
cpu0->cpu0_DTLB WRITE        ACCESS:          0 HIT:          0 MISS:          0 MSHR_MERGE:          0
cpu0->cpu0_DTLB TRANSLATION  ACCESS:          0 HIT:          0 MISS:          0 MSHR_MERGE:          0
cpu0->cpu0_DTLB PREFETCH REQUESTED:          0 ISSUED:          0 USEFUL:          0 USELESS:          0
cpu0->cpu0_DTLB AVERAGE MISS LATENCY: 29.58 cycles
cpu0->LLC TOTAL        ACCESS:   16625911 HIT:    6500262 MISS:   10125649 MSHR_MERGE:          0
cpu0->LLC LOAD         ACCESS:    9163694 HIT:    1164409 MISS:    7999285 MSHR_MERGE:          0
cpu0->LLC RFO          ACCESS:    2520880 HIT:     407986 MISS:    2112894 MSHR_MERGE:          0
cpu0->LLC PREFETCH     ACCESS:          0 HIT:          0 MISS:          0 MSHR_MERGE:          0
cpu0->LLC WRITE        ACCESS:    4941337 HIT:    4927867 MISS:      13470 MSHR_MERGE:          0
cpu0->LLC TRANSLATION  ACCESS:          0 HIT:          0 MISS:          0 MSHR_MERGE:          0
cpu0->LLC PREFETCH REQUESTED:          0 ISSUED:          0 USEFUL:          0 USELESS:          0
cpu0->LLC AVERAGE MISS LATENCY: 110.2 cycles

DRAM Statistics

Channel 0 RQ ROW_BUFFER_HIT:       5230
  ROW_BUFFER_MISS:    5171519
  AVG DBUS CONGESTED CYCLE: 9.833
Channel 0 WQ ROW_BUFFER_HIT:     396341
  ROW_BUFFER_MISS:    1640261
  FULL:        542
Channel 0 REFRESHES ISSUED:     142863

Channel 1 RQ ROW_BUFFER_HIT:       5035
  ROW_BUFFER_MISS:    5170224
  AVG DBUS CONGESTED CYCLE: 9.85
Channel 1 WQ ROW_BUFFER_HIT:     395693
  ROW_BUFFER_MISS:    1641174
  FULL:          0
Channel 1 REFRESHES ISSUED:     142863
