[VMEM] WARNING: physical memory size is smaller than virtual memory size.

*** ChampSim Multicore Out-of-Order Simulator ***
Warmup Instructions: 0
Simulation Instructions: 9223372036854775807
Number of CPUs: 1
Page size: 4096

Off-chip DRAM Size: 128 GiB Channels: 2 Width: 32-bit Data Rate: 4807 MT/s
[ERROR_PAGE_MANAGER] Error latency: 173500 
[ERROR_PAGE_MANAGER] Random seed: 54321 (fixed for preload reproducibility)
[ERROR_PAGE_MANAGER] Cycle-based error modeling enabled
[ERROR_PAGE_MANAGER] Errors per interval: 1
[ERROR_PAGE_MANAGER] Error cycle interval: 25763047 cycles

=== ERROR PAGE STATISTICS ===
Mode: CYCLE
Error Cycle Interval: 25763047 CPU cycles
Total Error Accesses: 0
==============================
Warmup finished CPU 0 instructions: 0 cycles: 1 cumulative IPC: 0 (Simulation time: 00 hr 00 min 02 sec)
Warmup complete CPU 0 instructions: 0 cycles: 1 cumulative IPC: 0 (Simulation time: 00 hr 00 min 02 sec)
Heartbeat CPU 0 instructions: 10000003 cycles: 9369874 heartbeat IPC: 1.067 cumulative IPC: 1.067 (Simulation time: 00 hr 01 min 28 sec)
Heartbeat CPU 0 instructions: 20000006 cycles: 20119269 heartbeat IPC: 0.9303 cumulative IPC: 0.9941 (Simulation time: 00 hr 03 min 01 sec)
[ERROR_CYCLE] Error added at CPU cycle 25763048, interval 1, pending count: 1
[DRAM_CYCLE_ERROR] Cycle-based error applied! address=0xe9037804 additional_latency=173500 cycles
Heartbeat CPU 0 instructions: 30000006 cycles: 32438087 heartbeat IPC: 0.8118 cumulative IPC: 0.9248 (Simulation time: 00 hr 04 min 31 sec)
Heartbeat CPU 0 instructions: 40000008 cycles: 48843015 heartbeat IPC: 0.6096 cumulative IPC: 0.819 (Simulation time: 00 hr 06 min 56 sec)
[ERROR_CYCLE] Error added at CPU cycle 51526094, interval 2, pending count: 1
[DRAM_CYCLE_ERROR] Cycle-based error applied! address=0x1051e0400 additional_latency=173500 cycles
Heartbeat CPU 0 instructions: 50000009 cycles: 60328694 heartbeat IPC: 0.8706 cumulative IPC: 0.8288 (Simulation time: 00 hr 08 min 04 sec)
Heartbeat CPU 0 instructions: 60000012 cycles: 72579111 heartbeat IPC: 0.8163 cumulative IPC: 0.8267 (Simulation time: 00 hr 09 min 45 sec)
[ERROR_CYCLE] Error added at CPU cycle 77289142, interval 3, pending count: 1
[DRAM_CYCLE_ERROR] Cycle-based error applied! address=0x1f1858d628 additional_latency=173500 cycles
Heartbeat CPU 0 instructions: 70000012 cycles: 87405671 heartbeat IPC: 0.6745 cumulative IPC: 0.8009 (Simulation time: 00 hr 11 min 47 sec)
Heartbeat CPU 0 instructions: 80000014 cycles: 99508823 heartbeat IPC: 0.8262 cumulative IPC: 0.8039 (Simulation time: 00 hr 13 min 24 sec)
[ERROR_CYCLE] Error added at CPU cycle 103052188, interval 4, pending count: 1
[DRAM_CYCLE_ERROR] Cycle-based error applied! address=0x105b9384d8 additional_latency=173500 cycles
Heartbeat CPU 0 instructions: 90000015 cycles: 112136548 heartbeat IPC: 0.7919 cumulative IPC: 0.8026 (Simulation time: 00 hr 15 min 07 sec)
[ERROR_CYCLE] Error added at CPU cycle 128815235, interval 5, pending count: 1
[DRAM_CYCLE_ERROR] Cycle-based error applied! address=0x4bf1a4e44 additional_latency=173500 cycles
Heartbeat CPU 0 instructions: 100000015 cycles: 129681548 heartbeat IPC: 0.57 cumulative IPC: 0.7711 (Simulation time: 00 hr 17 min 29 sec)
Heartbeat CPU 0 instructions: 110000019 cycles: 136115083 heartbeat IPC: 1.554 cumulative IPC: 0.8081 (Simulation time: 00 hr 18 min 34 sec)
Heartbeat CPU 0 instructions: 120000021 cycles: 144402115 heartbeat IPC: 1.207 cumulative IPC: 0.831 (Simulation time: 00 hr 19 min 31 sec)
Heartbeat CPU 0 instructions: 130000021 cycles: 150592381 heartbeat IPC: 1.615 cumulative IPC: 0.8633 (Simulation time: 00 hr 20 min 24 sec)
[ERROR_CYCLE] Error added at CPU cycle 154578283, interval 6, pending count: 1
[DRAM_CYCLE_ERROR] Cycle-based error applied! address=0xddec516a8 additional_latency=173500 cycles
Heartbeat CPU 0 instructions: 140000021 cycles: 159041304 heartbeat IPC: 1.184 cumulative IPC: 0.8803 (Simulation time: 00 hr 21 min 20 sec)
Heartbeat CPU 0 instructions: 150000024 cycles: 165610588 heartbeat IPC: 1.522 cumulative IPC: 0.9057 (Simulation time: 00 hr 22 min 23 sec)
Heartbeat CPU 0 instructions: 160000027 cycles: 173156264 heartbeat IPC: 1.325 cumulative IPC: 0.924 (Simulation time: 00 hr 23 min 18 sec)
[ERROR_CYCLE] Error added at CPU cycle 180341329, interval 7, pending count: 1
[DRAM_CYCLE_ERROR] Cycle-based error applied! address=0x55f955c7c additional_latency=173500 cycles
Heartbeat CPU 0 instructions: 170000028 cycles: 181248715 heartbeat IPC: 1.236 cumulative IPC: 0.9379 (Simulation time: 00 hr 24 min 10 sec)
Heartbeat CPU 0 instructions: 180000028 cycles: 187526263 heartbeat IPC: 1.593 cumulative IPC: 0.9599 (Simulation time: 00 hr 24 min 54 sec)
Heartbeat CPU 0 instructions: 190000028 cycles: 196222166 heartbeat IPC: 1.15 cumulative IPC: 0.9683 (Simulation time: 00 hr 25 min 59 sec)
Heartbeat CPU 0 instructions: 200000028 cycles: 202584881 heartbeat IPC: 1.572 cumulative IPC: 0.9872 (Simulation time: 00 hr 26 min 51 sec)
[ERROR_CYCLE] Error added at CPU cycle 206104376, interval 8, pending count: 1
[DRAM_CYCLE_ERROR] Cycle-based error applied! address=0x1c02cbb840 additional_latency=173500 cycles
Heartbeat CPU 0 instructions: 210000028 cycles: 208969621 heartbeat IPC: 1.566 cumulative IPC: 1.005 (Simulation time: 00 hr 27 min 38 sec)
Heartbeat CPU 0 instructions: 220000030 cycles: 215488249 heartbeat IPC: 1.534 cumulative IPC: 1.021 (Simulation time: 00 hr 28 min 44 sec)
Heartbeat CPU 0 instructions: 230000031 cycles: 228181997 heartbeat IPC: 0.7878 cumulative IPC: 1.008 (Simulation time: 00 hr 30 min 26 sec)
[ERROR_CYCLE] Error added at CPU cycle 231867424, interval 9, pending count: 1
[DRAM_CYCLE_ERROR] Cycle-based error applied! address=0x3b9d22384 additional_latency=173500 cycles
Heartbeat CPU 0 instructions: 240000032 cycles: 241121385 heartbeat IPC: 0.7728 cumulative IPC: 0.9953 (Simulation time: 00 hr 31 min 50 sec)
Heartbeat CPU 0 instructions: 250000033 cycles: 247728207 heartbeat IPC: 1.514 cumulative IPC: 1.009 (Simulation time: 00 hr 32 min 45 sec)
Heartbeat CPU 0 instructions: 260000037 cycles: 254812017 heartbeat IPC: 1.412 cumulative IPC: 1.02 (Simulation time: 00 hr 33 min 42 sec)
[ERROR_CYCLE] Error added at CPU cycle 257630470, interval 10, pending count: 1
[DRAM_CYCLE_ERROR] Cycle-based error applied! address=0x656960180 additional_latency=173500 cycles
Heartbeat CPU 0 instructions: 270000041 cycles: 261616598 heartbeat IPC: 1.47 cumulative IPC: 1.032 (Simulation time: 00 hr 34 min 34 sec)
Heartbeat CPU 0 instructions: 280000044 cycles: 267901887 heartbeat IPC: 1.591 cumulative IPC: 1.045 (Simulation time: 00 hr 35 min 38 sec)
Heartbeat CPU 0 instructions: 290000047 cycles: 274853463 heartbeat IPC: 1.439 cumulative IPC: 1.055 (Simulation time: 00 hr 36 min 40 sec)
Heartbeat CPU 0 instructions: 300000051 cycles: 283318121 heartbeat IPC: 1.181 cumulative IPC: 1.059 (Simulation time: 00 hr 37 min 46 sec)
[ERROR_CYCLE] Error added at CPU cycle 283393517, interval 11, pending count: 1
[DRAM_CYCLE_ERROR] Cycle-based error applied! address=0xca4ef1f84 additional_latency=173500 cycles
Heartbeat CPU 0 instructions: 310000055 cycles: 295847883 heartbeat IPC: 0.7981 cumulative IPC: 1.048 (Simulation time: 00 hr 39 min 04 sec)
Heartbeat CPU 0 instructions: 320000058 cycles: 304877303 heartbeat IPC: 1.107 cumulative IPC: 1.05 (Simulation time: 00 hr 40 min 04 sec)
[ERROR_CYCLE] Error added at CPU cycle 309156565, interval 12, pending count: 1
[DRAM_CYCLE_ERROR] Cycle-based error applied! address=0x7fa5bd744 additional_latency=173500 cycles
Heartbeat CPU 0 instructions: 330000059 cycles: 315735903 heartbeat IPC: 0.9209 cumulative IPC: 1.045 (Simulation time: 00 hr 41 min 17 sec)
Heartbeat CPU 0 instructions: 340000061 cycles: 327984188 heartbeat IPC: 0.8164 cumulative IPC: 1.037 (Simulation time: 00 hr 42 min 39 sec)
[ERROR_CYCLE] Error added at CPU cycle 334919611, interval 13, pending count: 1
[DRAM_CYCLE_ERROR] Cycle-based error applied! address=0x502f56484 additional_latency=173500 cycles
Heartbeat CPU 0 instructions: 350000062 cycles: 344073475 heartbeat IPC: 0.6215 cumulative IPC: 1.017 (Simulation time: 00 hr 45 min 09 sec)
Heartbeat CPU 0 instructions: 360000064 cycles: 355882854 heartbeat IPC: 0.8468 cumulative IPC: 1.012 (Simulation time: 00 hr 46 min 50 sec)
[ERROR_CYCLE] Error added at CPU cycle 360682659, interval 14, pending count: 1
[DRAM_CYCLE_ERROR] Cycle-based error applied! address=0x16dac38548 additional_latency=173500 cycles
Heartbeat CPU 0 instructions: 370000064 cycles: 368355171 heartbeat IPC: 0.8018 cumulative IPC: 1.004 (Simulation time: 00 hr 48 min 34 sec)
Heartbeat CPU 0 instructions: 380000065 cycles: 383340363 heartbeat IPC: 0.6673 cumulative IPC: 0.9913 (Simulation time: 00 hr 50 min 40 sec)
[ERROR_CYCLE] Error added at CPU cycle 386445705, interval 15, pending count: 1
[DRAM_CYCLE_ERROR] Cycle-based error applied! address=0x1c74025e68 additional_latency=173500 cycles
Heartbeat CPU 0 instructions: 390000065 cycles: 395856889 heartbeat IPC: 0.7989 cumulative IPC: 0.9852 (Simulation time: 00 hr 52 min 03 sec)
Heartbeat CPU 0 instructions: 400000065 cycles: 408854435 heartbeat IPC: 0.7694 cumulative IPC: 0.9783 (Simulation time: 00 hr 53 min 38 sec)
[ERROR_CYCLE] Error added at CPU cycle 412208752, interval 16, pending count: 1
[DRAM_CYCLE_ERROR] Cycle-based error applied! address=0xce3f20cc8 additional_latency=173500 cycles
Heartbeat CPU 0 instructions: 410000068 cycles: 423453675 heartbeat IPC: 0.685 cumulative IPC: 0.9682 (Simulation time: 00 hr 55 min 40 sec)
Heartbeat CPU 0 instructions: 420000071 cycles: 435967953 heartbeat IPC: 0.7991 cumulative IPC: 0.9634 (Simulation time: 00 hr 57 min 22 sec)
[ERROR_CYCLE] Error added at CPU cycle 437971800, interval 17, pending count: 1
[DRAM_CYCLE_ERROR] Cycle-based error applied! address=0xb53c159c8 additional_latency=173500 cycles
Heartbeat CPU 0 instructions: 430000073 cycles: 450631477 heartbeat IPC: 0.682 cumulative IPC: 0.9542 (Simulation time: 00 hr 59 min 21 sec)
[ERROR_CYCLE] Error added at CPU cycle 463734846, interval 18, pending count: 1
[DRAM_CYCLE_ERROR] Cycle-based error applied! address=0x1537803468 additional_latency=173500 cycles
Heartbeat CPU 0 instructions: 440000073 cycles: 464448804 heartbeat IPC: 0.7237 cumulative IPC: 0.9474 (Simulation time: 01 hr 01 min 16 sec)
Heartbeat CPU 0 instructions: 450000074 cycles: 476832762 heartbeat IPC: 0.8075 cumulative IPC: 0.9437 (Simulation time: 01 hr 02 min 59 sec)
[ERROR_CYCLE] Error added at CPU cycle 489497893, interval 19, pending count: 1
[DRAM_CYCLE_ERROR] Cycle-based error applied! address=0x192b403f14 additional_latency=173500 cycles
Heartbeat CPU 0 instructions: 460000077 cycles: 492785851 heartbeat IPC: 0.6268 cumulative IPC: 0.9335 (Simulation time: 01 hr 05 min 09 sec)
Heartbeat CPU 0 instructions: 470000078 cycles: 510420652 heartbeat IPC: 0.5671 cumulative IPC: 0.9208 (Simulation time: 01 hr 06 min 45 sec)
[ERROR_CYCLE] Error added at CPU cycle 515260941, interval 20, pending count: 1
[DRAM_CYCLE_ERROR] Cycle-based error applied! address=0x13dbe0ad40 additional_latency=173500 cycles
Heartbeat CPU 0 instructions: 480000081 cycles: 516836888 heartbeat IPC: 1.559 cumulative IPC: 0.9287 (Simulation time: 01 hr 07 min 41 sec)
Heartbeat CPU 0 instructions: 490000085 cycles: 524070826 heartbeat IPC: 1.382 cumulative IPC: 0.935 (Simulation time: 01 hr 08 min 56 sec)
Heartbeat CPU 0 instructions: 500000085 cycles: 533007591 heartbeat IPC: 1.119 cumulative IPC: 0.9381 (Simulation time: 01 hr 10 min 23 sec)
[ERROR_CYCLE] Error added at CPU cycle 541023987, interval 21, pending count: 1
[DRAM_CYCLE_ERROR] Cycle-based error applied! address=0xf3432b0d0 additional_latency=173500 cycles
Heartbeat CPU 0 instructions: 510000089 cycles: 544624310 heartbeat IPC: 0.8608 cumulative IPC: 0.9364 (Simulation time: 01 hr 12 min 03 sec)
Heartbeat CPU 0 instructions: 520000091 cycles: 551115269 heartbeat IPC: 1.541 cumulative IPC: 0.9435 (Simulation time: 01 hr 13 min 12 sec)
Heartbeat CPU 0 instructions: 530000091 cycles: 558411878 heartbeat IPC: 1.37 cumulative IPC: 0.9491 (Simulation time: 01 hr 14 min 28 sec)
[ERROR_CYCLE] Error added at CPU cycle 566787034, interval 22, pending count: 1
[DRAM_CYCLE_ERROR] Cycle-based error applied! address=0x1fbb7f4780 additional_latency=173500 cycles
Heartbeat CPU 0 instructions: 540000092 cycles: 568105068 heartbeat IPC: 1.032 cumulative IPC: 0.9505 (Simulation time: 01 hr 15 min 54 sec)
Heartbeat CPU 0 instructions: 550000092 cycles: 580136364 heartbeat IPC: 0.8312 cumulative IPC: 0.9481 (Simulation time: 01 hr 17 min 31 sec)
Heartbeat CPU 0 instructions: 560000093 cycles: 586668499 heartbeat IPC: 1.531 cumulative IPC: 0.9545 (Simulation time: 01 hr 18 min 38 sec)
[ERROR_CYCLE] Error added at CPU cycle 592550082, interval 23, pending count: 1
[DRAM_CYCLE_ERROR] Cycle-based error applied! address=0xe9a1d1dc0 additional_latency=173500 cycles
Heartbeat CPU 0 instructions: 570000093 cycles: 594009770 heartbeat IPC: 1.362 cumulative IPC: 0.9596 (Simulation time: 01 hr 19 min 53 sec)
Heartbeat CPU 0 instructions: 580000093 cycles: 603765961 heartbeat IPC: 1.025 cumulative IPC: 0.9606 (Simulation time: 01 hr 21 min 21 sec)
Heartbeat CPU 0 instructions: 590000093 cycles: 615501696 heartbeat IPC: 0.8521 cumulative IPC: 0.9586 (Simulation time: 01 hr 22 min 58 sec)
[ERROR_CYCLE] Error added at CPU cycle 618313128, interval 24, pending count: 1
[DRAM_CYCLE_ERROR] Cycle-based error applied! address=0x1ae6010140 additional_latency=173500 cycles
Heartbeat CPU 0 instructions: 600000094 cycles: 622055656 heartbeat IPC: 1.526 cumulative IPC: 0.9645 (Simulation time: 01 hr 24 min 07 sec)
Heartbeat CPU 0 instructions: 610000096 cycles: 629445066 heartbeat IPC: 1.353 cumulative IPC: 0.9691 (Simulation time: 01 hr 25 min 23 sec)
Heartbeat CPU 0 instructions: 620000096 cycles: 639519644 heartbeat IPC: 0.9926 cumulative IPC: 0.9695 (Simulation time: 01 hr 26 min 51 sec)
[ERROR_CYCLE] Error added at CPU cycle 644076176, interval 25, pending count: 1
[DRAM_CYCLE_ERROR] Cycle-based error applied! address=0x770d7d780 additional_latency=173500 cycles
Heartbeat CPU 0 instructions: 630000096 cycles: 651390083 heartbeat IPC: 0.8424 cumulative IPC: 0.9672 (Simulation time: 01 hr 28 min 27 sec)
Heartbeat CPU 0 instructions: 640000097 cycles: 657957492 heartbeat IPC: 1.523 cumulative IPC: 0.9727 (Simulation time: 01 hr 29 min 36 sec)
Heartbeat CPU 0 instructions: 650000097 cycles: 665324566 heartbeat IPC: 1.357 cumulative IPC: 0.977 (Simulation time: 01 hr 30 min 42 sec)
[ERROR_CYCLE] Error added at CPU cycle 669839223, interval 26, pending count: 1
[DRAM_CYCLE_ERROR] Cycle-based error applied! address=0x338c19d40 additional_latency=173500 cycles
Heartbeat CPU 0 instructions: 660000099 cycles: 675458668 heartbeat IPC: 0.9868 cumulative IPC: 0.9771 (Simulation time: 01 hr 32 min 10 sec)
Heartbeat CPU 0 instructions: 670000103 cycles: 687791479 heartbeat IPC: 0.8108 cumulative IPC: 0.9741 (Simulation time: 01 hr 33 min 49 sec)
Heartbeat CPU 0 instructions: 680000105 cycles: 694200180 heartbeat IPC: 1.56 cumulative IPC: 0.9795 (Simulation time: 01 hr 34 min 54 sec)
[ERROR_CYCLE] Error added at CPU cycle 695602269, interval 27, pending count: 1
[DRAM_CYCLE_ERROR] Cycle-based error applied! address=0x125982a404 additional_latency=173500 cycles
Heartbeat CPU 0 instructions: 690000106 cycles: 700628733 heartbeat IPC: 1.556 cumulative IPC: 0.9848 (Simulation time: 01 hr 35 min 58 sec)
Heartbeat CPU 0 instructions: 700000110 cycles: 707072619 heartbeat IPC: 1.552 cumulative IPC: 0.99 (Simulation time: 01 hr 36 min 56 sec)
Heartbeat CPU 0 instructions: 710000110 cycles: 714483679 heartbeat IPC: 1.349 cumulative IPC: 0.9937 (Simulation time: 01 hr 37 min 56 sec)
Heartbeat CPU 0 instructions: 720000110 cycles: 721361128 heartbeat IPC: 1.454 cumulative IPC: 0.9981 (Simulation time: 01 hr 39 min 06 sec)
[ERROR_CYCLE] Error added at CPU cycle 721365317, interval 28, pending count: 1
[DRAM_CYCLE_ERROR] Cycle-based error applied! address=0xe850fcfc0 additional_latency=173500 cycles
Heartbeat CPU 0 instructions: 730000110 cycles: 728254738 heartbeat IPC: 1.451 cumulative IPC: 1.002 (Simulation time: 01 hr 39 min 59 sec)
Heartbeat CPU 0 instructions: 740000110 cycles: 736181608 heartbeat IPC: 1.262 cumulative IPC: 1.005 (Simulation time: 01 hr 40 min 47 sec)
Heartbeat CPU 0 instructions: 750000110 cycles: 744013698 heartbeat IPC: 1.277 cumulative IPC: 1.008 (Simulation time: 01 hr 41 min 41 sec)
[ERROR_CYCLE] Error added at CPU cycle 747128363, interval 29, pending count: 1
[DRAM_CYCLE_ERROR] Cycle-based error applied! address=0x5a1c87070 additional_latency=173500 cycles
Heartbeat CPU 0 instructions: 760000110 cycles: 751970261 heartbeat IPC: 1.257 cumulative IPC: 1.011 (Simulation time: 01 hr 42 min 34 sec)
Heartbeat CPU 0 instructions: 770000110 cycles: 759885257 heartbeat IPC: 1.263 cumulative IPC: 1.013 (Simulation time: 01 hr 43 min 22 sec)
Heartbeat CPU 0 instructions: 780000114 cycles: 767813324 heartbeat IPC: 1.261 cumulative IPC: 1.016 (Simulation time: 01 hr 44 min 10 sec)
[ERROR_CYCLE] Error added at CPU cycle 772891410, interval 30, pending count: 1
[DRAM_CYCLE_ERROR] Cycle-based error applied! address=0x5a1c8774c additional_latency=173500 cycles
Heartbeat CPU 0 instructions: 790000115 cycles: 775827041 heartbeat IPC: 1.248 cumulative IPC: 1.018 (Simulation time: 01 hr 44 min 57 sec)
Heartbeat CPU 0 instructions: 800000115 cycles: 783723649 heartbeat IPC: 1.266 cumulative IPC: 1.021 (Simulation time: 01 hr 45 min 50 sec)
Heartbeat CPU 0 instructions: 810000115 cycles: 791686415 heartbeat IPC: 1.256 cumulative IPC: 1.023 (Simulation time: 01 hr 46 min 33 sec)
[ERROR_CYCLE] Error added at CPU cycle 798654458, interval 31, pending count: 1
[DRAM_CYCLE_ERROR] Cycle-based error applied! address=0x1dcb39ca80 additional_latency=173500 cycles
Heartbeat CPU 0 instructions: 820000115 cycles: 799770959 heartbeat IPC: 1.237 cumulative IPC: 1.025 (Simulation time: 01 hr 47 min 12 sec)
Heartbeat CPU 0 instructions: 830000115 cycles: 807561245 heartbeat IPC: 1.284 cumulative IPC: 1.028 (Simulation time: 01 hr 48 min 10 sec)
Heartbeat CPU 0 instructions: 840000119 cycles: 815775859 heartbeat IPC: 1.217 cumulative IPC: 1.03 (Simulation time: 01 hr 49 min 01 sec)
Heartbeat CPU 0 instructions: 850000122 cycles: 823648172 heartbeat IPC: 1.27 cumulative IPC: 1.032 (Simulation time: 01 hr 49 min 44 sec)
[ERROR_CYCLE] Error added at CPU cycle 824417504, interval 32, pending count: 1
[DRAM_CYCLE_ERROR] Cycle-based error applied! address=0x6d6b97680 additional_latency=173500 cycles
Heartbeat CPU 0 instructions: 860000126 cycles: 831868721 heartbeat IPC: 1.216 cumulative IPC: 1.034 (Simulation time: 01 hr 50 min 44 sec)
Heartbeat CPU 0 instructions: 870000127 cycles: 839795643 heartbeat IPC: 1.262 cumulative IPC: 1.036 (Simulation time: 01 hr 51 min 44 sec)
Heartbeat CPU 0 instructions: 880000130 cycles: 847919115 heartbeat IPC: 1.231 cumulative IPC: 1.038 (Simulation time: 01 hr 52 min 34 sec)
[ERROR_CYCLE] Error added at CPU cycle 850180551, interval 33, pending count: 1
[DRAM_CYCLE_ERROR] Cycle-based error applied! address=0x1883e9cdc0 additional_latency=173500 cycles
Heartbeat CPU 0 instructions: 890000130 cycles: 856120566 heartbeat IPC: 1.219 cumulative IPC: 1.04 (Simulation time: 01 hr 53 min 16 sec)
Heartbeat CPU 0 instructions: 900000134 cycles: 863996483 heartbeat IPC: 1.27 cumulative IPC: 1.042 (Simulation time: 01 hr 53 min 55 sec)
Heartbeat CPU 0 instructions: 910000134 cycles: 872472255 heartbeat IPC: 1.18 cumulative IPC: 1.043 (Simulation time: 01 hr 54 min 37 sec)
[ERROR_CYCLE] Error added at CPU cycle 875943599, interval 34, pending count: 1
[DRAM_CYCLE_ERROR] Cycle-based error applied! address=0x70760aef0 additional_latency=173500 cycles
Heartbeat CPU 0 instructions: 920000138 cycles: 880547707 heartbeat IPC: 1.238 cumulative IPC: 1.045 (Simulation time: 01 hr 55 min 18 sec)
Heartbeat CPU 0 instructions: 930000142 cycles: 888672804 heartbeat IPC: 1.231 cumulative IPC: 1.047 (Simulation time: 01 hr 55 min 57 sec)
Heartbeat CPU 0 instructions: 940000145 cycles: 896895049 heartbeat IPC: 1.216 cumulative IPC: 1.048 (Simulation time: 01 hr 56 min 40 sec)
[ERROR_CYCLE] Error added at CPU cycle 901706645, interval 35, pending count: 1
[DRAM_CYCLE_ERROR] Cycle-based error applied! address=0x16e814a658 additional_latency=173500 cycles
Heartbeat CPU 0 instructions: 950000148 cycles: 904878700 heartbeat IPC: 1.253 cumulative IPC: 1.05 (Simulation time: 01 hr 57 min 24 sec)
Heartbeat CPU 0 instructions: 960000148 cycles: 913181486 heartbeat IPC: 1.204 cumulative IPC: 1.051 (Simulation time: 01 hr 58 min 21 sec)
Heartbeat CPU 0 instructions: 970000150 cycles: 921143435 heartbeat IPC: 1.256 cumulative IPC: 1.053 (Simulation time: 01 hr 59 min 21 sec)
[ERROR_CYCLE] Error added at CPU cycle 927469692, interval 36, pending count: 1
[DRAM_CYCLE_ERROR] Cycle-based error applied! address=0x17a6ae0a48 additional_latency=173500 cycles
Heartbeat CPU 0 instructions: 980000151 cycles: 929527651 heartbeat IPC: 1.193 cumulative IPC: 1.054 (Simulation time: 02 hr 00 min 09 sec)
Heartbeat CPU 0 instructions: 990000151 cycles: 937422421 heartbeat IPC: 1.267 cumulative IPC: 1.056 (Simulation time: 02 hr 00 min 47 sec)
Heartbeat CPU 0 instructions: 1000000152 cycles: 945793396 heartbeat IPC: 1.195 cumulative IPC: 1.057 (Simulation time: 02 hr 01 min 27 sec)
[ERROR_CYCLE] Error added at CPU cycle 953232740, interval 37, pending count: 1
Heartbeat CPU 0 instructions: 1010000154 cycles: 953636476 heartbeat IPC: 1.275 cumulative IPC: 1.059 (Simulation time: 02 hr 02 min 05 sec)
[DRAM_CYCLE_ERROR] Cycle-based error applied! address=0x1e12b54168 additional_latency=173500 cycles
Heartbeat CPU 0 instructions: 1020000155 cycles: 961908510 heartbeat IPC: 1.209 cumulative IPC: 1.06 (Simulation time: 02 hr 02 min 44 sec)
Heartbeat CPU 0 instructions: 1030000157 cycles: 969937865 heartbeat IPC: 1.245 cumulative IPC: 1.062 (Simulation time: 02 hr 03 min 23 sec)
Heartbeat CPU 0 instructions: 1040000157 cycles: 978281926 heartbeat IPC: 1.198 cumulative IPC: 1.063 (Simulation time: 02 hr 04 min 03 sec)
[ERROR_CYCLE] Error added at CPU cycle 978995786, interval 38, pending count: 1
[DRAM_CYCLE_ERROR] Cycle-based error applied! address=0x1e12b547c4 additional_latency=173500 cycles
Heartbeat CPU 0 instructions: 1050000157 cycles: 986406289 heartbeat IPC: 1.231 cumulative IPC: 1.064 (Simulation time: 02 hr 04 min 42 sec)
Heartbeat CPU 0 instructions: 1060000158 cycles: 994299867 heartbeat IPC: 1.267 cumulative IPC: 1.066 (Simulation time: 02 hr 05 min 20 sec)
Heartbeat CPU 0 instructions: 1070000161 cycles: 1002577409 heartbeat IPC: 1.208 cumulative IPC: 1.067 (Simulation time: 02 hr 06 min 00 sec)
[ERROR_CYCLE] Error added at CPU cycle 1004758834, interval 39, pending count: 1
[DRAM_CYCLE_ERROR] Cycle-based error applied! address=0x1e12b54e48 additional_latency=173500 cycles
Heartbeat CPU 0 instructions: 1080000163 cycles: 1010652235 heartbeat IPC: 1.238 cumulative IPC: 1.069 (Simulation time: 02 hr 06 min 39 sec)
Heartbeat CPU 0 instructions: 1090000163 cycles: 1018760844 heartbeat IPC: 1.233 cumulative IPC: 1.07 (Simulation time: 02 hr 07 min 18 sec)
Heartbeat CPU 0 instructions: 1100000167 cycles: 1026712976 heartbeat IPC: 1.258 cumulative IPC: 1.071 (Simulation time: 02 hr 07 min 57 sec)
[ERROR_CYCLE] Error added at CPU cycle 1030521880, interval 40, pending count: 1
[DRAM_CYCLE_ERROR] Cycle-based error applied! address=0x365f734a8 additional_latency=173500 cycles
Heartbeat CPU 0 instructions: 1110000170 cycles: 1034815487 heartbeat IPC: 1.234 cumulative IPC: 1.073 (Simulation time: 02 hr 08 min 36 sec)
Heartbeat CPU 0 instructions: 1120000170 cycles: 1042603501 heartbeat IPC: 1.284 cumulative IPC: 1.074 (Simulation time: 02 hr 09 min 14 sec)
Heartbeat CPU 0 instructions: 1130000172 cycles: 1051197030 heartbeat IPC: 1.164 cumulative IPC: 1.075 (Simulation time: 02 hr 09 min 59 sec)
[ERROR_CYCLE] Error added at CPU cycle 1056284927, interval 41, pending count: 1
[DRAM_CYCLE_ERROR] Cycle-based error applied! address=0x520581840 additional_latency=173500 cycles
Heartbeat CPU 0 instructions: 1140000172 cycles: 1059067933 heartbeat IPC: 1.271 cumulative IPC: 1.076 (Simulation time: 02 hr 10 min 47 sec)
Heartbeat CPU 0 instructions: 1150000172 cycles: 1065451367 heartbeat IPC: 1.567 cumulative IPC: 1.079 (Simulation time: 02 hr 11 min 29 sec)
Heartbeat CPU 0 instructions: 1160000172 cycles: 1071866059 heartbeat IPC: 1.559 cumulative IPC: 1.082 (Simulation time: 02 hr 12 min 10 sec)
[ERROR_CYCLE] Error added at CPU cycle 1082047975, interval 42, pending count: 1
[DRAM_CYCLE_ERROR] Cycle-based error applied! address=0x42feef104 additional_latency=173500 cycles
Heartbeat CPU 0 instructions: 1170000173 cycles: 1082637019 heartbeat IPC: 0.9284 cumulative IPC: 1.081 (Simulation time: 02 hr 13 min 19 sec)
Heartbeat CPU 0 instructions: 1180000173 cycles: 1098331339 heartbeat IPC: 0.6372 cumulative IPC: 1.074 (Simulation time: 02 hr 14 min 41 sec)
[ERROR_CYCLE] Error added at CPU cycle 1107811021, interval 43, pending count: 1
[DRAM_CYCLE_ERROR] Cycle-based error applied! address=0x1fde969940 additional_latency=173500 cycles
Heartbeat CPU 0 instructions: 1190000173 cycles: 1108064659 heartbeat IPC: 1.027 cumulative IPC: 1.074 (Simulation time: 02 hr 15 min 46 sec)
Heartbeat CPU 0 instructions: 1200000175 cycles: 1115173447 heartbeat IPC: 1.407 cumulative IPC: 1.076 (Simulation time: 02 hr 16 min 34 sec)
Heartbeat CPU 0 instructions: 1210000175 cycles: 1122290774 heartbeat IPC: 1.405 cumulative IPC: 1.078 (Simulation time: 02 hr 17 min 25 sec)
Heartbeat CPU 0 instructions: 1220000176 cycles: 1129400705 heartbeat IPC: 1.406 cumulative IPC: 1.08 (Simulation time: 02 hr 18 min 12 sec)
[ERROR_CYCLE] Error added at CPU cycle 1133574068, interval 44, pending count: 1
[DRAM_CYCLE_ERROR] Cycle-based error applied! address=0xa0cafd340 additional_latency=173500 cycles
Heartbeat CPU 0 instructions: 1230000176 cycles: 1145876744 heartbeat IPC: 0.6069 cumulative IPC: 1.073 (Simulation time: 02 hr 19 min 26 sec)
Heartbeat CPU 0 instructions: 1240000176 cycles: 1158333618 heartbeat IPC: 0.8028 cumulative IPC: 1.071 (Simulation time: 02 hr 20 min 29 sec)
[ERROR_CYCLE] Error added at CPU cycle 1159337116, interval 45, pending count: 1
[DRAM_CYCLE_ERROR] Cycle-based error applied! address=0x170187fb00 additional_latency=173500 cycles
Heartbeat CPU 0 instructions: 1250000176 cycles: 1166310305 heartbeat IPC: 1.254 cumulative IPC: 1.072 (Simulation time: 02 hr 21 min 10 sec)
Heartbeat CPU 0 instructions: 1260000180 cycles: 1174198745 heartbeat IPC: 1.268 cumulative IPC: 1.073 (Simulation time: 02 hr 21 min 49 sec)
Heartbeat CPU 0 instructions: 1270000180 cycles: 1182085896 heartbeat IPC: 1.268 cumulative IPC: 1.074 (Simulation time: 02 hr 22 min 28 sec)
[ERROR_CYCLE] Error added at CPU cycle 1185100162, interval 46, pending count: 1
[DRAM_CYCLE_ERROR] Cycle-based error applied! address=0x117186aec0 additional_latency=173500 cycles
Heartbeat CPU 0 instructions: 1280000181 cycles: 1189970066 heartbeat IPC: 1.268 cumulative IPC: 1.076 (Simulation time: 02 hr 23 min 07 sec)
Heartbeat CPU 0 instructions: 1290000182 cycles: 1197847329 heartbeat IPC: 1.269 cumulative IPC: 1.077 (Simulation time: 02 hr 23 min 47 sec)
Heartbeat CPU 0 instructions: 1300000182 cycles: 1205727765 heartbeat IPC: 1.269 cumulative IPC: 1.078 (Simulation time: 02 hr 24 min 30 sec)
[ERROR_CYCLE] Error added at CPU cycle 1210863209, interval 47, pending count: 1
[DRAM_CYCLE_ERROR] Cycle-based error applied! address=0xedc9213c0 additional_latency=173500 cycles
Heartbeat CPU 0 instructions: 1310000185 cycles: 1213590863 heartbeat IPC: 1.272 cumulative IPC: 1.079 (Simulation time: 02 hr 25 min 29 sec)
Heartbeat CPU 0 instructions: 1320000186 cycles: 1221438124 heartbeat IPC: 1.274 cumulative IPC: 1.081 (Simulation time: 02 hr 26 min 27 sec)
Heartbeat CPU 0 instructions: 1330000186 cycles: 1229272878 heartbeat IPC: 1.276 cumulative IPC: 1.082 (Simulation time: 02 hr 27 min 25 sec)
[ERROR_CYCLE] Error added at CPU cycle 1236626257, interval 48, pending count: 1
[DRAM_CYCLE_ERROR] Cycle-based error applied! address=0xe19c976c0 additional_latency=173500 cycles
Heartbeat CPU 0 instructions: 1340000188 cycles: 1237094206 heartbeat IPC: 1.279 cumulative IPC: 1.083 (Simulation time: 02 hr 28 min 24 sec)
Heartbeat CPU 0 instructions: 1350000188 cycles: 1244898604 heartbeat IPC: 1.281 cumulative IPC: 1.084 (Simulation time: 02 hr 29 min 22 sec)
Heartbeat CPU 0 instructions: 1360000188 cycles: 1252685291 heartbeat IPC: 1.284 cumulative IPC: 1.086 (Simulation time: 02 hr 30 min 20 sec)
Heartbeat CPU 0 instructions: 1370000190 cycles: 1260485585 heartbeat IPC: 1.282 cumulative IPC: 1.087 (Simulation time: 02 hr 30 min 59 sec)
[ERROR_CYCLE] Error added at CPU cycle 1262389303, interval 49, pending count: 1
[DRAM_CYCLE_ERROR] Cycle-based error applied! address=0xedc921cc0 additional_latency=173500 cycles
Heartbeat CPU 0 instructions: 1380000194 cycles: 1268276370 heartbeat IPC: 1.284 cumulative IPC: 1.088 (Simulation time: 02 hr 31 min 42 sec)
Heartbeat CPU 0 instructions: 1390000196 cycles: 1276071887 heartbeat IPC: 1.283 cumulative IPC: 1.089 (Simulation time: 02 hr 32 min 26 sec)
Heartbeat CPU 0 instructions: 1400000200 cycles: 1283870936 heartbeat IPC: 1.282 cumulative IPC: 1.09 (Simulation time: 02 hr 33 min 13 sec)
[ERROR_CYCLE] Error added at CPU cycle 1288152351, interval 50, pending count: 1
[DRAM_CYCLE_ERROR] Cycle-based error applied! address=0xb2ad670c0 additional_latency=173500 cycles
Heartbeat CPU 0 instructions: 1410000200 cycles: 1291670457 heartbeat IPC: 1.282 cumulative IPC: 1.092 (Simulation time: 02 hr 33 min 55 sec)
Heartbeat CPU 0 instructions: 1420000200 cycles: 1299484166 heartbeat IPC: 1.28 cumulative IPC: 1.093 (Simulation time: 02 hr 34 min 35 sec)
Heartbeat CPU 0 instructions: 1430000200 cycles: 1307300347 heartbeat IPC: 1.279 cumulative IPC: 1.094 (Simulation time: 02 hr 35 min 14 sec)
[ERROR_CYCLE] Error added at CPU cycle 1313915398, interval 51, pending count: 1
[DRAM_CYCLE_ERROR] Cycle-based error applied! address=0xaeec205c0 additional_latency=173500 cycles
Heartbeat CPU 0 instructions: 1440000204 cycles: 1315116788 heartbeat IPC: 1.279 cumulative IPC: 1.095 (Simulation time: 02 hr 35 min 57 sec)
Heartbeat CPU 0 instructions: 1450000204 cycles: 1322923400 heartbeat IPC: 1.281 cumulative IPC: 1.096 (Simulation time: 02 hr 36 min 36 sec)
Heartbeat CPU 0 instructions: 1460000205 cycles: 1330730887 heartbeat IPC: 1.281 cumulative IPC: 1.097 (Simulation time: 02 hr 37 min 14 sec)
Heartbeat CPU 0 instructions: 1470000205 cycles: 1338540558 heartbeat IPC: 1.28 cumulative IPC: 1.098 (Simulation time: 02 hr 38 min 00 sec)
[ERROR_CYCLE] Error added at CPU cycle 1339678444, interval 52, pending count: 1
[DRAM_CYCLE_ERROR] Cycle-based error applied! address=0x41fbbde24 additional_latency=173500 cycles
Heartbeat CPU 0 instructions: 1480000207 cycles: 1346354603 heartbeat IPC: 1.28 cumulative IPC: 1.099 (Simulation time: 02 hr 38 min 53 sec)
Heartbeat CPU 0 instructions: 1490000209 cycles: 1354172223 heartbeat IPC: 1.279 cumulative IPC: 1.1 (Simulation time: 02 hr 39 min 38 sec)
Heartbeat CPU 0 instructions: 1500000209 cycles: 1361988749 heartbeat IPC: 1.279 cumulative IPC: 1.101 (Simulation time: 02 hr 40 min 22 sec)
[ERROR_CYCLE] Error added at CPU cycle 1365441492, interval 53, pending count: 1
[DRAM_CYCLE_ERROR] Cycle-based error applied! address=0xaeec20ec0 additional_latency=173500 cycles
Heartbeat CPU 0 instructions: 1510000210 cycles: 1369806320 heartbeat IPC: 1.279 cumulative IPC: 1.102 (Simulation time: 02 hr 41 min 07 sec)
Heartbeat CPU 0 instructions: 1520000211 cycles: 1377612454 heartbeat IPC: 1.281 cumulative IPC: 1.103 (Simulation time: 02 hr 41 min 47 sec)
Heartbeat CPU 0 instructions: 1530000211 cycles: 1385424336 heartbeat IPC: 1.28 cumulative IPC: 1.104 (Simulation time: 02 hr 42 min 26 sec)
[ERROR_CYCLE] Error added at CPU cycle 1391204538, interval 54, pending count: 1
[DRAM_CYCLE_ERROR] Cycle-based error applied! address=0xb41211180 additional_latency=173500 cycles
Heartbeat CPU 0 instructions: 1540000211 cycles: 1393227824 heartbeat IPC: 1.281 cumulative IPC: 1.105 (Simulation time: 02 hr 43 min 05 sec)
Heartbeat CPU 0 instructions: 1550000213 cycles: 1401022870 heartbeat IPC: 1.283 cumulative IPC: 1.106 (Simulation time: 02 hr 43 min 43 sec)
Heartbeat CPU 0 instructions: 1560000215 cycles: 1408786354 heartbeat IPC: 1.288 cumulative IPC: 1.107 (Simulation time: 02 hr 44 min 21 sec)
Heartbeat CPU 0 instructions: 1570000218 cycles: 1416549464 heartbeat IPC: 1.288 cumulative IPC: 1.108 (Simulation time: 02 hr 45 min 00 sec)
[ERROR_CYCLE] Error added at CPU cycle 1416967585, interval 55, pending count: 1
[DRAM_CYCLE_ERROR] Cycle-based error applied! address=0x16d96eb700 additional_latency=173500 cycles
Heartbeat CPU 0 instructions: 1580000219 cycles: 1424328167 heartbeat IPC: 1.286 cumulative IPC: 1.109 (Simulation time: 02 hr 45 min 38 sec)
Heartbeat CPU 0 instructions: 1590000219 cycles: 1432107618 heartbeat IPC: 1.285 cumulative IPC: 1.11 (Simulation time: 02 hr 46 min 16 sec)
Heartbeat CPU 0 instructions: 1600000219 cycles: 1439879371 heartbeat IPC: 1.287 cumulative IPC: 1.111 (Simulation time: 02 hr 46 min 54 sec)
[ERROR_CYCLE] Error added at CPU cycle 1442730633, interval 56, pending count: 1
[DRAM_CYCLE_ERROR] Cycle-based error applied! address=0xb41211a80 additional_latency=173500 cycles
Heartbeat CPU 0 instructions: 1610000219 cycles: 1447656360 heartbeat IPC: 1.286 cumulative IPC: 1.112 (Simulation time: 02 hr 47 min 34 sec)
Heartbeat CPU 0 instructions: 1620000221 cycles: 1455423147 heartbeat IPC: 1.288 cumulative IPC: 1.113 (Simulation time: 02 hr 48 min 13 sec)
Heartbeat CPU 0 instructions: 1630000222 cycles: 1463199731 heartbeat IPC: 1.286 cumulative IPC: 1.114 (Simulation time: 02 hr 48 min 53 sec)
[ERROR_CYCLE] Error added at CPU cycle 1468493679, interval 57, pending count: 1
[DRAM_CYCLE_ERROR] Cycle-based error applied! address=0x1dc4d7a080 additional_latency=173500 cycles
Heartbeat CPU 0 instructions: 1640000222 cycles: 1470978796 heartbeat IPC: 1.286 cumulative IPC: 1.115 (Simulation time: 02 hr 49 min 31 sec)
Heartbeat CPU 0 instructions: 1650000224 cycles: 1478762303 heartbeat IPC: 1.285 cumulative IPC: 1.116 (Simulation time: 02 hr 50 min 09 sec)
Heartbeat CPU 0 instructions: 1660000224 cycles: 1486556920 heartbeat IPC: 1.283 cumulative IPC: 1.117 (Simulation time: 02 hr 50 min 46 sec)
[ERROR_CYCLE] Error added at CPU cycle 1494256726, interval 58, pending count: 1
Heartbeat CPU 0 instructions: 1670000225 cycles: 1494358256 heartbeat IPC: 1.282 cumulative IPC: 1.118 (Simulation time: 02 hr 51 min 24 sec)
[DRAM_CYCLE_ERROR] Cycle-based error applied! address=0x1dc4d7a500 additional_latency=173500 cycles
Heartbeat CPU 0 instructions: 1680000228 cycles: 1502171745 heartbeat IPC: 1.28 cumulative IPC: 1.118 (Simulation time: 02 hr 52 min 03 sec)
Heartbeat CPU 0 instructions: 1690000228 cycles: 1509990553 heartbeat IPC: 1.279 cumulative IPC: 1.119 (Simulation time: 02 hr 52 min 43 sec)
Heartbeat CPU 0 instructions: 1700000229 cycles: 1517801717 heartbeat IPC: 1.28 cumulative IPC: 1.12 (Simulation time: 02 hr 53 min 21 sec)
[ERROR_CYCLE] Error added at CPU cycle 1520019774, interval 59, pending count: 1
[DRAM_CYCLE_ERROR] Cycle-based error applied! address=0x9f2d807c0 additional_latency=173500 cycles
Heartbeat CPU 0 instructions: 1710000233 cycles: 1525615421 heartbeat IPC: 1.28 cumulative IPC: 1.121 (Simulation time: 02 hr 53 min 58 sec)
Heartbeat CPU 0 instructions: 1720000234 cycles: 1533429391 heartbeat IPC: 1.28 cumulative IPC: 1.122 (Simulation time: 02 hr 54 min 36 sec)
Heartbeat CPU 0 instructions: 1730000234 cycles: 1541243054 heartbeat IPC: 1.28 cumulative IPC: 1.122 (Simulation time: 02 hr 55 min 15 sec)
[ERROR_CYCLE] Error added at CPU cycle 1545782820, interval 60, pending count: 1
[DRAM_CYCLE_ERROR] Cycle-based error applied! address=0xb0b270d00 additional_latency=173500 cycles
Heartbeat CPU 0 instructions: 1740000234 cycles: 1549055385 heartbeat IPC: 1.28 cumulative IPC: 1.123 (Simulation time: 02 hr 55 min 54 sec)
Heartbeat CPU 0 instructions: 1750000238 cycles: 1556867907 heartbeat IPC: 1.28 cumulative IPC: 1.124 (Simulation time: 02 hr 56 min 33 sec)
Heartbeat CPU 0 instructions: 1760000238 cycles: 1564681105 heartbeat IPC: 1.28 cumulative IPC: 1.125 (Simulation time: 02 hr 57 min 10 sec)
[ERROR_CYCLE] Error added at CPU cycle 1571545867, interval 61, pending count: 1
[DRAM_CYCLE_ERROR] Cycle-based error applied! address=0x16a1a81180 additional_latency=173500 cycles
Heartbeat CPU 0 instructions: 1770000238 cycles: 1572499450 heartbeat IPC: 1.279 cumulative IPC: 1.126 (Simulation time: 02 hr 57 min 49 sec)
Heartbeat CPU 0 instructions: 1780000240 cycles: 1580313536 heartbeat IPC: 1.28 cumulative IPC: 1.126 (Simulation time: 02 hr 58 min 27 sec)
Heartbeat CPU 0 instructions: 1790000242 cycles: 1588137384 heartbeat IPC: 1.278 cumulative IPC: 1.127 (Simulation time: 02 hr 59 min 05 sec)
Heartbeat CPU 0 instructions: 1800000246 cycles: 1595950476 heartbeat IPC: 1.28 cumulative IPC: 1.128 (Simulation time: 02 hr 59 min 42 sec)
[ERROR_CYCLE] Error added at CPU cycle 1597308915, interval 62, pending count: 1
[DRAM_CYCLE_ERROR] Cycle-based error applied! address=0xb21b0e680 additional_latency=173500 cycles
Heartbeat CPU 0 instructions: 1810000248 cycles: 1603763628 heartbeat IPC: 1.28 cumulative IPC: 1.129 (Simulation time: 03 hr 00 min 20 sec)
Heartbeat CPU 0 instructions: 1820000248 cycles: 1611580261 heartbeat IPC: 1.279 cumulative IPC: 1.129 (Simulation time: 03 hr 00 min 57 sec)
Heartbeat CPU 0 instructions: 1830000248 cycles: 1618891858 heartbeat IPC: 1.368 cumulative IPC: 1.13 (Simulation time: 03 hr 01 min 35 sec)
[ERROR_CYCLE] Error added at CPU cycle 1623071961, interval 63, pending count: 1
[DRAM_CYCLE_ERROR] Cycle-based error applied! address=0x1e41a1b80 additional_latency=173500 cycles
Heartbeat CPU 0 instructions: 1840000251 cycles: 1625197683 heartbeat IPC: 1.586 cumulative IPC: 1.132 (Simulation time: 03 hr 02 min 12 sec)
Heartbeat CPU 0 instructions: 1850000251 cycles: 1631660006 heartbeat IPC: 1.547 cumulative IPC: 1.134 (Simulation time: 03 hr 02 min 49 sec)
Heartbeat CPU 0 instructions: 1860000252 cycles: 1638191432 heartbeat IPC: 1.531 cumulative IPC: 1.135 (Simulation time: 03 hr 03 min 26 sec)
Heartbeat CPU 0 instructions: 1870000252 cycles: 1644769462 heartbeat IPC: 1.52 cumulative IPC: 1.137 (Simulation time: 03 hr 04 min 03 sec)
[ERROR_CYCLE] Error added at CPU cycle 1648835009, interval 64, pending count: 1
[DRAM_CYCLE_ERROR] Cycle-based error applied! address=0x1ae0625780 additional_latency=173500 cycles
Heartbeat CPU 0 instructions: 1880000253 cycles: 1651473512 heartbeat IPC: 1.492 cumulative IPC: 1.138 (Simulation time: 03 hr 04 min 42 sec)
Heartbeat CPU 0 instructions: 1890000257 cycles: 1658524674 heartbeat IPC: 1.418 cumulative IPC: 1.14 (Simulation time: 03 hr 05 min 22 sec)
Heartbeat CPU 0 instructions: 1900000258 cycles: 1664155578 heartbeat IPC: 1.776 cumulative IPC: 1.142 (Simulation time: 03 hr 05 min 55 sec)
Heartbeat CPU 0 instructions: 1910000258 cycles: 1669739036 heartbeat IPC: 1.791 cumulative IPC: 1.144 (Simulation time: 03 hr 06 min 28 sec)
[ERROR_CYCLE] Error added at CPU cycle 1674598055, interval 65, pending count: 1
[DRAM_CYCLE_ERROR] Cycle-based error applied! address=0x913cf2440 additional_latency=173500 cycles
Heartbeat CPU 0 instructions: 1920000258 cycles: 1675474056 heartbeat IPC: 1.744 cumulative IPC: 1.146 (Simulation time: 03 hr 07 min 02 sec)
Heartbeat CPU 0 instructions: 1930000261 cycles: 1681113274 heartbeat IPC: 1.773 cumulative IPC: 1.148 (Simulation time: 03 hr 07 min 35 sec)
Heartbeat CPU 0 instructions: 1940000264 cycles: 1686717358 heartbeat IPC: 1.784 cumulative IPC: 1.15 (Simulation time: 03 hr 08 min 08 sec)
Heartbeat CPU 0 instructions: 1950000264 cycles: 1692382739 heartbeat IPC: 1.765 cumulative IPC: 1.152 (Simulation time: 03 hr 08 min 41 sec)
Heartbeat CPU 0 instructions: 1960000264 cycles: 1698018667 heartbeat IPC: 1.774 cumulative IPC: 1.154 (Simulation time: 03 hr 09 min 14 sec)
[ERROR_CYCLE] Error added at CPU cycle 1700361102, interval 66, pending count: 1
[DRAM_CYCLE_ERROR] Cycle-based error applied! address=0x37b801780 additional_latency=173500 cycles
Heartbeat CPU 0 instructions: 1970000267 cycles: 1703649350 heartbeat IPC: 1.776 cumulative IPC: 1.156 (Simulation time: 03 hr 09 min 47 sec)
Heartbeat CPU 0 instructions: 1980000268 cycles: 1709253365 heartbeat IPC: 1.784 cumulative IPC: 1.158 (Simulation time: 03 hr 10 min 20 sec)
Heartbeat CPU 0 instructions: 1990000270 cycles: 1714834701 heartbeat IPC: 1.792 cumulative IPC: 1.16 (Simulation time: 03 hr 10 min 53 sec)

=== ERROR PAGE STATISTICS ===
Mode: CYCLE
Error Cycle Interval: 25763047 CPU cycles
Total Error Accesses: 66
==============================
Simulation finished CPU 0 instructions: 1999999905 cycles: 1724160050 cumulative IPC: 1.16 (Simulation time: 03 hr 11 min 40 sec)
Simulation complete CPU 0 instructions: 1999999905 cycles: 1724160050 cumulative IPC: 1.16 (Simulation time: 03 hr 11 min 40 sec)

ChampSim completed all CPUs

=== Simulation ===
CPU 0 runs test_traces/621.wrf_s-6673B.champsimtrace.xz

Region of Interest Statistics

CPU 0 cumulative IPC: 1.16 instructions: 1999999905 cycles: 1724160050
CPU 0 Branch Prediction Accuracy: 93.25% MPKI: 6.743 Average ROB Occupancy at Mispredict: 68.22
Branch type MPKI
BRANCH_DIRECT_JUMP: 0.00112
BRANCH_INDIRECT: 6.95e-05
BRANCH_CONDITIONAL: 5.98
BRANCH_DIRECT_CALL: 0.002089
BRANCH_INDIRECT_CALL: 2e-06
BRANCH_RETURN: 0.7595

cpu0->cpu0_STLB TOTAL        ACCESS:    1304527 HIT:    1183906 MISS:     120621 MSHR_MERGE:          0
cpu0->cpu0_STLB LOAD         ACCESS:    1304527 HIT:    1183906 MISS:     120621 MSHR_MERGE:          0
cpu0->cpu0_STLB RFO          ACCESS:          0 HIT:          0 MISS:          0 MSHR_MERGE:          0
cpu0->cpu0_STLB PREFETCH     ACCESS:          0 HIT:          0 MISS:          0 MSHR_MERGE:          0
cpu0->cpu0_STLB WRITE        ACCESS:          0 HIT:          0 MISS:          0 MSHR_MERGE:          0
cpu0->cpu0_STLB TRANSLATION  ACCESS:          0 HIT:          0 MISS:          0 MSHR_MERGE:          0
cpu0->cpu0_STLB PREFETCH REQUESTED:          0 ISSUED:          0 USEFUL:          0 USELESS:          0
cpu0->cpu0_STLB AVERAGE MISS LATENCY: 272.2 cycles
cpu0->cpu0_L2C TOTAL        ACCESS:   24598524 HIT:   12911721 MISS:   11686803 MSHR_MERGE:          0
cpu0->cpu0_L2C LOAD         ACCESS:   13804953 HIT:    4645833 MISS:    9159120 MSHR_MERGE:          0
cpu0->cpu0_L2C RFO          ACCESS:    3870276 HIT:    1346636 MISS:    2523640 MSHR_MERGE:          0
cpu0->cpu0_L2C PREFETCH     ACCESS:          0 HIT:          0 MISS:          0 MSHR_MERGE:          0
cpu0->cpu0_L2C WRITE        ACCESS:    6923295 HIT:    6919252 MISS:       4043 MSHR_MERGE:          0
cpu0->cpu0_L2C TRANSLATION  ACCESS:          0 HIT:          0 MISS:          0 MSHR_MERGE:          0
cpu0->cpu0_L2C PREFETCH REQUESTED:          0 ISSUED:          0 USEFUL:          0 USELESS:          0
cpu0->cpu0_L2C AVERAGE MISS LATENCY: 113.6 cycles
cpu0->cpu0_L1I TOTAL        ACCESS:  174626205 HIT:  173499781 MISS:    1126424 MSHR_MERGE:     424129
cpu0->cpu0_L1I LOAD         ACCESS:  174626205 HIT:  173499781 MISS:    1126424 MSHR_MERGE:     424129
cpu0->cpu0_L1I RFO          ACCESS:          0 HIT:          0 MISS:          0 MSHR_MERGE:          0
cpu0->cpu0_L1I PREFETCH     ACCESS:          0 HIT:          0 MISS:          0 MSHR_MERGE:          0
cpu0->cpu0_L1I WRITE        ACCESS:          0 HIT:          0 MISS:          0 MSHR_MERGE:          0
cpu0->cpu0_L1I TRANSLATION  ACCESS:          0 HIT:          0 MISS:          0 MSHR_MERGE:          0
cpu0->cpu0_L1I PREFETCH REQUESTED:          0 ISSUED:          0 USEFUL:          0 USELESS:          0
cpu0->cpu0_L1I AVERAGE MISS LATENCY: 13.67 cycles
cpu0->cpu0_L1D TOTAL        ACCESS:  520554962 HIT:  483455718 MISS:   37099244 MSHR_MERGE:   20126142
cpu0->cpu0_L1D LOAD         ACCESS:  407432527 HIT:  384035916 MISS:   23396611 MSHR_MERGE:   10293863
cpu0->cpu0_L1D RFO          ACCESS:          0 HIT:          0 MISS:          0 MSHR_MERGE:          0
cpu0->cpu0_L1D PREFETCH     ACCESS:          0 HIT:          0 MISS:          0 MSHR_MERGE:          0
cpu0->cpu0_L1D WRITE        ACCESS:  113122435 HIT:   99419802 MISS:   13702633 MSHR_MERGE:    9832279
cpu0->cpu0_L1D TRANSLATION  ACCESS:          0 HIT:          0 MISS:          0 MSHR_MERGE:          0
cpu0->cpu0_L1D PREFETCH REQUESTED:          0 ISSUED:          0 USEFUL:          0 USELESS:          0
cpu0->cpu0_L1D AVERAGE MISS LATENCY: 86.79 cycles
cpu0->cpu0_ITLB TOTAL        ACCESS:  150099978 HIT:  150096561 MISS:       3417 MSHR_MERGE:       2412
cpu0->cpu0_ITLB LOAD         ACCESS:  150099978 HIT:  150096561 MISS:       3417 MSHR_MERGE:       2412
cpu0->cpu0_ITLB RFO          ACCESS:          0 HIT:          0 MISS:          0 MSHR_MERGE:          0
cpu0->cpu0_ITLB PREFETCH     ACCESS:          0 HIT:          0 MISS:          0 MSHR_MERGE:          0
cpu0->cpu0_ITLB WRITE        ACCESS:          0 HIT:          0 MISS:          0 MSHR_MERGE:          0
cpu0->cpu0_ITLB TRANSLATION  ACCESS:          0 HIT:          0 MISS:          0 MSHR_MERGE:          0
cpu0->cpu0_ITLB PREFETCH REQUESTED:          0 ISSUED:          0 USEFUL:          0 USELESS:          0
cpu0->cpu0_ITLB AVERAGE MISS LATENCY: 414.4 cycles
cpu0->cpu0_DTLB TOTAL        ACCESS:  475774483 HIT:  473783775 MISS:    1990708 MSHR_MERGE:     687186
cpu0->cpu0_DTLB LOAD         ACCESS:  475774483 HIT:  473783775 MISS:    1990708 MSHR_MERGE:     687186
cpu0->cpu0_DTLB RFO          ACCESS:          0 HIT:          0 MISS:          0 MSHR_MERGE:          0
cpu0->cpu0_DTLB PREFETCH     ACCESS:          0 HIT:          0 MISS:          0 MSHR_MERGE:          0
cpu0->cpu0_DTLB WRITE        ACCESS:          0 HIT:          0 MISS:          0 MSHR_MERGE:          0
cpu0->cpu0_DTLB TRANSLATION  ACCESS:          0 HIT:          0 MISS:          0 MSHR_MERGE:          0
cpu0->cpu0_DTLB PREFETCH REQUESTED:          0 ISSUED:          0 USEFUL:          0 USELESS:          0
cpu0->cpu0_DTLB AVERAGE MISS LATENCY: 30.01 cycles
cpu0->LLC TOTAL        ACCESS:   16632761 HIT:    6535096 MISS:   10097665 MSHR_MERGE:          0
cpu0->LLC LOAD         ACCESS:    9159120 HIT:    1186819 MISS:    7972301 MSHR_MERGE:          0
cpu0->LLC RFO          ACCESS:    2523640 HIT:     411887 MISS:    2111753 MSHR_MERGE:          0
cpu0->LLC PREFETCH     ACCESS:          0 HIT:          0 MISS:          0 MSHR_MERGE:          0
cpu0->LLC WRITE        ACCESS:    4950001 HIT:    4936390 MISS:      13611 MSHR_MERGE:          0
cpu0->LLC TRANSLATION  ACCESS:          0 HIT:          0 MISS:          0 MSHR_MERGE:          0
cpu0->LLC PREFETCH REQUESTED:          0 ISSUED:          0 USEFUL:          0 USELESS:          0
cpu0->LLC AVERAGE MISS LATENCY: 113.2 cycles

DRAM Statistics

Channel 0 RQ ROW_BUFFER_HIT:       5302
  ROW_BUFFER_MISS:    5159031
  AVG DBUS CONGESTED CYCLE: 9.834
Channel 0 WQ ROW_BUFFER_HIT:     395028
  ROW_BUFFER_MISS:    1636778
  FULL:          0
Channel 0 REFRESHES ISSUED:     143670

Channel 1 RQ ROW_BUFFER_HIT:       5258
  ROW_BUFFER_MISS:    5154337
  AVG DBUS CONGESTED CYCLE: 9.834
Channel 1 WQ ROW_BUFFER_HIT:     393005
  ROW_BUFFER_MISS:    1637638
  FULL:          0
Channel 1 REFRESHES ISSUED:     143670
