
*** ChampSim Multicore Out-of-Order Simulator ***
Warmup Instructions: 0
Simulation Instructions: 9223372036854775807
Number of CPUs: 1
Page size: 1048576

Off-chip DRAM Size: 64 GiB Channels: 2 Width: 32-bit Data Rate: 4807 MT/s
[ERROR_PAGE_MANAGER] Error latency: 2459910500 
[ERROR_PAGE_MANAGER] Random seed: 54321 (fixed for preload reproducibility)
[ERROR_PAGE_MANAGER] Cycle-based error modeling enabled
[ERROR_PAGE_MANAGER] Errors per interval: 1
[ERROR_PAGE_MANAGER] Error cycle interval: 46484161 cycles

=== ERROR PAGE STATISTICS ===
Mode: CYCLE
Error Cycle Interval: 46484161 CPU cycles
Total Error Accesses: 0
==============================
Warmup finished CPU 0 instructions: 0 cycles: 1 cumulative IPC: 0 (Simulation time: 00 hr 00 min 00 sec)
Warmup complete CPU 0 instructions: 0 cycles: 1 cumulative IPC: 0 (Simulation time: 00 hr 00 min 00 sec)
Simulation CPU 0 panic: IPC 0 < 0.01
Simulation CPU 0 panic: IPC 1e-07 < 0.01
Simulation CPU 0 panic: IPC 0 < 0.01
Simulation CPU 0 panic: IPC 1e-07 < 0.01
[ERROR_CYCLE] Error added at CPU cycle 46484161, interval 1, pending count: 1
Simulation CPU 0 panic: IPC 2.1e-06 < 0.01
[DRAM_CYCLE_ERROR] Cycle-based error applied! address=0x537c08a40 additional_latency=2459910500 cycles
Simulation CPU 0 panic: IPC 0 < 0.01
Simulation CPU 0 panic: IPC 2.3e-05 < 0.01
Simulation CPU 0 panic: IPC 0.0004727 < 0.01
Simulation CPU 0 panic: IPC 1e-06 < 0.01
[ERROR_CYCLE] Error added at CPU cycle 92968322, interval 2, pending count: 1
[DRAM_CYCLE_ERROR] Cycle-based error applied! address=0x896229620 additional_latency=2459910500 cycles
Simulation CPU 0 panic: IPC 0 < 0.01
Simulation CPU 0 panic: IPC 0.0002725 < 0.01
Simulation CPU 0 panic: IPC 0.0029129 < 0.01
Simulation CPU 0 panic: IPC 0.0020414 < 0.01
[ERROR_CYCLE] Error added at CPU cycle 139452483, interval 3, pending count: 1
[DRAM_CYCLE_ERROR] Cycle-based error applied! address=0x61cfe4434 additional_latency=2459910500 cycles
Simulation CPU 0 panic: IPC 0.0001183 < 0.01
Simulation CPU 0 panic: IPC 3e-07 < 0.01
Simulation CPU 0 panic: IPC 1.3e-06 < 0.01
Simulation CPU 0 panic: IPC 4.4e-06 < 0.01
Simulation CPU 0 panic: IPC 0 < 0.01
[ERROR_CYCLE] Error added at CPU cycle 185936644, interval 4, pending count: 1
[DRAM_CYCLE_ERROR] Cycle-based error applied! address=0x537c14fe8 additional_latency=2459910500 cycles
Simulation CPU 0 panic: IPC 0.0022093 < 0.01
Simulation CPU 0 panic: IPC 0 < 0.01
Simulation CPU 0 panic: IPC 0 < 0.01
Simulation CPU 0 panic: IPC 0.0021737 < 0.01
Simulation CPU 0 panic: IPC 2.6e-05 < 0.01
[ERROR_CYCLE] Error added at CPU cycle 232420805, interval 5, pending count: 1
[DRAM_CYCLE_ERROR] Cycle-based error applied! address=0x537c19020 additional_latency=2459910500 cycles
Simulation CPU 0 panic: IPC 0 < 0.01
Simulation CPU 0 panic: IPC 5e-07 < 0.01
Simulation CPU 0 panic: IPC 1.4e-06 < 0.01
Simulation CPU 0 panic: IPC 5.38e-05 < 0.01
[ERROR_CYCLE] Error added at CPU cycle 278904966, interval 6, pending count: 1
Simulation CPU 0 panic: IPC 3.4e-06 < 0.01
[DRAM_CYCLE_ERROR] Cycle-based error applied! address=0x537c1ef40 additional_latency=2459910500 cycles
Simulation CPU 0 panic: IPC 0 < 0.01
Simulation CPU 0 panic: IPC 1.05e-05 < 0.01
Simulation CPU 0 panic: IPC 6e-07 < 0.01
Simulation CPU 0 panic: IPC 0.0002537 < 0.01
[ERROR_CYCLE] Error added at CPU cycle 325389128, interval 7, pending count: 1
[DRAM_CYCLE_ERROR] Cycle-based error applied! address=0x537c22590 additional_latency=2459910500 cycles
Simulation CPU 0 panic: IPC 0.0004514 < 0.01
Simulation CPU 0 panic: IPC 0 < 0.01
Simulation CPU 0 panic: IPC 0.0009248 < 0.01
Simulation CPU 0 panic: IPC 0.000379 < 0.01
Simulation CPU 0 panic: IPC 0.0044689 < 0.01
[ERROR_CYCLE] Error added at CPU cycle 371873289, interval 8, pending count: 1
[DRAM_CYCLE_ERROR] Cycle-based error applied! address=0x4a611da10 additional_latency=2459910500 cycles
Simulation CPU 0 panic: IPC 0 < 0.01
Simulation CPU 0 panic: IPC 0.0035715 < 0.01
Simulation CPU 0 panic: IPC 0.0010914 < 0.01
Simulation CPU 0 panic: IPC 0.000521 < 0.01
[ERROR_CYCLE] Error added at CPU cycle 418357450, interval 9, pending count: 1
Simulation CPU 0 panic: IPC 0.0036923 < 0.01
[DRAM_CYCLE_ERROR] Cycle-based error applied! address=0x93d2856b8 additional_latency=2459910500 cycles
Simulation CPU 0 panic: IPC 0 < 0.01
Simulation CPU 0 panic: IPC 0.0016837 < 0.01
Simulation CPU 0 panic: IPC 5.9e-06 < 0.01
Simulation CPU 0 panic: IPC 0.0002825 < 0.01
[ERROR_CYCLE] Error added at CPU cycle 464841611, interval 10, pending count: 1
[DRAM_CYCLE_ERROR] Cycle-based error applied! address=0x46b11efe8 additional_latency=2459910500 cycles
Simulation CPU 0 panic: IPC 1.3e-06 < 0.01
Simulation CPU 0 panic: IPC 0.0018753 < 0.01
Simulation CPU 0 panic: IPC 0.0018104 < 0.01
Simulation CPU 0 panic: IPC 0.0007074 < 0.01
Simulation CPU 0 panic: IPC 9e-06 < 0.01
[ERROR_CYCLE] Error added at CPU cycle 511325771, interval 11, pending count: 1
[DRAM_CYCLE_ERROR] Cycle-based error applied! address=0x9c7dae664 additional_latency=2459910500 cycles
Simulation CPU 0 panic: IPC 0 < 0.01
Simulation CPU 0 panic: IPC 1.42e-05 < 0.01
Simulation CPU 0 panic: IPC 1.42e-05 < 0.01
Simulation CPU 0 panic: IPC 1.42e-05 < 0.01
[ERROR_CYCLE] Error added at CPU cycle 557809932, interval 12, pending count: 1
Simulation CPU 0 panic: IPC 0.0036294 < 0.01
[DRAM_CYCLE_ERROR] Cycle-based error applied! address=0x9c4f31650 additional_latency=2459910500 cycles
Simulation CPU 0 panic: IPC 0 < 0.01
Simulation CPU 0 panic: IPC 0.0020797 < 0.01
Simulation CPU 0 panic: IPC 0.0068238 < 0.01
Simulation CPU 0 panic: IPC 0.0004521 < 0.01
[ERROR_CYCLE] Error added at CPU cycle 604294093, interval 13, pending count: 1
[DRAM_CYCLE_ERROR] Cycle-based error applied! address=0x622ade950 additional_latency=2459910500 cycles
Simulation CPU 0 panic: IPC 0 < 0.01
Simulation CPU 0 panic: IPC 0.0004484 < 0.01
Simulation CPU 0 panic: IPC 0.0002466 < 0.01
Simulation CPU 0 panic: IPC 0.0004567 < 0.01
Simulation CPU 0 panic: IPC 0.0004498 < 0.01
[ERROR_CYCLE] Error added at CPU cycle 650778254, interval 14, pending count: 1
[DRAM_CYCLE_ERROR] Cycle-based error applied! address=0x2ea49ab50 additional_latency=2459910500 cycles
Simulation CPU 0 panic: IPC 0 < 0.01
Simulation CPU 0 panic: IPC 0.0004484 < 0.01
Simulation CPU 0 panic: IPC 0.0002466 < 0.01
Simulation CPU 0 panic: IPC 0.0007072 < 0.01
[ERROR_CYCLE] Error added at CPU cycle 697262415, interval 15, pending count: 1
Simulation CPU 0 panic: IPC 0.0065293 < 0.01
[DRAM_CYCLE_ERROR] Cycle-based error applied! address=0x4440aa350 additional_latency=2459910500 cycles
Simulation CPU 0 panic: IPC 0 < 0.01
Simulation CPU 0 critical: IPC 0.011599 < 0.02
Simulation CPU 0 panic: IPC 0.0002464 < 0.01
Simulation CPU 0 panic: IPC 0.000849 < 0.01
[ERROR_CYCLE] Error added at CPU cycle 743746576, interval 16, pending count: 1
[DRAM_CYCLE_ERROR] Cycle-based error applied! address=0x537c4dfe8 additional_latency=2459910500 cycles
Simulation CPU 0 panic: IPC 0 < 0.01
Simulation CPU 0 panic: IPC 0.0002137 < 0.01
Simulation CPU 0 panic: IPC 0.004039 < 0.01
Simulation CPU 0 panic: IPC 0.0007229 < 0.01
Simulation CPU 0 panic: IPC 4.4e-06 < 0.01
[ERROR_CYCLE] Error added at CPU cycle 790230737, interval 17, pending count: 1
[DRAM_CYCLE_ERROR] Cycle-based error applied! address=0x537c51f38 additional_latency=2459910500 cycles
Simulation CPU 0 panic: IPC 0 < 0.01
Simulation CPU 0 panic: IPC 3.4e-06 < 0.01
Simulation CPU 0 panic: IPC 0.0001809 < 0.01
Simulation CPU 0 panic: IPC 0.0003701 < 0.01
[ERROR_CYCLE] Error added at CPU cycle 836714899, interval 18, pending count: 1
[DRAM_CYCLE_ERROR] Cycle-based error applied! address=0x537c55e98 additional_latency=2459910500 cycles
Simulation CPU 0 panic: IPC 0.0005202 < 0.01
Simulation CPU 0 panic: IPC 0 < 0.01
Simulation CPU 0 panic: IPC 0.0045808 < 0.01
Simulation CPU 0 panic: IPC 0.0004161 < 0.01
Simulation CPU 0 panic: IPC 0.0006653 < 0.01
[ERROR_CYCLE] Error added at CPU cycle 883199060, interval 19, pending count: 1
[DRAM_CYCLE_ERROR] Cycle-based error applied! address=0x537c59740 additional_latency=2459910500 cycles
Simulation CPU 0 panic: IPC 0 < 0.01
Simulation CPU 0 panic: IPC 0.0002537 < 0.01
Simulation CPU 0 panic: IPC 0.0002387 < 0.01
Simulation CPU 0 panic: IPC 0.0016543 < 0.01
[ERROR_CYCLE] Error added at CPU cycle 929683221, interval 20, pending count: 1
Simulation CPU 0 panic: IPC 0.0002469 < 0.01
[DRAM_CYCLE_ERROR] Cycle-based error applied! address=0x537c5dd70 additional_latency=2459910500 cycles
Simulation CPU 0 panic: IPC 0 < 0.01
Simulation CPU 0 panic: IPC 0.0004001 < 0.01
Simulation CPU 0 panic: IPC 0.0002481 < 0.01
Simulation CPU 0 panic: IPC 0.0002475 < 0.01
[ERROR_CYCLE] Error added at CPU cycle 976167382, interval 21, pending count: 1
[DRAM_CYCLE_ERROR] Cycle-based error applied! address=0x537c624c0 additional_latency=2459910500 cycles
Simulation CPU 0 panic: IPC 0.0007423 < 0.01
Simulation CPU 0 panic: IPC 0 < 0.01
Simulation CPU 0 panic: IPC 0.001547 < 0.01
Simulation CPU 0 panic: IPC 0.0020238 < 0.01
Simulation CPU 0 panic: IPC 0.0006807 < 0.01
[ERROR_CYCLE] Error added at CPU cycle 1022651542, interval 22, pending count: 1
[DRAM_CYCLE_ERROR] Cycle-based error applied! address=0x537c69fb0 additional_latency=2459910500 cycles
Simulation CPU 0 panic: IPC 0.0038324 < 0.01
Simulation CPU 0 panic: IPC 0.0057279 < 0.01
Simulation CPU 0 panic: IPC 0.0074519 < 0.01
Simulation CPU 0 critical: IPC 0.011126 < 0.02
[ERROR_CYCLE] Error added at CPU cycle 1069135703, interval 23, pending count: 1
Simulation CPU 0 panic: IPC 0.0002364 < 0.01
[DRAM_CYCLE_ERROR] Cycle-based error applied! address=0x537c6d808 additional_latency=2459910500 cycles
Simulation CPU 0 panic: IPC 0 < 0.01
Simulation CPU 0 panic: IPC 5.36e-05 < 0.01
Simulation CPU 0 panic: IPC 0.0003131 < 0.01
Simulation CPU 0 panic: IPC 0.0006031 < 0.01
[ERROR_CYCLE] Error added at CPU cycle 1115619864, interval 24, pending count: 1
[DRAM_CYCLE_ERROR] Cycle-based error applied! address=0x537c71490 additional_latency=2459910500 cycles
Simulation CPU 0 panic: IPC 0.0002563 < 0.01
Simulation CPU 0 panic: IPC 0 < 0.01
Simulation CPU 0 panic: IPC 0.0002463 < 0.01
Simulation CPU 0 panic: IPC 0.0002461 < 0.01
[ERROR_CYCLE] Error added at CPU cycle 1162104025, interval 25, pending count: 1
[DRAM_CYCLE_ERROR] Cycle-based error applied! address=0xdb0b00000 additional_latency=2459910500 cycles
Simulation CPU 0 panic: IPC 0 < 0.01
Heartbeat CPU 0 instructions: 10000002 cycles: 1176029442 heartbeat IPC: 0.008503 cumulative IPC: 0.008503 (Simulation time: 01 hr 44 min 43 sec)
Heartbeat CPU 0 instructions: 20000003 cycles: 1191122695 heartbeat IPC: 0.6625 cumulative IPC: 0.01679 (Simulation time: 01 hr 46 min 37 sec)
Heartbeat CPU 0 instructions: 30000006 cycles: 1196958827 heartbeat IPC: 1.713 cumulative IPC: 0.02506 (Simulation time: 01 hr 47 min 31 sec)
[ERROR_CYCLE] Error added at CPU cycle 1208588186, interval 26, pending count: 1
[DRAM_CYCLE_ERROR] Cycle-based error applied! address=0x3343c8080 additional_latency=2459910500 cycles
Heartbeat CPU 0 instructions: 40000006 cycles: 1240348689 heartbeat IPC: 0.2305 cumulative IPC: 0.03225 (Simulation time: 01 hr 52 min 13 sec)
[ERROR_CYCLE] Error added at CPU cycle 1255072347, interval 27, pending count: 1
[DRAM_CYCLE_ERROR] Cycle-based error applied! address=0x537c7a5d0 additional_latency=2459910500 cycles
Simulation CPU 0 panic: IPC 0 < 0.01
Simulation CPU 0 warning: IPC 0.020771 < 0.05
[ERROR_CYCLE] Error added at CPU cycle 1301556508, interval 28, pending count: 1
[DRAM_CYCLE_ERROR] Cycle-based error applied! address=0x56855a7f8 additional_latency=2459910500 cycles
Heartbeat CPU 0 instructions: 50000010 cycles: 1311950905 heartbeat IPC: 0.1397 cumulative IPC: 0.03811 (Simulation time: 01 hr 59 min 21 sec)
Heartbeat CPU 0 instructions: 60000011 cycles: 1326893063 heartbeat IPC: 0.6692 cumulative IPC: 0.04522 (Simulation time: 02 hr 01 min 04 sec)
Heartbeat CPU 0 instructions: 70000011 cycles: 1332444017 heartbeat IPC: 1.801 cumulative IPC: 0.05254 (Simulation time: 02 hr 01 min 56 sec)
[ERROR_CYCLE] Error added at CPU cycle 1348040670, interval 29, pending count: 1
Simulation CPU 0 panic: IPC 1e-06 < 0.01
[DRAM_CYCLE_ERROR] Cycle-based error applied! address=0xcd3f179c0 additional_latency=2459910500 cycles
Simulation CPU 0 panic: IPC 0 < 0.01
Simulation CPU 0 panic: IPC 1.4e-06 < 0.01
Simulation CPU 0 panic: IPC 9.85e-05 < 0.01
Simulation CPU 0 critical: IPC 0.010314 < 0.02
[ERROR_CYCLE] Error added at CPU cycle 1394524831, interval 30, pending count: 1
[DRAM_CYCLE_ERROR] Cycle-based error applied! address=0xaee24bbf8 additional_latency=2459910500 cycles
Simulation CPU 0 panic: IPC 0 < 0.01
Simulation CPU 0 warning: IPC 0.043496 < 0.05
[ERROR_CYCLE] Error added at CPU cycle 1441008992, interval 31, pending count: 1
[DRAM_CYCLE_ERROR] Cycle-based error applied! address=0x537c88f20 additional_latency=2459910500 cycles
Simulation CPU 0 panic: IPC 0 < 0.01
Simulation CPU 0 panic: IPC 1.16e-05 < 0.01
Simulation CPU 0 panic: IPC 0.003754 < 0.01
Simulation CPU 0 panic: IPC 0.0004161 < 0.01
[ERROR_CYCLE] Error added at CPU cycle 1487493153, interval 32, pending count: 1
Simulation CPU 0 panic: IPC 0.0004913 < 0.01
[DRAM_CYCLE_ERROR] Cycle-based error applied! address=0x537c8c1c0 additional_latency=2459910500 cycles
Simulation CPU 0 panic: IPC 0 < 0.01
Simulation CPU 0 panic: IPC 0.0028653 < 0.01
Simulation CPU 0 panic: IPC 0.0002445 < 0.01
Simulation CPU 0 panic: IPC 0.0002447 < 0.01
[ERROR_CYCLE] Error added at CPU cycle 1533977313, interval 33, pending count: 1
[DRAM_CYCLE_ERROR] Cycle-based error applied! address=0x537c907f8 additional_latency=2459910500 cycles
Simulation CPU 0 panic: IPC 0.0002405 < 0.01
Simulation CPU 0 panic: IPC 0 < 0.01
Simulation CPU 0 panic: IPC 0.0002343 < 0.01
Simulation CPU 0 panic: IPC 0.0002301 < 0.01
[ERROR_CYCLE] Error added at CPU cycle 1580461474, interval 34, pending count: 1
[DRAM_CYCLE_ERROR] Cycle-based error applied! address=0xf28834c0 additional_latency=2459910500 cycles
Simulation CPU 0 warning: IPC 0.049653 < 0.05
Heartbeat CPU 0 instructions: 80000014 cycles: 1590637646 heartbeat IPC: 0.03873 cumulative IPC: 0.05029 (Simulation time: 02 hr 24 min 31 sec)
Heartbeat CPU 0 instructions: 90000016 cycles: 1605971065 heartbeat IPC: 0.6522 cumulative IPC: 0.05604 (Simulation time: 02 hr 26 min 03 sec)
Simulation CPU 0 panic: IPC 0.0077634 < 0.01
Simulation CPU 0 warning: IPC 0.02519 < 0.05
[ERROR_CYCLE] Error added at CPU cycle 1626945635, interval 35, pending count: 1
[DRAM_CYCLE_ERROR] Cycle-based error applied! address=0xe440a1280 additional_latency=2459910500 cycles
Simulation CPU 0 panic: IPC 0.0006831 < 0.01
Heartbeat CPU 0 instructions: 100000020 cycles: 1657491833 heartbeat IPC: 0.1941 cumulative IPC: 0.06033 (Simulation time: 02 hr 30 min 45 sec)
[ERROR_CYCLE] Error added at CPU cycle 1673429796, interval 36, pending count: 1
[DRAM_CYCLE_ERROR] Cycle-based error applied! address=0x2f2a21610 additional_latency=2459910500 cycles
Simulation CPU 0 panic: IPC 0 < 0.01
Simulation CPU 0 critical: IPC 0.014643 < 0.02
Simulation CPU 0 critical: IPC 0.014642 < 0.02
Simulation CPU 0 warning: IPC 0.024537 < 0.05
[ERROR_CYCLE] Error added at CPU cycle 1719913957, interval 37, pending count: 1
Simulation CPU 0 panic: IPC 0.0003929 < 0.01
[DRAM_CYCLE_ERROR] Cycle-based error applied! address=0x537c9f120 additional_latency=2459910500 cycles
Simulation CPU 0 panic: IPC 0 < 0.01
Simulation CPU 0 critical: IPC 0.014938 < 0.02
[ERROR_CYCLE] Error added at CPU cycle 1766398118, interval 38, pending count: 1
[DRAM_CYCLE_ERROR] Cycle-based error applied! address=0x537ca34c0 additional_latency=2459910500 cycles
Simulation CPU 0 panic: IPC 0 < 0.01
Heartbeat CPU 0 instructions: 110000020 cycles: 1784787671 heartbeat IPC: 0.07856 cumulative IPC: 0.06163 (Simulation time: 02 hr 41 min 56 sec)
[ERROR_CYCLE] Error added at CPU cycle 1812882279, interval 39, pending count: 1
[DRAM_CYCLE_ERROR] Cycle-based error applied! address=0xa0c2d7810 additional_latency=2459910500 cycles
Simulation CPU 0 panic: IPC 0.0001143 < 0.01
Heartbeat CPU 0 instructions: 120000021 cycles: 1836806440 heartbeat IPC: 0.1922 cumulative IPC: 0.06533 (Simulation time: 02 hr 47 min 22 sec)
Simulation CPU 0 critical: IPC 0.011778 < 0.02
[ERROR_CYCLE] Error added at CPU cycle 1859366441, interval 40, pending count: 1
[DRAM_CYCLE_ERROR] Cycle-based error applied! address=0x537caa410 additional_latency=2459910500 cycles
Simulation CPU 0 panic: IPC 0 < 0.01
Simulation CPU 0 warning: IPC 0.022124 < 0.05
Heartbeat CPU 0 instructions: 130000024 cycles: 1897672887 heartbeat IPC: 0.1643 cumulative IPC: 0.0685 (Simulation time: 02 hr 52 min 38 sec)
[ERROR_CYCLE] Error added at CPU cycle 1905850602, interval 41, pending count: 1
[DRAM_CYCLE_ERROR] Cycle-based error applied! address=0x8c2900000 additional_latency=2459910500 cycles
Simulation CPU 0 panic: IPC 0.0014508 < 0.01
Simulation CPU 0 critical: IPC 0.012534 < 0.02
Heartbeat CPU 0 instructions: 140000028 cycles: 1939247067 heartbeat IPC: 0.2405 cumulative IPC: 0.07219 (Simulation time: 02 hr 56 min 21 sec)
Heartbeat CPU 0 instructions: 150000030 cycles: 1943720897 heartbeat IPC: 2.235 cumulative IPC: 0.07717 (Simulation time: 02 hr 56 min 58 sec)
[ERROR_CYCLE] Error added at CPU cycle 1952334763, interval 42, pending count: 1
[DRAM_CYCLE_ERROR] Cycle-based error applied! address=0xeb5800050 additional_latency=2459910500 cycles
Simulation CPU 0 critical: IPC 0.012398 < 0.02
Heartbeat CPU 0 instructions: 160000030 cycles: 1966429148 heartbeat IPC: 0.4404 cumulative IPC: 0.08137 (Simulation time: 02 hr 59 min 10 sec)
Simulation CPU 0 panic: IPC 0.0002463 < 0.01
Simulation CPU 0 panic: IPC 0.0002463 < 0.01
[ERROR_CYCLE] Error added at CPU cycle 1998818924, interval 43, pending count: 1
[DRAM_CYCLE_ERROR] Cycle-based error applied! address=0x537cb5658 additional_latency=2459910500 cycles
Simulation CPU 0 critical: IPC 0.015926 < 0.02
Simulation CPU 0 panic: IPC 0 < 0.01
Simulation CPU 0 panic: IPC 0.0019382 < 0.01
Heartbeat CPU 0 instructions: 170000030 cycles: 2027279336 heartbeat IPC: 0.1643 cumulative IPC: 0.08386 (Simulation time: 03 hr 05 min 34 sec)
[ERROR_CYCLE] Error added at CPU cycle 2045303084, interval 44, pending count: 1
[DRAM_CYCLE_ERROR] Cycle-based error applied! address=0x1df287380 additional_latency=2459910500 cycles
Simulation CPU 0 panic: IPC 0 < 0.01
Heartbeat CPU 0 instructions: 180000031 cycles: 2061661318 heartbeat IPC: 0.2909 cumulative IPC: 0.08731 (Simulation time: 03 hr 09 min 08 sec)
Heartbeat CPU 0 instructions: 190000031 cycles: 2067669652 heartbeat IPC: 1.664 cumulative IPC: 0.09189 (Simulation time: 03 hr 10 min 00 sec)
Heartbeat CPU 0 instructions: 200000032 cycles: 2073689921 heartbeat IPC: 1.661 cumulative IPC: 0.09645 (Simulation time: 03 hr 10 min 36 sec)
Heartbeat CPU 0 instructions: 210000032 cycles: 2088930489 heartbeat IPC: 0.6561 cumulative IPC: 0.1005 (Simulation time: 03 hr 12 min 09 sec)
[ERROR_CYCLE] Error added at CPU cycle 2091787245, interval 45, pending count: 1
[DRAM_CYCLE_ERROR] Cycle-based error applied! address=0xc7fe5a2c0 additional_latency=2459910500 cycles
Heartbeat CPU 0 instructions: 220000032 cycles: 2104768688 heartbeat IPC: 0.6314 cumulative IPC: 0.1045 (Simulation time: 03 hr 14 min 09 sec)
Heartbeat CPU 0 instructions: 230000035 cycles: 2110739312 heartbeat IPC: 1.675 cumulative IPC: 0.109 (Simulation time: 03 hr 14 min 58 sec)
Heartbeat CPU 0 instructions: 240000036 cycles: 2116693945 heartbeat IPC: 1.679 cumulative IPC: 0.1134 (Simulation time: 03 hr 15 min 48 sec)
[ERROR_CYCLE] Error added at CPU cycle 2138271406, interval 46, pending count: 1
[DRAM_CYCLE_ERROR] Cycle-based error applied! address=0xbb9658a60 additional_latency=2459910500 cycles
Simulation CPU 0 panic: IPC 0 < 0.01
Heartbeat CPU 0 instructions: 250000039 cycles: 2150737368 heartbeat IPC: 0.2937 cumulative IPC: 0.1162 (Simulation time: 03 hr 19 min 10 sec)
Heartbeat CPU 0 instructions: 260000043 cycles: 2175313637 heartbeat IPC: 0.4069 cumulative IPC: 0.1195 (Simulation time: 03 hr 21 min 45 sec)
[ERROR_CYCLE] Error added at CPU cycle 2184755567, interval 47, pending count: 1
[DRAM_CYCLE_ERROR] Cycle-based error applied! address=0xdd2400000 additional_latency=2459910500 cycles
Simulation CPU 0 panic: IPC 0 < 0.01
Heartbeat CPU 0 instructions: 270000044 cycles: 2200380471 heartbeat IPC: 0.3989 cumulative IPC: 0.1227 (Simulation time: 03 hr 24 min 34 sec)
Heartbeat CPU 0 instructions: 280000046 cycles: 2215383994 heartbeat IPC: 0.6665 cumulative IPC: 0.1264 (Simulation time: 03 hr 26 min 06 sec)
Simulation CPU 0 warning: IPC 0.023305 < 0.05
[ERROR_CYCLE] Error added at CPU cycle 2231239728, interval 48, pending count: 1
[DRAM_CYCLE_ERROR] Cycle-based error applied! address=0x537cc17a0 additional_latency=2459910500 cycles
Simulation CPU 0 panic: IPC 0 < 0.01
Simulation CPU 0 panic: IPC 0.004895 < 0.01
Heartbeat CPU 0 instructions: 290000050 cycles: 2276997004 heartbeat IPC: 0.1623 cumulative IPC: 0.1274 (Simulation time: 03 hr 31 min 50 sec)
[ERROR_CYCLE] Error added at CPU cycle 2277723889, interval 49, pending count: 1
[DRAM_CYCLE_ERROR] Cycle-based error applied! address=0x537cc51e0 additional_latency=2459910500 cycles
Simulation CPU 0 panic: IPC 0 < 0.01
Heartbeat CPU 0 instructions: 300000050 cycles: 2301635398 heartbeat IPC: 0.4059 cumulative IPC: 0.1303 (Simulation time: 03 hr 34 min 06 sec)
Heartbeat CPU 0 instructions: 310000051 cycles: 2306721696 heartbeat IPC: 1.966 cumulative IPC: 0.1344 (Simulation time: 03 hr 34 min 51 sec)
Heartbeat CPU 0 instructions: 320000051 cycles: 2310989715 heartbeat IPC: 2.343 cumulative IPC: 0.1385 (Simulation time: 03 hr 35 min 29 sec)
Heartbeat CPU 0 instructions: 330000055 cycles: 2316430972 heartbeat IPC: 1.838 cumulative IPC: 0.1425 (Simulation time: 03 hr 36 min 05 sec)
[ERROR_CYCLE] Error added at CPU cycle 2324208050, interval 50, pending count: 1
[DRAM_CYCLE_ERROR] Cycle-based error applied! address=0xe22900190 additional_latency=2459910500 cycles
Simulation CPU 0 critical: IPC 0.0124 < 0.02
Heartbeat CPU 0 instructions: 340000056 cycles: 2339540854 heartbeat IPC: 0.4327 cumulative IPC: 0.1453 (Simulation time: 03 hr 38 min 09 sec)
Heartbeat CPU 0 instructions: 350000056 cycles: 2344331335 heartbeat IPC: 2.087 cumulative IPC: 0.1493 (Simulation time: 03 hr 38 min 49 sec)
Heartbeat CPU 0 instructions: 360000058 cycles: 2359655855 heartbeat IPC: 0.6525 cumulative IPC: 0.1526 (Simulation time: 03 hr 40 min 29 sec)
Heartbeat CPU 0 instructions: 370000059 cycles: 2365814604 heartbeat IPC: 1.624 cumulative IPC: 0.1564 (Simulation time: 03 hr 41 min 16 sec)
[ERROR_CYCLE] Error added at CPU cycle 2370692212, interval 51, pending count: 1
[DRAM_CYCLE_ERROR] Cycle-based error applied! address=0x4440e2c00 additional_latency=2459910500 cycles
Heartbeat CPU 0 instructions: 380000059 cycles: 2381819443 heartbeat IPC: 0.6248 cumulative IPC: 0.1595 (Simulation time: 03 hr 42 min 45 sec)
Heartbeat CPU 0 instructions: 390000059 cycles: 2388003829 heartbeat IPC: 1.617 cumulative IPC: 0.1633 (Simulation time: 03 hr 43 min 35 sec)
Heartbeat CPU 0 instructions: 400000059 cycles: 2394160870 heartbeat IPC: 1.624 cumulative IPC: 0.1671 (Simulation time: 03 hr 44 min 29 sec)
Heartbeat CPU 0 instructions: 410000063 cycles: 2409542920 heartbeat IPC: 0.6501 cumulative IPC: 0.1702 (Simulation time: 03 hr 46 min 15 sec)
[ERROR_CYCLE] Error added at CPU cycle 2417176373, interval 52, pending count: 1
[DRAM_CYCLE_ERROR] Cycle-based error applied! address=0x537cca188 additional_latency=2459910500 cycles
Simulation CPU 0 panic: IPC 0 < 0.01
Heartbeat CPU 0 instructions: 420000063 cycles: 2434675000 heartbeat IPC: 0.3979 cumulative IPC: 0.1725 (Simulation time: 03 hr 48 min 54 sec)
Heartbeat CPU 0 instructions: 430000065 cycles: 2440571384 heartbeat IPC: 1.696 cumulative IPC: 0.1762 (Simulation time: 03 hr 49 min 46 sec)
[ERROR_CYCLE] Error added at CPU cycle 2463660534, interval 53, pending count: 1
[DRAM_CYCLE_ERROR] Cycle-based error applied! address=0x537ccd930 additional_latency=2459910500 cycles
Simulation CPU 0 panic: IPC 0.0002104 < 0.01
Simulation CPU 0 panic: IPC 0 < 0.01
Simulation CPU 0 panic: IPC 0.0001003 < 0.01
Simulation CPU 0 panic: IPC 0.006545 < 0.01
[ERROR_CYCLE] Error added at CPU cycle 2510144695, interval 54, pending count: 1
[DRAM_CYCLE_ERROR] Cycle-based error applied! address=0xf72736460 additional_latency=2459910500 cycles
Simulation CPU 0 panic: IPC 0.0004001 < 0.01
Heartbeat CPU 0 instructions: 440000065 cycles: 2520997847 heartbeat IPC: 0.1243 cumulative IPC: 0.1745 (Simulation time: 03 hr 57 min 39 sec)
Heartbeat CPU 0 instructions: 450000066 cycles: 2537136557 heartbeat IPC: 0.6196 cumulative IPC: 0.1774 (Simulation time: 03 hr 59 min 29 sec)
Heartbeat CPU 0 instructions: 460000069 cycles: 2542425570 heartbeat IPC: 1.891 cumulative IPC: 0.1809 (Simulation time: 04 hr 00 min 17 sec)
[ERROR_CYCLE] Error added at CPU cycle 2556628855, interval 55, pending count: 1
[DRAM_CYCLE_ERROR] Cycle-based error applied! address=0x537cd34c8 additional_latency=2459910500 cycles
Simulation CPU 0 panic: IPC 0 < 0.01
Simulation CPU 0 panic: IPC 0.0081597 < 0.01
Heartbeat CPU 0 instructions: 470000072 cycles: 2595081660 heartbeat IPC: 0.1899 cumulative IPC: 0.1811 (Simulation time: 04 hr 05 min 05 sec)
[ERROR_CYCLE] Error added at CPU cycle 2603113016, interval 56, pending count: 1
[DRAM_CYCLE_ERROR] Cycle-based error applied! address=0xd8a400000 additional_latency=2459910500 cycles
Heartbeat CPU 0 instructions: 480000072 cycles: 2618968518 heartbeat IPC: 0.4186 cumulative IPC: 0.1833 (Simulation time: 04 hr 07 min 34 sec)
Heartbeat CPU 0 instructions: 490000072 cycles: 2623736436 heartbeat IPC: 2.097 cumulative IPC: 0.1868 (Simulation time: 04 hr 08 min 09 sec)
Simulation CPU 0 critical: IPC 0.012516 < 0.02
Heartbeat CPU 0 instructions: 500000075 cycles: 2646854715 heartbeat IPC: 0.4326 cumulative IPC: 0.1889 (Simulation time: 04 hr 10 min 17 sec)
[ERROR_CYCLE] Error added at CPU cycle 2649597177, interval 57, pending count: 1
[DRAM_CYCLE_ERROR] Cycle-based error applied! address=0x54eb007c0 additional_latency=2459910500 cycles
Heartbeat CPU 0 instructions: 510000076 cycles: 2651481178 heartbeat IPC: 2.161 cumulative IPC: 0.1923 (Simulation time: 04 hr 10 min 57 sec)
Simulation CPU 0 critical: IPC 0.0124 < 0.02
Heartbeat CPU 0 instructions: 520000078 cycles: 2675417020 heartbeat IPC: 0.4178 cumulative IPC: 0.1944 (Simulation time: 04 hr 13 min 35 sec)
Heartbeat CPU 0 instructions: 530000079 cycles: 2679809475 heartbeat IPC: 2.277 cumulative IPC: 0.1978 (Simulation time: 04 hr 14 min 08 sec)
Heartbeat CPU 0 instructions: 540000079 cycles: 2694879512 heartbeat IPC: 0.6636 cumulative IPC: 0.2004 (Simulation time: 04 hr 15 min 45 sec)
[ERROR_CYCLE] Error added at CPU cycle 2696081338, interval 58, pending count: 1
[DRAM_CYCLE_ERROR] Cycle-based error applied! address=0xa6a109fc0 additional_latency=2459910500 cycles
Heartbeat CPU 0 instructions: 550000079 cycles: 2710735393 heartbeat IPC: 0.6307 cumulative IPC: 0.2029 (Simulation time: 04 hr 17 min 32 sec)
Heartbeat CPU 0 instructions: 560000081 cycles: 2726039714 heartbeat IPC: 0.6534 cumulative IPC: 0.2054 (Simulation time: 04 hr 18 min 58 sec)
Heartbeat CPU 0 instructions: 570000084 cycles: 2732111737 heartbeat IPC: 1.647 cumulative IPC: 0.2086 (Simulation time: 04 hr 19 min 35 sec)
[ERROR_CYCLE] Error added at CPU cycle 2742565499, interval 59, pending count: 1
[DRAM_CYCLE_ERROR] Cycle-based error applied! address=0x6d4393900 additional_latency=2459910500 cycles
Simulation CPU 0 warning: IPC 0.025489 < 0.05
Heartbeat CPU 0 instructions: 580000084 cycles: 2757248055 heartbeat IPC: 0.3978 cumulative IPC: 0.2104 (Simulation time: 04 hr 22 min 25 sec)
Heartbeat CPU 0 instructions: 590000084 cycles: 2772528877 heartbeat IPC: 0.6544 cumulative IPC: 0.2128 (Simulation time: 04 hr 24 min 07 sec)
Heartbeat CPU 0 instructions: 600000087 cycles: 2778522842 heartbeat IPC: 1.668 cumulative IPC: 0.2159 (Simulation time: 04 hr 24 min 46 sec)
Heartbeat CPU 0 instructions: 610000090 cycles: 2784577697 heartbeat IPC: 1.652 cumulative IPC: 0.2191 (Simulation time: 04 hr 25 min 32 sec)
[ERROR_CYCLE] Error added at CPU cycle 2789049660, interval 60, pending count: 1
[DRAM_CYCLE_ERROR] Cycle-based error applied! address=0x537ce0a80 additional_latency=2459910500 cycles
Simulation CPU 0 panic: IPC 0 < 0.01
Heartbeat CPU 0 instructions: 620000094 cycles: 2808398925 heartbeat IPC: 0.4198 cumulative IPC: 0.2208 (Simulation time: 04 hr 27 min 43 sec)
Heartbeat CPU 0 instructions: 630000096 cycles: 2834654741 heartbeat IPC: 0.3809 cumulative IPC: 0.2222 (Simulation time: 04 hr 30 min 11 sec)
[ERROR_CYCLE] Error added at CPU cycle 2835533821, interval 61, pending count: 1
[DRAM_CYCLE_ERROR] Cycle-based error applied! address=0x9da1c1860 additional_latency=2459910500 cycles
Heartbeat CPU 0 instructions: 640000096 cycles: 2850335696 heartbeat IPC: 0.6377 cumulative IPC: 0.2245 (Simulation time: 04 hr 31 min 28 sec)
Heartbeat CPU 0 instructions: 650000097 cycles: 2865315155 heartbeat IPC: 0.6676 cumulative IPC: 0.2269 (Simulation time: 04 hr 33 min 10 sec)
[ERROR_CYCLE] Error added at CPU cycle 2882017983, interval 62, pending count: 1
[DRAM_CYCLE_ERROR] Cycle-based error applied! address=0x537ce5760 additional_latency=2459910500 cycles
Simulation CPU 0 panic: IPC 0 < 0.01
Heartbeat CPU 0 instructions: 660000097 cycles: 2899256503 heartbeat IPC: 0.2946 cumulative IPC: 0.2276 (Simulation time: 04 hr 36 min 39 sec)
Heartbeat CPU 0 instructions: 670000097 cycles: 2913076294 heartbeat IPC: 0.7236 cumulative IPC: 0.23 (Simulation time: 04 hr 38 min 09 sec)
[ERROR_CYCLE] Error added at CPU cycle 2928502144, interval 63, pending count: 1
[DRAM_CYCLE_ERROR] Cycle-based error applied! address=0x537ce8ce0 additional_latency=2459910500 cycles
Simulation CPU 0 warning: IPC 0.024074 < 0.05
Simulation CPU 0 panic: IPC 0 < 0.01
Simulation CPU 0 warning: IPC 0.044044 < 0.05
Simulation CPU 0 critical: IPC 0.012575 < 0.02
Heartbeat CPU 0 instructions: 680000098 cycles: 2974470550 heartbeat IPC: 0.1629 cumulative IPC: 0.2286 (Simulation time: 04 hr 43 min 59 sec)
[ERROR_CYCLE] Error added at CPU cycle 2974986305, interval 64, pending count: 1
[DRAM_CYCLE_ERROR] Cycle-based error applied! address=0x8962ec980 additional_latency=2459910500 cycles
Heartbeat CPU 0 instructions: 690000101 cycles: 2987892847 heartbeat IPC: 0.745 cumulative IPC: 0.2309 (Simulation time: 04 hr 45 min 38 sec)
Heartbeat CPU 0 instructions: 700000105 cycles: 2994167311 heartbeat IPC: 1.594 cumulative IPC: 0.2338 (Simulation time: 04 hr 46 min 28 sec)
Heartbeat CPU 0 instructions: 710000108 cycles: 3008132197 heartbeat IPC: 0.7161 cumulative IPC: 0.236 (Simulation time: 04 hr 48 min 07 sec)
[ERROR_CYCLE] Error added at CPU cycle 3021470466, interval 65, pending count: 1
[DRAM_CYCLE_ERROR] Cycle-based error applied! address=0x49553ed00 additional_latency=2459910500 cycles
Heartbeat CPU 0 instructions: 720000109 cycles: 3032512238 heartbeat IPC: 0.4102 cumulative IPC: 0.2374 (Simulation time: 04 hr 50 min 22 sec)
Heartbeat CPU 0 instructions: 730000109 cycles: 3048117768 heartbeat IPC: 0.6408 cumulative IPC: 0.2395 (Simulation time: 04 hr 51 min 55 sec)
Heartbeat CPU 0 instructions: 740000109 cycles: 3054136947 heartbeat IPC: 1.661 cumulative IPC: 0.2423 (Simulation time: 04 hr 52 min 50 sec)
Heartbeat CPU 0 instructions: 750000112 cycles: 3060208930 heartbeat IPC: 1.647 cumulative IPC: 0.2451 (Simulation time: 04 hr 53 min 45 sec)
[ERROR_CYCLE] Error added at CPU cycle 3067954626, interval 66, pending count: 1
[DRAM_CYCLE_ERROR] Cycle-based error applied! address=0x6ce00000 additional_latency=2459910500 cycles
Heartbeat CPU 0 instructions: 760000113 cycles: 3085339835 heartbeat IPC: 0.3979 cumulative IPC: 0.2463 (Simulation time: 04 hr 56 min 29 sec)
Heartbeat CPU 0 instructions: 770000113 cycles: 3099898236 heartbeat IPC: 0.6869 cumulative IPC: 0.2484 (Simulation time: 04 hr 58 min 07 sec)
[ERROR_CYCLE] Error added at CPU cycle 3114438787, interval 67, pending count: 1
[DRAM_CYCLE_ERROR] Cycle-based error applied! address=0x97fbcca80 additional_latency=2459910500 cycles
Heartbeat CPU 0 instructions: 780000113 cycles: 3125137833 heartbeat IPC: 0.3962 cumulative IPC: 0.2496 (Simulation time: 05 hr 00 min 42 sec)
Heartbeat CPU 0 instructions: 790000117 cycles: 3140519114 heartbeat IPC: 0.6501 cumulative IPC: 0.2516 (Simulation time: 05 hr 02 min 20 sec)
Heartbeat CPU 0 instructions: 800000117 cycles: 3145814028 heartbeat IPC: 1.889 cumulative IPC: 0.2543 (Simulation time: 05 hr 03 min 00 sec)
[ERROR_CYCLE] Error added at CPU cycle 3160922948, interval 68, pending count: 1
[DRAM_CYCLE_ERROR] Cycle-based error applied! address=0x537cf4938 additional_latency=2459910500 cycles
Simulation CPU 0 panic: IPC 0 < 0.01
Heartbeat CPU 0 instructions: 810000118 cycles: 3199612392 heartbeat IPC: 0.1859 cumulative IPC: 0.2532 (Simulation time: 05 hr 08 min 31 sec)
Heartbeat CPU 0 instructions: 820000118 cycles: 3205516627 heartbeat IPC: 1.694 cumulative IPC: 0.2558 (Simulation time: 05 hr 09 min 21 sec)
[ERROR_CYCLE] Error added at CPU cycle 3207407109, interval 69, pending count: 1
[DRAM_CYCLE_ERROR] Cycle-based error applied! address=0xc30875100 additional_latency=2459910500 cycles
Heartbeat CPU 0 instructions: 830000119 cycles: 3230128656 heartbeat IPC: 0.4063 cumulative IPC: 0.257 (Simulation time: 05 hr 11 min 49 sec)
Simulation CPU 0 warning: IPC 0.039497 < 0.05
[ERROR_CYCLE] Error added at CPU cycle 3253891270, interval 70, pending count: 1
[DRAM_CYCLE_ERROR] Cycle-based error applied! address=0x537cfb130 additional_latency=2459910500 cycles
Heartbeat CPU 0 instructions: 840000120 cycles: 3291284994 heartbeat IPC: 0.1635 cumulative IPC: 0.2552 (Simulation time: 05 hr 17 min 46 sec)
[ERROR_CYCLE] Error added at CPU cycle 3300375431, interval 71, pending count: 1
[DRAM_CYCLE_ERROR] Cycle-based error applied! address=0x7d7200000 additional_latency=2459910500 cycles
Heartbeat CPU 0 instructions: 850000121 cycles: 3305801221 heartbeat IPC: 0.6889 cumulative IPC: 0.2571 (Simulation time: 05 hr 19 min 09 sec)
Heartbeat CPU 0 instructions: 860000122 cycles: 3310992668 heartbeat IPC: 1.926 cumulative IPC: 0.2597 (Simulation time: 05 hr 19 min 50 sec)
Simulation CPU 0 critical: IPC 0.012519 < 0.02
Heartbeat CPU 0 instructions: 870000123 cycles: 3333652331 heartbeat IPC: 0.4413 cumulative IPC: 0.261 (Simulation time: 05 hr 22 min 03 sec)
Heartbeat CPU 0 instructions: 880000126 cycles: 3339684536 heartbeat IPC: 1.658 cumulative IPC: 0.2635 (Simulation time: 05 hr 22 min 53 sec)
[ERROR_CYCLE] Error added at CPU cycle 3346859592, interval 72, pending count: 1
[DRAM_CYCLE_ERROR] Cycle-based error applied! address=0xd0a01a18 additional_latency=2459910500 cycles
Simulation CPU 0 panic: IPC 0 < 0.01
Heartbeat CPU 0 instructions: 890000126 cycles: 3363708107 heartbeat IPC: 0.4163 cumulative IPC: 0.2646 (Simulation time: 05 hr 25 min 36 sec)
Heartbeat CPU 0 instructions: 900000130 cycles: 3368487751 heartbeat IPC: 2.092 cumulative IPC: 0.2672 (Simulation time: 05 hr 26 min 18 sec)
Heartbeat CPU 0 instructions: 910000130 cycles: 3383765577 heartbeat IPC: 0.6545 cumulative IPC: 0.2689 (Simulation time: 05 hr 28 min 07 sec)
Heartbeat CPU 0 instructions: 920000132 cycles: 3389769863 heartbeat IPC: 1.665 cumulative IPC: 0.2714 (Simulation time: 05 hr 29 min 03 sec)
[ERROR_CYCLE] Error added at CPU cycle 3393343754, interval 73, pending count: 1
[DRAM_CYCLE_ERROR] Cycle-based error applied! address=0x6ce27680 additional_latency=2459910500 cycles
Heartbeat CPU 0 instructions: 930000133 cycles: 3405049292 heartbeat IPC: 0.6545 cumulative IPC: 0.2731 (Simulation time: 05 hr 30 min 50 sec)
Heartbeat CPU 0 instructions: 940000134 cycles: 3411050819 heartbeat IPC: 1.666 cumulative IPC: 0.2756 (Simulation time: 05 hr 31 min 46 sec)
Heartbeat CPU 0 instructions: 950000138 cycles: 3426259698 heartbeat IPC: 0.6575 cumulative IPC: 0.2773 (Simulation time: 05 hr 33 min 11 sec)
Heartbeat CPU 0 instructions: 960000139 cycles: 3432220594 heartbeat IPC: 1.678 cumulative IPC: 0.2797 (Simulation time: 05 hr 33 min 52 sec)
Heartbeat CPU 0 instructions: 970000142 cycles: 3438323893 heartbeat IPC: 1.638 cumulative IPC: 0.2821 (Simulation time: 05 hr 34 min 32 sec)
[ERROR_CYCLE] Error added at CPU cycle 3439827915, interval 74, pending count: 1
[DRAM_CYCLE_ERROR] Cycle-based error applied! address=0x3343c7780 additional_latency=2459910500 cycles
Simulation CPU 0 warning: IPC 0.045116 < 0.05
Heartbeat CPU 0 instructions: 980000143 cycles: 3463517489 heartbeat IPC: 0.3969 cumulative IPC: 0.2829 (Simulation time: 05 hr 37 min 08 sec)
[ERROR_CYCLE] Error added at CPU cycle 3486312076, interval 75, pending count: 1
[DRAM_CYCLE_ERROR] Cycle-based error applied! address=0x4cd200000 additional_latency=2459910500 cycles
Simulation CPU 0 panic: IPC 0 < 0.01
Heartbeat CPU 0 instructions: 990000143 cycles: 3496959328 heartbeat IPC: 0.299 cumulative IPC: 0.2831 (Simulation time: 05 hr 40 min 53 sec)
Heartbeat CPU 0 instructions: 1000000143 cycles: 3504158057 heartbeat IPC: 1.389 cumulative IPC: 0.2854 (Simulation time: 05 hr 41 min 49 sec)
Heartbeat CPU 0 instructions: 1010000143 cycles: 3509652848 heartbeat IPC: 1.82 cumulative IPC: 0.2878 (Simulation time: 05 hr 42 min 39 sec)
Heartbeat CPU 0 instructions: 1020000143 cycles: 3524694168 heartbeat IPC: 0.6648 cumulative IPC: 0.2894 (Simulation time: 05 hr 44 min 37 sec)
[ERROR_CYCLE] Error added at CPU cycle 3532796237, interval 76, pending count: 1
[DRAM_CYCLE_ERROR] Cycle-based error applied! address=0xd7c400008 additional_latency=2459910500 cycles
Simulation CPU 0 panic: IPC 0 < 0.01
[ERROR_CYCLE] Error added at CPU cycle 3579280397, interval 77, pending count: 1
[DRAM_CYCLE_ERROR] Cycle-based error applied! address=0xd0a0db78 additional_latency=2459910500 cycles
Simulation CPU 0 panic: IPC 0 < 0.01
Heartbeat CPU 0 instructions: 1030000147 cycles: 3596028761 heartbeat IPC: 0.1402 cumulative IPC: 0.2864 (Simulation time: 05 hr 51 min 19 sec)
Heartbeat CPU 0 instructions: 1040000147 cycles: 3610174413 heartbeat IPC: 0.7069 cumulative IPC: 0.2881 (Simulation time: 05 hr 52 min 47 sec)
[ERROR_CYCLE] Error added at CPU cycle 3625764558, interval 78, pending count: 1
[DRAM_CYCLE_ERROR] Cycle-based error applied! address=0x802500000 additional_latency=2459910500 cycles
Heartbeat CPU 0 instructions: 1050000147 cycles: 3661255998 heartbeat IPC: 0.1958 cumulative IPC: 0.2868 (Simulation time: 05 hr 57 min 02 sec)
Heartbeat CPU 0 instructions: 1060000151 cycles: 3665811373 heartbeat IPC: 2.195 cumulative IPC: 0.2892 (Simulation time: 05 hr 57 min 41 sec)
[ERROR_CYCLE] Error added at CPU cycle 3672248719, interval 79, pending count: 1
[DRAM_CYCLE_ERROR] Cycle-based error applied! address=0xd0a14a20 additional_latency=2459910500 cycles
Simulation CPU 0 panic: IPC 0 < 0.01
Simulation CPU 0 warning: IPC 0.044529 < 0.05
Heartbeat CPU 0 instructions: 1070000151 cycles: 3700371907 heartbeat IPC: 0.2893 cumulative IPC: 0.2892 (Simulation time: 06 hr 01 min 04 sec)
Heartbeat CPU 0 instructions: 1080000154 cycles: 3704758106 heartbeat IPC: 2.28 cumulative IPC: 0.2915 (Simulation time: 06 hr 01 min 42 sec)
[ERROR_CYCLE] Error added at CPU cycle 3718732880, interval 80, pending count: 1
[DRAM_CYCLE_ERROR] Cycle-based error applied! address=0x28c7d9e00 additional_latency=2459910500 cycles
Heartbeat CPU 0 instructions: 1090000154 cycles: 3729474099 heartbeat IPC: 0.4046 cumulative IPC: 0.2923 (Simulation time: 06 hr 04 min 21 sec)
Heartbeat CPU 0 instructions: 1100000154 cycles: 3744862133 heartbeat IPC: 0.6499 cumulative IPC: 0.2937 (Simulation time: 06 hr 06 min 02 sec)
Heartbeat CPU 0 instructions: 1110000154 cycles: 3750868248 heartbeat IPC: 1.665 cumulative IPC: 0.2959 (Simulation time: 06 hr 06 min 41 sec)
Heartbeat CPU 0 instructions: 1120000154 cycles: 3756885292 heartbeat IPC: 1.662 cumulative IPC: 0.2981 (Simulation time: 06 hr 07 min 23 sec)
Heartbeat CPU 0 instructions: 1130000154 cycles: 3762929138 heartbeat IPC: 1.655 cumulative IPC: 0.3003 (Simulation time: 06 hr 08 min 04 sec)
[ERROR_CYCLE] Error added at CPU cycle 3765217041, interval 81, pending count: 1
[DRAM_CYCLE_ERROR] Cycle-based error applied! address=0xa71e35580 additional_latency=2459910500 cycles
Heartbeat CPU 0 instructions: 1140000154 cycles: 3778781317 heartbeat IPC: 0.6308 cumulative IPC: 0.3017 (Simulation time: 06 hr 09 min 58 sec)
Heartbeat CPU 0 instructions: 1150000156 cycles: 3794043962 heartbeat IPC: 0.6552 cumulative IPC: 0.3031 (Simulation time: 06 hr 11 min 38 sec)
Heartbeat CPU 0 instructions: 1160000158 cycles: 3800206126 heartbeat IPC: 1.623 cumulative IPC: 0.3052 (Simulation time: 06 hr 12 min 18 sec)
[ERROR_CYCLE] Error added at CPU cycle 3811701202, interval 82, pending count: 1
[DRAM_CYCLE_ERROR] Cycle-based error applied! address=0xbdfe3ec60 additional_latency=2459910500 cycles
Simulation CPU 0 panic: IPC 0 < 0.01
Heartbeat CPU 0 instructions: 1170000162 cycles: 3824231515 heartbeat IPC: 0.4162 cumulative IPC: 0.3059 (Simulation time: 06 hr 14 min 32 sec)
[ERROR_CYCLE] Error added at CPU cycle 3858185363, interval 83, pending count: 1
[DRAM_CYCLE_ERROR] Cycle-based error applied! address=0xd0a1e1d0 additional_latency=2459910500 cycles
Simulation CPU 0 panic: IPC 0 < 0.01
Heartbeat CPU 0 instructions: 1180000163 cycles: 3878471356 heartbeat IPC: 0.1844 cumulative IPC: 0.3042 (Simulation time: 06 hr 19 min 48 sec)
Heartbeat CPU 0 instructions: 1190000166 cycles: 3884432861 heartbeat IPC: 1.677 cumulative IPC: 0.3064 (Simulation time: 06 hr 20 min 39 sec)
[ERROR_CYCLE] Error added at CPU cycle 3904669525, interval 84, pending count: 1
[DRAM_CYCLE_ERROR] Cycle-based error applied! address=0xaa3200000 additional_latency=2459910500 cycles
Heartbeat CPU 0 instructions: 1200000166 cycles: 3917915312 heartbeat IPC: 0.2987 cumulative IPC: 0.3063 (Simulation time: 06 hr 23 min 53 sec)
Heartbeat CPU 0 instructions: 1210000170 cycles: 3950471794 heartbeat IPC: 0.3072 cumulative IPC: 0.3063 (Simulation time: 06 hr 27 min 15 sec)
[ERROR_CYCLE] Error added at CPU cycle 3951153686, interval 85, pending count: 1
[DRAM_CYCLE_ERROR] Cycle-based error applied! address=0xbc4879900 additional_latency=2459910500 cycles
Heartbeat CPU 0 instructions: 1220000171 cycles: 3965523482 heartbeat IPC: 0.6644 cumulative IPC: 0.3077 (Simulation time: 06 hr 28 min 53 sec)
Heartbeat CPU 0 instructions: 1230000175 cycles: 3971159707 heartbeat IPC: 1.774 cumulative IPC: 0.3097 (Simulation time: 06 hr 29 min 44 sec)
Heartbeat CPU 0 instructions: 1240000175 cycles: 3974443293 heartbeat IPC: 3.045 cumulative IPC: 0.312 (Simulation time: 06 hr 30 min 14 sec)
Heartbeat CPU 0 instructions: 1250000175 cycles: 3981080396 heartbeat IPC: 1.507 cumulative IPC: 0.314 (Simulation time: 06 hr 31 min 01 sec)
[ERROR_CYCLE] Error added at CPU cycle 3997637847, interval 86, pending count: 1
Simulation CPU 0 critical: IPC 0.012401 < 0.02
[DRAM_CYCLE_ERROR] Cycle-based error applied! address=0xa06100090 additional_latency=2459910500 cycles
Heartbeat CPU 0 instructions: 1260000176 cycles: 4004126230 heartbeat IPC: 0.4339 cumulative IPC: 0.3147 (Simulation time: 06 hr 32 min 59 sec)
Heartbeat CPU 0 instructions: 1270000176 cycles: 4018517564 heartbeat IPC: 0.6949 cumulative IPC: 0.316 (Simulation time: 06 hr 34 min 33 sec)
Heartbeat CPU 0 instructions: 1280000177 cycles: 4033955876 heartbeat IPC: 0.6477 cumulative IPC: 0.3173 (Simulation time: 06 hr 36 min 31 sec)
Heartbeat CPU 0 instructions: 1290000179 cycles: 4039976405 heartbeat IPC: 1.661 cumulative IPC: 0.3193 (Simulation time: 06 hr 37 min 15 sec)
[ERROR_CYCLE] Error added at CPU cycle 4044122008, interval 87, pending count: 1
[DRAM_CYCLE_ERROR] Cycle-based error applied! address=0xaa3207b00 additional_latency=2459910500 cycles
Heartbeat CPU 0 instructions: 1300000180 cycles: 4065090426 heartbeat IPC: 0.3982 cumulative IPC: 0.3198 (Simulation time: 06 hr 39 min 16 sec)
Heartbeat CPU 0 instructions: 1310000181 cycles: 4071089403 heartbeat IPC: 1.667 cumulative IPC: 0.3218 (Simulation time: 06 hr 40 min 06 sec)
Heartbeat CPU 0 instructions: 1320000181 cycles: 4077061861 heartbeat IPC: 1.674 cumulative IPC: 0.3238 (Simulation time: 06 hr 41 min 01 sec)
[ERROR_CYCLE] Error added at CPU cycle 4090606168, interval 88, pending count: 1
[DRAM_CYCLE_ERROR] Cycle-based error applied! address=0x753700000 additional_latency=2459910500 cycles
Simulation CPU 0 panic: IPC 0 < 0.01
Heartbeat CPU 0 instructions: 1330000181 cycles: 4102111143 heartbeat IPC: 0.3992 cumulative IPC: 0.3242 (Simulation time: 06 hr 43 min 45 sec)
Heartbeat CPU 0 instructions: 1340000181 cycles: 4108316541 heartbeat IPC: 1.612 cumulative IPC: 0.3262 (Simulation time: 06 hr 44 min 40 sec)
Heartbeat CPU 0 instructions: 1350000184 cycles: 4132609328 heartbeat IPC: 0.4116 cumulative IPC: 0.3267 (Simulation time: 06 hr 47 min 18 sec)
[ERROR_CYCLE] Error added at CPU cycle 4137090329, interval 89, pending count: 1
[DRAM_CYCLE_ERROR] Cycle-based error applied! address=0xd0a2d830 additional_latency=2459910500 cycles
Simulation CPU 0 panic: IPC 0 < 0.01
Simulation CPU 0 panic: IPC 0.0086739 < 0.01
Simulation CPU 0 panic: IPC 0.0063234 < 0.01
[ERROR_CYCLE] Error added at CPU cycle 4183574490, interval 90, pending count: 1
[DRAM_CYCLE_ERROR] Cycle-based error applied! address=0xa9a414140 additional_latency=2459910500 cycles
Simulation CPU 0 warning: IPC 0.038507 < 0.05
Heartbeat CPU 0 instructions: 1360000184 cycles: 4205100264 heartbeat IPC: 0.1379 cumulative IPC: 0.3234 (Simulation time: 06 hr 54 min 18 sec)
Heartbeat CPU 0 instructions: 1370000184 cycles: 4211011318 heartbeat IPC: 1.692 cumulative IPC: 0.3253 (Simulation time: 06 hr 55 min 02 sec)
Heartbeat CPU 0 instructions: 1380000186 cycles: 4225957739 heartbeat IPC: 0.6691 cumulative IPC: 0.3266 (Simulation time: 06 hr 56 min 27 sec)
[ERROR_CYCLE] Error added at CPU cycle 4230058651, interval 91, pending count: 1
[DRAM_CYCLE_ERROR] Cycle-based error applied! address=0xd0a334e0 additional_latency=2459910500 cycles
Simulation CPU 0 panic: IPC 0 < 0.01
Simulation CPU 0 panic: IPC 0.0081597 < 0.01
[ERROR_CYCLE] Error added at CPU cycle 4276542812, interval 92, pending count: 1
[DRAM_CYCLE_ERROR] Cycle-based error applied! address=0xa0c00000 additional_latency=2459910500 cycles
Heartbeat CPU 0 instructions: 1390000190 cycles: 4278082899 heartbeat IPC: 0.1918 cumulative IPC: 0.3249 (Simulation time: 07 hr 01 min 39 sec)
Heartbeat CPU 0 instructions: 1400000191 cycles: 4292679166 heartbeat IPC: 0.6851 cumulative IPC: 0.3261 (Simulation time: 07 hr 03 min 34 sec)
Heartbeat CPU 0 instructions: 1410000193 cycles: 4297971067 heartbeat IPC: 1.89 cumulative IPC: 0.3281 (Simulation time: 07 hr 04 min 20 sec)
Simulation CPU 0 critical: IPC 0.012532 < 0.02
Heartbeat CPU 0 instructions: 1420000193 cycles: 4320646651 heartbeat IPC: 0.441 cumulative IPC: 0.3287 (Simulation time: 07 hr 06 min 34 sec)
[ERROR_CYCLE] Error added at CPU cycle 4323026973, interval 93, pending count: 1
[DRAM_CYCLE_ERROR] Cycle-based error applied! address=0xab2b21bc0 additional_latency=2459910500 cycles
Heartbeat CPU 0 instructions: 1430000194 cycles: 4326734784 heartbeat IPC: 1.643 cumulative IPC: 0.3305 (Simulation time: 07 hr 07 min 22 sec)
Simulation CPU 0 critical: IPC 0.012398 < 0.02
Heartbeat CPU 0 instructions: 1440000195 cycles: 4350315482 heartbeat IPC: 0.4241 cumulative IPC: 0.331 (Simulation time: 07 hr 09 min 59 sec)
Heartbeat CPU 0 instructions: 1450000197 cycles: 4355121049 heartbeat IPC: 2.081 cumulative IPC: 0.3329 (Simulation time: 07 hr 10 min 40 sec)
[ERROR_CYCLE] Error added at CPU cycle 4369511134, interval 94, pending count: 1
[DRAM_CYCLE_ERROR] Cycle-based error applied! address=0x1fa0dbc00 additional_latency=2459910500 cycles
Heartbeat CPU 0 instructions: 1460000197 cycles: 4380344037 heartbeat IPC: 0.3965 cumulative IPC: 0.3333 (Simulation time: 07 hr 13 min 06 sec)
Heartbeat CPU 0 instructions: 1470000198 cycles: 4386444797 heartbeat IPC: 1.639 cumulative IPC: 0.3351 (Simulation time: 07 hr 14 min 01 sec)
Heartbeat CPU 0 instructions: 1480000200 cycles: 4401816029 heartbeat IPC: 0.6506 cumulative IPC: 0.3362 (Simulation time: 07 hr 15 min 52 sec)
Heartbeat CPU 0 instructions: 1490000200 cycles: 4407925660 heartbeat IPC: 1.637 cumulative IPC: 0.338 (Simulation time: 07 hr 16 min 46 sec)
[ERROR_CYCLE] Error added at CPU cycle 4415995296, interval 95, pending count: 1
[DRAM_CYCLE_ERROR] Cycle-based error applied! address=0xd0a3e550 additional_latency=2459910500 cycles
Simulation CPU 0 panic: IPC 0 < 0.01
Heartbeat CPU 0 instructions: 1500000204 cycles: 4433068308 heartbeat IPC: 0.3977 cumulative IPC: 0.3384 (Simulation time: 07 hr 19 min 26 sec)
Heartbeat CPU 0 instructions: 1510000208 cycles: 4439178255 heartbeat IPC: 1.637 cumulative IPC: 0.3402 (Simulation time: 07 hr 20 min 21 sec)
Heartbeat CPU 0 instructions: 1520000212 cycles: 4454638959 heartbeat IPC: 0.6468 cumulative IPC: 0.3412 (Simulation time: 07 hr 22 min 13 sec)
Heartbeat CPU 0 instructions: 1530000214 cycles: 4460836808 heartbeat IPC: 1.613 cumulative IPC: 0.343 (Simulation time: 07 hr 23 min 08 sec)
[ERROR_CYCLE] Error added at CPU cycle 4462479457, interval 96, pending count: 1
[DRAM_CYCLE_ERROR] Cycle-based error applied! address=0xd0a40ac8 additional_latency=2459910500 cycles
Simulation CPU 0 panic: IPC 0 < 0.01
Heartbeat CPU 0 instructions: 1540000214 cycles: 4485067548 heartbeat IPC: 0.4127 cumulative IPC: 0.3434 (Simulation time: 07 hr 25 min 49 sec)
Heartbeat CPU 0 instructions: 1550000214 cycles: 4501154404 heartbeat IPC: 0.6216 cumulative IPC: 0.3444 (Simulation time: 07 hr 27 min 24 sec)
Heartbeat CPU 0 instructions: 1560000216 cycles: 4506953950 heartbeat IPC: 1.724 cumulative IPC: 0.3461 (Simulation time: 07 hr 27 min 58 sec)
[ERROR_CYCLE] Error added at CPU cycle 4508963618, interval 97, pending count: 1
[DRAM_CYCLE_ERROR] Cycle-based error applied! address=0x41d7eb2c0 additional_latency=2459910500 cycles
Heartbeat CPU 0 instructions: 1570000220 cycles: 4531299152 heartbeat IPC: 0.4108 cumulative IPC: 0.3465 (Simulation time: 07 hr 29 min 53 sec)
Heartbeat CPU 0 instructions: 1580000222 cycles: 4555296738 heartbeat IPC: 0.4167 cumulative IPC: 0.3468 (Simulation time: 07 hr 32 min 21 sec)
[ERROR_CYCLE] Error added at CPU cycle 4555447779, interval 98, pending count: 1
[DRAM_CYCLE_ERROR] Cycle-based error applied! address=0xff1a08bc0 additional_latency=2459910500 cycles
Heartbeat CPU 0 instructions: 1590000223 cycles: 4579040556 heartbeat IPC: 0.4212 cumulative IPC: 0.3472 (Simulation time: 07 hr 34 min 48 sec)
[ERROR_CYCLE] Error added at CPU cycle 4601931939, interval 99, pending count: 1
[DRAM_CYCLE_ERROR] Cycle-based error applied! address=0xd0a49c38 additional_latency=2459910500 cycles
Simulation CPU 0 panic: IPC 0 < 0.01
Simulation CPU 0 critical: IPC 0.012525 < 0.02
Heartbeat CPU 0 instructions: 1600000227 cycles: 4640227822 heartbeat IPC: 0.1634 cumulative IPC: 0.3448 (Simulation time: 07 hr 40 min 17 sec)
Heartbeat CPU 0 instructions: 1610000228 cycles: 4644260060 heartbeat IPC: 2.48 cumulative IPC: 0.3467 (Simulation time: 07 hr 40 min 46 sec)
[ERROR_CYCLE] Error added at CPU cycle 4648416100, interval 100, pending count: 1
[DRAM_CYCLE_ERROR] Cycle-based error applied! address=0xd1c16bbd0 additional_latency=2459910500 cycles
Heartbeat CPU 0 instructions: 1620000230 cycles: 4660409859 heartbeat IPC: 0.6192 cumulative IPC: 0.3476 (Simulation time: 07 hr 41 min 58 sec)
Heartbeat CPU 0 instructions: 1630000232 cycles: 4674255284 heartbeat IPC: 0.7223 cumulative IPC: 0.3487 (Simulation time: 07 hr 43 min 22 sec)
Heartbeat CPU 0 instructions: 1640000234 cycles: 4679679004 heartbeat IPC: 1.844 cumulative IPC: 0.3505 (Simulation time: 07 hr 44 min 06 sec)
Heartbeat CPU 0 instructions: 1650000236 cycles: 4686056477 heartbeat IPC: 1.568 cumulative IPC: 0.3521 (Simulation time: 07 hr 45 min 03 sec)
Heartbeat CPU 0 instructions: 1660000238 cycles: 4692129349 heartbeat IPC: 1.647 cumulative IPC: 0.3538 (Simulation time: 07 hr 45 min 59 sec)
[ERROR_CYCLE] Error added at CPU cycle 4694900261, interval 101, pending count: 1
[DRAM_CYCLE_ERROR] Cycle-based error applied! address=0xb65956c80 additional_latency=2459910500 cycles
Heartbeat CPU 0 instructions: 1670000239 cycles: 4708040208 heartbeat IPC: 0.6285 cumulative IPC: 0.3547 (Simulation time: 07 hr 47 min 28 sec)
Heartbeat CPU 0 instructions: 1680000243 cycles: 4732600153 heartbeat IPC: 0.4072 cumulative IPC: 0.355 (Simulation time: 07 hr 49 min 21 sec)
Heartbeat CPU 0 instructions: 1690000246 cycles: 4738695879 heartbeat IPC: 1.64 cumulative IPC: 0.3566 (Simulation time: 07 hr 50 min 08 sec)
[ERROR_CYCLE] Error added at CPU cycle 4741384422, interval 102, pending count: 1
[DRAM_CYCLE_ERROR] Cycle-based error applied! address=0x3c138d880 additional_latency=2459910500 cycles
Heartbeat CPU 0 instructions: 1700000247 cycles: 4744780547 heartbeat IPC: 1.643 cumulative IPC: 0.3583 (Simulation time: 07 hr 50 min 54 sec)
Heartbeat CPU 0 instructions: 1710000249 cycles: 4751048032 heartbeat IPC: 1.596 cumulative IPC: 0.3599 (Simulation time: 07 hr 51 min 50 sec)
Heartbeat CPU 0 instructions: 1720000249 cycles: 4765440497 heartbeat IPC: 0.6948 cumulative IPC: 0.3609 (Simulation time: 07 hr 53 min 33 sec)
[ERROR_CYCLE] Error added at CPU cycle 4787868583, interval 103, pending count: 1
[DRAM_CYCLE_ERROR] Cycle-based error applied! address=0xd0a53178 additional_latency=2459910500 cycles
Simulation CPU 0 panic: IPC 0 < 0.01
Heartbeat CPU 0 instructions: 1730000252 cycles: 4810239318 heartbeat IPC: 0.2232 cumulative IPC: 0.3596 (Simulation time: 07 hr 57 min 58 sec)
Heartbeat CPU 0 instructions: 1740000254 cycles: 4816111911 heartbeat IPC: 1.703 cumulative IPC: 0.3613 (Simulation time: 07 hr 58 min 49 sec)
[ERROR_CYCLE] Error added at CPU cycle 4834352744, interval 104, pending count: 1
[DRAM_CYCLE_ERROR] Cycle-based error applied! address=0xd0a554e8 additional_latency=2459910500 cycles
Simulation CPU 0 panic: IPC 0.0087288 < 0.01
Heartbeat CPU 0 instructions: 1750000255 cycles: 4868831133 heartbeat IPC: 0.1897 cumulative IPC: 0.3594 (Simulation time: 08 hr 04 min 19 sec)
Simulation CPU 0 panic: IPC 0.0090653 < 0.01
[ERROR_CYCLE] Error added at CPU cycle 4880836905, interval 105, pending count: 1
[DRAM_CYCLE_ERROR] Cycle-based error applied! address=0xd0a59140 additional_latency=2459910500 cycles
Simulation CPU 0 panic: IPC 0 < 0.01
Heartbeat CPU 0 instructions: 1760000257 cycles: 4920751598 heartbeat IPC: 0.1926 cumulative IPC: 0.3577 (Simulation time: 08 hr 10 min 03 sec)
Heartbeat CPU 0 instructions: 1770000261 cycles: 4925806899 heartbeat IPC: 1.978 cumulative IPC: 0.3593 (Simulation time: 08 hr 10 min 47 sec)
[ERROR_CYCLE] Error added at CPU cycle 4927321067, interval 106, pending count: 1
[DRAM_CYCLE_ERROR] Cycle-based error applied! address=0xc9aa808c5 additional_latency=2459910500 cycles
Simulation CPU 0 warning: IPC 0.042959 < 0.05
Heartbeat CPU 0 instructions: 1780000264 cycles: 4959736352 heartbeat IPC: 0.2947 cumulative IPC: 0.3589 (Simulation time: 08 hr 14 min 05 sec)
Heartbeat CPU 0 instructions: 1790000266 cycles: 4962947540 heartbeat IPC: 3.114 cumulative IPC: 0.3607 (Simulation time: 08 hr 14 min 34 sec)
Heartbeat CPU 0 instructions: 1800000270 cycles: 4969809517 heartbeat IPC: 1.457 cumulative IPC: 0.3622 (Simulation time: 08 hr 15 min 16 sec)
[ERROR_CYCLE] Error added at CPU cycle 4973805228, interval 107, pending count: 1
[DRAM_CYCLE_ERROR] Cycle-based error applied! address=0xd0a5ea38 additional_latency=2459910500 cycles
Simulation CPU 0 panic: IPC 7.7e-06 < 0.01
Heartbeat CPU 0 instructions: 1810000271 cycles: 5002662469 heartbeat IPC: 0.3044 cumulative IPC: 0.3618 (Simulation time: 08 hr 18 min 28 sec)
Heartbeat CPU 0 instructions: 1820000274 cycles: 5008032188 heartbeat IPC: 1.862 cumulative IPC: 0.3634 (Simulation time: 08 hr 19 min 16 sec)
[ERROR_CYCLE] Error added at CPU cycle 5020289389, interval 108, pending count: 1
[DRAM_CYCLE_ERROR] Cycle-based error applied! address=0xa8f92e600 additional_latency=2459910500 cycles
Heartbeat CPU 0 instructions: 1830000274 cycles: 5023691650 heartbeat IPC: 0.6386 cumulative IPC: 0.3643 (Simulation time: 08 hr 21 min 01 sec)
Heartbeat CPU 0 instructions: 1840000275 cycles: 5029863273 heartbeat IPC: 1.62 cumulative IPC: 0.3658 (Simulation time: 08 hr 21 min 41 sec)
Heartbeat CPU 0 instructions: 1850000279 cycles: 5045233820 heartbeat IPC: 0.6506 cumulative IPC: 0.3667 (Simulation time: 08 hr 23 min 09 sec)
Heartbeat CPU 0 instructions: 1860000283 cycles: 5060631675 heartbeat IPC: 0.6494 cumulative IPC: 0.3675 (Simulation time: 08 hr 24 min 31 sec)
[ERROR_CYCLE] Error added at CPU cycle 5066773550, interval 109, pending count: 1
[DRAM_CYCLE_ERROR] Cycle-based error applied! address=0xe194b6900 additional_latency=2459910500 cycles
Heartbeat CPU 0 instructions: 1870000285 cycles: 5076674534 heartbeat IPC: 0.6233 cumulative IPC: 0.3684 (Simulation time: 08 hr 26 min 15 sec)
Heartbeat CPU 0 instructions: 1880000285 cycles: 5092132125 heartbeat IPC: 0.6469 cumulative IPC: 0.3692 (Simulation time: 08 hr 27 min 41 sec)
Heartbeat CPU 0 instructions: 1890000287 cycles: 5107692975 heartbeat IPC: 0.6426 cumulative IPC: 0.37 (Simulation time: 08 hr 28 min 59 sec)
[ERROR_CYCLE] Error added at CPU cycle 5113257710, interval 110, pending count: 1
[DRAM_CYCLE_ERROR] Cycle-based error applied! address=0xd0a65ae0 additional_latency=2459910500 cycles
Simulation CPU 0 panic: IPC 0 < 0.01
Heartbeat CPU 0 instructions: 1900000288 cycles: 5132407637 heartbeat IPC: 0.4046 cumulative IPC: 0.3702 (Simulation time: 08 hr 31 min 20 sec)
[ERROR_CYCLE] Error added at CPU cycle 5159741871, interval 111, pending count: 1
Simulation CPU 0 critical: IPC 0.016554 < 0.02
[DRAM_CYCLE_ERROR] Cycle-based error applied! address=0x268800000 additional_latency=2459910500 cycles
Simulation CPU 0 panic: IPC 0 < 0.01
Heartbeat CPU 0 instructions: 1910000292 cycles: 5176961331 heartbeat IPC: 0.2244 cumulative IPC: 0.3689 (Simulation time: 08 hr 35 min 42 sec)
Heartbeat CPU 0 instructions: 1920000295 cycles: 5182583981 heartbeat IPC: 1.779 cumulative IPC: 0.3705 (Simulation time: 08 hr 36 min 30 sec)
Heartbeat CPU 0 instructions: 1930000299 cycles: 5187782397 heartbeat IPC: 1.924 cumulative IPC: 0.372 (Simulation time: 08 hr 37 min 19 sec)
[ERROR_CYCLE] Error added at CPU cycle 5206226032, interval 112, pending count: 1
[DRAM_CYCLE_ERROR] Cycle-based error applied! address=0xd0a6a788 additional_latency=2459910500 cycles
Simulation CPU 0 panic: IPC 0 < 0.01
Heartbeat CPU 0 instructions: 1940000299 cycles: 5222238820 heartbeat IPC: 0.2902 cumulative IPC: 0.3715 (Simulation time: 08 hr 41 min 07 sec)
Heartbeat CPU 0 instructions: 1950000299 cycles: 5237245942 heartbeat IPC: 0.6664 cumulative IPC: 0.3723 (Simulation time: 08 hr 43 min 08 sec)
Heartbeat CPU 0 instructions: 1960000301 cycles: 5251397656 heartbeat IPC: 0.7066 cumulative IPC: 0.3732 (Simulation time: 08 hr 44 min 57 sec)
[ERROR_CYCLE] Error added at CPU cycle 5252710193, interval 113, pending count: 1
[DRAM_CYCLE_ERROR] Cycle-based error applied! address=0xd0a6ddb0 additional_latency=2459910500 cycles
Simulation CPU 0 panic: IPC 0 < 0.01
Simulation CPU 0 warning: IPC 0.021656 < 0.05
[ERROR_CYCLE] Error added at CPU cycle 5299194354, interval 114, pending count: 1
[DRAM_CYCLE_ERROR] Cycle-based error applied! address=0x8a1b00150 additional_latency=2459910500 cycles
Heartbeat CPU 0 instructions: 1970000302 cycles: 5302825979 heartbeat IPC: 0.1944 cumulative IPC: 0.3715 (Simulation time: 08 hr 50 min 04 sec)
Heartbeat CPU 0 instructions: 1980000303 cycles: 5307673057 heartbeat IPC: 2.063 cumulative IPC: 0.373 (Simulation time: 08 hr 50 min 44 sec)
Simulation CPU 0 critical: IPC 0.012394 < 0.02
Heartbeat CPU 0 instructions: 1990000303 cycles: 5332070841 heartbeat IPC: 0.4099 cumulative IPC: 0.3732 (Simulation time: 08 hr 53 min 27 sec)

=== ERROR PAGE STATISTICS ===
Mode: CYCLE
Error Cycle Interval: 46484161 CPU cycles
Total Error Accesses: 114
==============================
Simulation finished CPU 0 instructions: 1999999926 cycles: 5336603178 cumulative IPC: 0.3748 (Simulation time: 08 hr 54 min 06 sec)
Simulation complete CPU 0 instructions: 1999999926 cycles: 5336603178 cumulative IPC: 0.3748 (Simulation time: 08 hr 54 min 06 sec)

ChampSim completed all CPUs

=== Simulation ===
CPU 0 runs test_traces/628.pop2_s-17B.champsimtrace.xz

Region of Interest Statistics

CPU 0 cumulative IPC: 0.3748 instructions: 1999999926 cycles: 5336603178
CPU 0 Branch Prediction Accuracy: 97.16% MPKI: 4.393 Average ROB Occupancy at Mispredict: 77.21
Branch type MPKI
BRANCH_DIRECT_JUMP: 0.02883
BRANCH_INDIRECT: 0.0006925
BRANCH_CONDITIONAL: 4.321
BRANCH_DIRECT_CALL: 0.0002875
BRANCH_INDIRECT_CALL: 0
BRANCH_RETURN: 0.04196

cpu0->cpu0_STLB TOTAL        ACCESS:      58788 HIT:      58426 MISS:        362 MSHR_MERGE:          0
cpu0->cpu0_STLB LOAD         ACCESS:      58788 HIT:      58426 MISS:        362 MSHR_MERGE:          0
cpu0->cpu0_STLB RFO          ACCESS:          0 HIT:          0 MISS:          0 MSHR_MERGE:          0
cpu0->cpu0_STLB PREFETCH     ACCESS:          0 HIT:          0 MISS:          0 MSHR_MERGE:          0
cpu0->cpu0_STLB WRITE        ACCESS:          0 HIT:          0 MISS:          0 MSHR_MERGE:          0
cpu0->cpu0_STLB TRANSLATION  ACCESS:          0 HIT:          0 MISS:          0 MSHR_MERGE:          0
cpu0->cpu0_STLB PREFETCH REQUESTED:          0 ISSUED:          0 USEFUL:          0 USELESS:          0
cpu0->cpu0_STLB AVERAGE MISS LATENCY: 1.065e+07 cycles
cpu0->cpu0_L2C TOTAL        ACCESS:   43523321 HIT:   30817935 MISS:   12705386 MSHR_MERGE:          0
cpu0->cpu0_L2C LOAD         ACCESS:   20308541 HIT:   11673156 MISS:    8635385 MSHR_MERGE:          0
cpu0->cpu0_L2C RFO          ACCESS:    9924963 HIT:    5862146 MISS:    4062817 MSHR_MERGE:          0
cpu0->cpu0_L2C PREFETCH     ACCESS:          0 HIT:          0 MISS:          0 MSHR_MERGE:          0
cpu0->cpu0_L2C WRITE        ACCESS:   13289817 HIT:   13282633 MISS:       7184 MSHR_MERGE:          0
cpu0->cpu0_L2C TRANSLATION  ACCESS:          0 HIT:          0 MISS:          0 MSHR_MERGE:          0
cpu0->cpu0_L2C PREFETCH REQUESTED:          0 ISSUED:          0 USEFUL:          0 USELESS:          0
cpu0->cpu0_L2C AVERAGE MISS LATENCY: 119.9 cycles
cpu0->cpu0_L1I TOTAL        ACCESS:  103674135 HIT:  101725594 MISS:    1948541 MSHR_MERGE:     957994
cpu0->cpu0_L1I LOAD         ACCESS:  103674135 HIT:  101725594 MISS:    1948541 MSHR_MERGE:     957994
cpu0->cpu0_L1I RFO          ACCESS:          0 HIT:          0 MISS:          0 MSHR_MERGE:          0
cpu0->cpu0_L1I PREFETCH     ACCESS:          0 HIT:          0 MISS:          0 MSHR_MERGE:          0
cpu0->cpu0_L1I WRITE        ACCESS:          0 HIT:          0 MISS:          0 MSHR_MERGE:          0
cpu0->cpu0_L1I TRANSLATION  ACCESS:          0 HIT:          0 MISS:          0 MSHR_MERGE:          0
cpu0->cpu0_L1I PREFETCH REQUESTED:          0 ISSUED:          0 USEFUL:          0 USELESS:          0
cpu0->cpu0_L1I AVERAGE MISS LATENCY: 47.39 cycles
cpu0->cpu0_L1D TOTAL        ACCESS:  498247364 HIT:  423493890 MISS:   74753474 MSHR_MERGE:   45510202
cpu0->cpu0_L1D LOAD         ACCESS:  364084590 HIT:  324129240 MISS:   39955350 MSHR_MERGE:   20637223
cpu0->cpu0_L1D RFO          ACCESS:          0 HIT:          0 MISS:          0 MSHR_MERGE:          0
cpu0->cpu0_L1D PREFETCH     ACCESS:          0 HIT:          0 MISS:          0 MSHR_MERGE:          0
cpu0->cpu0_L1D WRITE        ACCESS:  134162774 HIT:   99364650 MISS:   34798124 MSHR_MERGE:   24872979
cpu0->cpu0_L1D TRANSLATION  ACCESS:          0 HIT:          0 MISS:          0 MSHR_MERGE:          0
cpu0->cpu0_L1D PREFETCH REQUESTED:          0 ISSUED:          0 USEFUL:          0 USELESS:          0
cpu0->cpu0_L1D AVERAGE MISS LATENCY: 59.31 cycles
cpu0->cpu0_ITLB TOTAL        ACCESS:   86617631 HIT:   86617622 MISS:          9 MSHR_MERGE:          3
cpu0->cpu0_ITLB LOAD         ACCESS:   86617631 HIT:   86617622 MISS:          9 MSHR_MERGE:          3
cpu0->cpu0_ITLB RFO          ACCESS:          0 HIT:          0 MISS:          0 MSHR_MERGE:          0
cpu0->cpu0_ITLB PREFETCH     ACCESS:          0 HIT:          0 MISS:          0 MSHR_MERGE:          0
cpu0->cpu0_ITLB WRITE        ACCESS:          0 HIT:          0 MISS:          0 MSHR_MERGE:          0
cpu0->cpu0_ITLB TRANSLATION  ACCESS:          0 HIT:          0 MISS:          0 MSHR_MERGE:          0
cpu0->cpu0_ITLB PREFETCH REQUESTED:          0 ISSUED:          0 USEFUL:          0 USELESS:          0
cpu0->cpu0_ITLB AVERAGE MISS LATENCY: 1.242e+07 cycles
cpu0->cpu0_DTLB TOTAL        ACCESS:  432894855 HIT:  432767979 MISS:     126876 MSHR_MERGE:      68094
cpu0->cpu0_DTLB LOAD         ACCESS:  432894855 HIT:  432767979 MISS:     126876 MSHR_MERGE:      68094
cpu0->cpu0_DTLB RFO          ACCESS:          0 HIT:          0 MISS:          0 MSHR_MERGE:          0
cpu0->cpu0_DTLB PREFETCH     ACCESS:          0 HIT:          0 MISS:          0 MSHR_MERGE:          0
cpu0->cpu0_DTLB WRITE        ACCESS:          0 HIT:          0 MISS:          0 MSHR_MERGE:          0
cpu0->cpu0_DTLB TRANSLATION  ACCESS:          0 HIT:          0 MISS:          0 MSHR_MERGE:          0
cpu0->cpu0_DTLB PREFETCH REQUESTED:          0 ISSUED:          0 USEFUL:          0 USELESS:          0
cpu0->cpu0_DTLB AVERAGE MISS LATENCY: 6.43e+04 cycles
cpu0->LLC TOTAL        ACCESS:   18541842 HIT:   11400300 MISS:    7141542 MSHR_MERGE:          0
cpu0->LLC LOAD         ACCESS:    8635385 HIT:    4231017 MISS:    4404368 MSHR_MERGE:          0
cpu0->LLC RFO          ACCESS:    4062817 HIT:    1383805 MISS:    2679012 MSHR_MERGE:          0
cpu0->LLC PREFETCH     ACCESS:          0 HIT:          0 MISS:          0 MSHR_MERGE:          0
cpu0->LLC WRITE        ACCESS:    5843640 HIT:    5785478 MISS:      58162 MSHR_MERGE:          0
cpu0->LLC TRANSLATION  ACCESS:          0 HIT:          0 MISS:          0 MSHR_MERGE:          0
cpu0->LLC PREFETCH REQUESTED:          0 ISSUED:          0 USEFUL:          0 USELESS:          0
cpu0->LLC AVERAGE MISS LATENCY: 185.8 cycles

DRAM Statistics

Channel 0 RQ ROW_BUFFER_HIT:     315042
  ROW_BUFFER_MISS:    3226505
  AVG DBUS CONGESTED CYCLE: 10.75
Channel 0 WQ ROW_BUFFER_HIT:     363709
  ROW_BUFFER_MISS:    1437136
  FULL:       1220
Channel 0 REFRESHES ISSUED:     444688

Channel 1 RQ ROW_BUFFER_HIT:     314210
  ROW_BUFFER_MISS:    3228277
  AVG DBUS CONGESTED CYCLE: 10.74
Channel 1 WQ ROW_BUFFER_HIT:     363649
  ROW_BUFFER_MISS:    1437113
  FULL:        950
Channel 1 REFRESHES ISSUED:     444688
