[VMEM] WARNING: physical memory size is smaller than virtual memory size.

*** ChampSim Multicore Out-of-Order Simulator ***
Warmup Instructions: 0
Simulation Instructions: 9223372036854775807
Number of CPUs: 1
Page size: 4096

Off-chip DRAM Size: 128 GiB Channels: 2 Width: 32-bit Data Rate: 4807 MT/s
[ERROR_PAGE_MANAGER] Error latency: 173500 
[ERROR_PAGE_MANAGER] Random seed: 54321 (fixed for preload reproducibility)
[ERROR_PAGE_MANAGER] Cycle-based error modeling enabled
[ERROR_PAGE_MANAGER] Errors per interval: 1
[ERROR_PAGE_MANAGER] Error cycle interval: 25763047 cycles

=== ERROR PAGE STATISTICS ===
Mode: CYCLE
Error Cycle Interval: 25763047 CPU cycles
Total Error Accesses: 0
==============================
Warmup finished CPU 0 instructions: 0 cycles: 1 cumulative IPC: 0 (Simulation time: 00 hr 00 min 01 sec)
Warmup complete CPU 0 instructions: 0 cycles: 1 cumulative IPC: 0 (Simulation time: 00 hr 00 min 01 sec)
Heartbeat CPU 0 instructions: 10000001 cycles: 17146838 heartbeat IPC: 0.5832 cumulative IPC: 0.5832 (Simulation time: 00 hr 01 min 55 sec)
[ERROR_CYCLE] Error added at CPU cycle 25763048, interval 1, pending count: 1
[DRAM_CYCLE_ERROR] Cycle-based error applied! address=0x64c75c700 additional_latency=173500 cycles
Heartbeat CPU 0 instructions: 20000002 cycles: 39564860 heartbeat IPC: 0.4461 cumulative IPC: 0.5055 (Simulation time: 00 hr 04 min 21 sec)
[ERROR_CYCLE] Error added at CPU cycle 51526094, interval 2, pending count: 1
[DRAM_CYCLE_ERROR] Cycle-based error applied! address=0xdcc57fb08 additional_latency=173500 cycles
Heartbeat CPU 0 instructions: 30000002 cycles: 65784200 heartbeat IPC: 0.3814 cumulative IPC: 0.456 (Simulation time: 00 hr 07 min 04 sec)
[ERROR_CYCLE] Error added at CPU cycle 77289142, interval 3, pending count: 1
[DRAM_CYCLE_ERROR] Cycle-based error applied! address=0x26f4f0828 additional_latency=173500 cycles
Heartbeat CPU 0 instructions: 40000005 cycles: 83533220 heartbeat IPC: 0.5634 cumulative IPC: 0.4789 (Simulation time: 00 hr 09 min 03 sec)
[ERROR_CYCLE] Error added at CPU cycle 103052188, interval 4, pending count: 1
[DRAM_CYCLE_ERROR] Cycle-based error applied! address=0x16304309e0 additional_latency=173500 cycles
[ERROR_CYCLE] Error added at CPU cycle 128815235, interval 5, pending count: 1
[DRAM_CYCLE_ERROR] Cycle-based error applied! address=0x13eedd73e0 additional_latency=173500 cycles
[ERROR_CYCLE] Error added at CPU cycle 154578283, interval 6, pending count: 1
[DRAM_CYCLE_ERROR] Cycle-based error applied! address=0xd8221a7c0 additional_latency=173500 cycles
Heartbeat CPU 0 instructions: 50000005 cycles: 164899626 heartbeat IPC: 0.1229 cumulative IPC: 0.3032 (Simulation time: 00 hr 15 min 42 sec)
[ERROR_CYCLE] Error added at CPU cycle 180341329, interval 7, pending count: 1
[DRAM_CYCLE_ERROR] Cycle-based error applied! address=0x9dafb6d88 additional_latency=173500 cycles
Heartbeat CPU 0 instructions: 60000005 cycles: 191263206 heartbeat IPC: 0.3793 cumulative IPC: 0.3137 (Simulation time: 00 hr 17 min 45 sec)
[ERROR_CYCLE] Error added at CPU cycle 206104376, interval 8, pending count: 1
[DRAM_CYCLE_ERROR] Cycle-based error applied! address=0x1fcd835c00 additional_latency=173500 cycles
Heartbeat CPU 0 instructions: 70000005 cycles: 225396890 heartbeat IPC: 0.293 cumulative IPC: 0.3106 (Simulation time: 00 hr 21 min 00 sec)
[ERROR_CYCLE] Error added at CPU cycle 231867424, interval 9, pending count: 1
[DRAM_CYCLE_ERROR] Cycle-based error applied! address=0x1e47a18258 additional_latency=173500 cycles
Heartbeat CPU 0 instructions: 80000007 cycles: 244342439 heartbeat IPC: 0.5278 cumulative IPC: 0.3274 (Simulation time: 00 hr 23 min 04 sec)
[ERROR_CYCLE] Error added at CPU cycle 257630470, interval 10, pending count: 1
[DRAM_CYCLE_ERROR] Cycle-based error applied! address=0x1c6e3cfe90 additional_latency=173500 cycles
Heartbeat CPU 0 instructions: 90000007 cycles: 261199482 heartbeat IPC: 0.5932 cumulative IPC: 0.3446 (Simulation time: 00 hr 24 min 53 sec)
Heartbeat CPU 0 instructions: 100000007 cycles: 277199717 heartbeat IPC: 0.625 cumulative IPC: 0.3608 (Simulation time: 00 hr 26 min 09 sec)
[ERROR_CYCLE] Error added at CPU cycle 283393517, interval 11, pending count: 1
[DRAM_CYCLE_ERROR] Cycle-based error applied! address=0x7b9c65c0 additional_latency=173500 cycles
[ERROR_CYCLE] Error added at CPU cycle 309156565, interval 12, pending count: 1
[DRAM_CYCLE_ERROR] Cycle-based error applied! address=0x77950a380 additional_latency=173500 cycles
Heartbeat CPU 0 instructions: 110000007 cycles: 315359023 heartbeat IPC: 0.2621 cumulative IPC: 0.3488 (Simulation time: 00 hr 30 min 00 sec)
[ERROR_CYCLE] Error added at CPU cycle 334919611, interval 13, pending count: 1
[DRAM_CYCLE_ERROR] Cycle-based error applied! address=0x13f2dc27b8 additional_latency=173500 cycles
Heartbeat CPU 0 instructions: 120000009 cycles: 342995925 heartbeat IPC: 0.3618 cumulative IPC: 0.3499 (Simulation time: 00 hr 32 min 29 sec)
[ERROR_CYCLE] Error added at CPU cycle 360682659, interval 14, pending count: 1
[DRAM_CYCLE_ERROR] Cycle-based error applied! address=0xa417cc840 additional_latency=173500 cycles
Heartbeat CPU 0 instructions: 130000009 cycles: 366599097 heartbeat IPC: 0.4237 cumulative IPC: 0.3546 (Simulation time: 00 hr 34 min 38 sec)
[ERROR_CYCLE] Error added at CPU cycle 386445705, interval 15, pending count: 1
[DRAM_CYCLE_ERROR] Cycle-based error applied! address=0xa44b22138 additional_latency=173500 cycles
Heartbeat CPU 0 instructions: 140000010 cycles: 399931924 heartbeat IPC: 0.3 cumulative IPC: 0.3501 (Simulation time: 00 hr 37 min 29 sec)
[ERROR_CYCLE] Error added at CPU cycle 412208752, interval 16, pending count: 1
[DRAM_CYCLE_ERROR] Cycle-based error applied! address=0xfd78edea8 additional_latency=173500 cycles
[ERROR_CYCLE] Error added at CPU cycle 437971800, interval 17, pending count: 1
[DRAM_CYCLE_ERROR] Cycle-based error applied! address=0x1e569767c8 additional_latency=173500 cycles
Heartbeat CPU 0 instructions: 150000010 cycles: 450735187 heartbeat IPC: 0.1968 cumulative IPC: 0.3328 (Simulation time: 00 hr 42 min 21 sec)
[ERROR_CYCLE] Error added at CPU cycle 463734846, interval 18, pending count: 1
[DRAM_CYCLE_ERROR] Cycle-based error applied! address=0x1aa3e7ae30 additional_latency=173500 cycles
Heartbeat CPU 0 instructions: 160000012 cycles: 467284758 heartbeat IPC: 0.6042 cumulative IPC: 0.3424 (Simulation time: 00 hr 43 min 52 sec)
Heartbeat CPU 0 instructions: 170000016 cycles: 477930506 heartbeat IPC: 0.9393 cumulative IPC: 0.3557 (Simulation time: 00 hr 45 min 03 sec)
[ERROR_CYCLE] Error added at CPU cycle 489497893, interval 19, pending count: 1
[DRAM_CYCLE_ERROR] Cycle-based error applied! address=0xf8d076c70 additional_latency=173500 cycles
[ERROR_CYCLE] Error added at CPU cycle 515260941, interval 20, pending count: 1
[DRAM_CYCLE_ERROR] Cycle-based error applied! address=0x720034630 additional_latency=173500 cycles
Heartbeat CPU 0 instructions: 180000016 cycles: 526744853 heartbeat IPC: 0.2049 cumulative IPC: 0.3417 (Simulation time: 00 hr 49 min 29 sec)
Heartbeat CPU 0 instructions: 190000016 cycles: 538122461 heartbeat IPC: 0.8789 cumulative IPC: 0.3531 (Simulation time: 00 hr 50 min 42 sec)
[ERROR_CYCLE] Error added at CPU cycle 541023987, interval 21, pending count: 1
[DRAM_CYCLE_ERROR] Cycle-based error applied! address=0x745e4a498 additional_latency=173500 cycles
Heartbeat CPU 0 instructions: 200000019 cycles: 556568954 heartbeat IPC: 0.5421 cumulative IPC: 0.3593 (Simulation time: 00 hr 52 min 00 sec)
[ERROR_CYCLE] Error added at CPU cycle 566787034, interval 22, pending count: 1
[DRAM_CYCLE_ERROR] Cycle-based error applied! address=0x118da6f560 additional_latency=173500 cycles
Heartbeat CPU 0 instructions: 210000021 cycles: 589292121 heartbeat IPC: 0.3056 cumulative IPC: 0.3564 (Simulation time: 00 hr 54 min 51 sec)
[ERROR_CYCLE] Error added at CPU cycle 592550082, interval 23, pending count: 1
[DRAM_CYCLE_ERROR] Cycle-based error applied! address=0x1abaf0ffb0 additional_latency=173500 cycles
[ERROR_CYCLE] Error added at CPU cycle 618313128, interval 24, pending count: 1
[DRAM_CYCLE_ERROR] Cycle-based error applied! address=0x1f0b3b918 additional_latency=173500 cycles
Heartbeat CPU 0 instructions: 220000024 cycles: 633289534 heartbeat IPC: 0.2273 cumulative IPC: 0.3474 (Simulation time: 00 hr 59 min 06 sec)
[ERROR_CYCLE] Error added at CPU cycle 644076176, interval 25, pending count: 1
[DRAM_CYCLE_ERROR] Cycle-based error applied! address=0x66b355828 additional_latency=173500 cycles
Heartbeat CPU 0 instructions: 230000024 cycles: 655141070 heartbeat IPC: 0.4576 cumulative IPC: 0.3511 (Simulation time: 01 hr 01 min 21 sec)
[ERROR_CYCLE] Error added at CPU cycle 669839223, interval 26, pending count: 1
[DRAM_CYCLE_ERROR] Cycle-based error applied! address=0x17d7b59ed0 additional_latency=173500 cycles
Heartbeat CPU 0 instructions: 240000028 cycles: 676808876 heartbeat IPC: 0.4615 cumulative IPC: 0.3546 (Simulation time: 01 hr 03 min 42 sec)
Heartbeat CPU 0 instructions: 250000028 cycles: 688985534 heartbeat IPC: 0.8212 cumulative IPC: 0.3629 (Simulation time: 01 hr 05 min 10 sec)
[ERROR_CYCLE] Error added at CPU cycle 695602269, interval 27, pending count: 1
[DRAM_CYCLE_ERROR] Cycle-based error applied! address=0x14b04d02f8 additional_latency=173500 cycles
[ERROR_CYCLE] Error added at CPU cycle 721365317, interval 28, pending count: 1
[DRAM_CYCLE_ERROR] Cycle-based error applied! address=0x874bb59e0 additional_latency=173500 cycles
[ERROR_CYCLE] Error added at CPU cycle 747128363, interval 29, pending count: 1
[DRAM_CYCLE_ERROR] Cycle-based error applied! address=0x1fc27f40b8 additional_latency=173500 cycles
Heartbeat CPU 0 instructions: 260000028 cycles: 755183763 heartbeat IPC: 0.1511 cumulative IPC: 0.3443 (Simulation time: 01 hr 10 min 41 sec)
[ERROR_CYCLE] Error added at CPU cycle 772891410, interval 30, pending count: 1
[DRAM_CYCLE_ERROR] Cycle-based error applied! address=0xc65f77088 additional_latency=173500 cycles
[ERROR_CYCLE] Error added at CPU cycle 798654458, interval 31, pending count: 1
[DRAM_CYCLE_ERROR] Cycle-based error applied! address=0x841842708 additional_latency=173500 cycles
[ERROR_CYCLE] Error added at CPU cycle 824417504, interval 32, pending count: 1
[DRAM_CYCLE_ERROR] Cycle-based error applied! address=0x151cd4bfe0 additional_latency=173500 cycles
Heartbeat CPU 0 instructions: 270000028 cycles: 837170757 heartbeat IPC: 0.122 cumulative IPC: 0.3225 (Simulation time: 01 hr 17 min 19 sec)
[ERROR_CYCLE] Error added at CPU cycle 850180551, interval 33, pending count: 1
[DRAM_CYCLE_ERROR] Cycle-based error applied! address=0x3c5cba168 additional_latency=173500 cycles
Heartbeat CPU 0 instructions: 280000028 cycles: 863522151 heartbeat IPC: 0.3795 cumulative IPC: 0.3243 (Simulation time: 01 hr 19 min 19 sec)
[ERROR_CYCLE] Error added at CPU cycle 875943599, interval 34, pending count: 1
[DRAM_CYCLE_ERROR] Cycle-based error applied! address=0x1449c8be90 additional_latency=173500 cycles
Heartbeat CPU 0 instructions: 290000029 cycles: 896560066 heartbeat IPC: 0.3027 cumulative IPC: 0.3235 (Simulation time: 01 hr 22 min 39 sec)
[ERROR_CYCLE] Error added at CPU cycle 901706645, interval 35, pending count: 1
[DRAM_CYCLE_ERROR] Cycle-based error applied! address=0x180b179ed8 additional_latency=173500 cycles
[ERROR_CYCLE] Error added at CPU cycle 927469692, interval 36, pending count: 1
[DRAM_CYCLE_ERROR] Cycle-based error applied! address=0x6dbadfe90 additional_latency=173500 cycles
Heartbeat CPU 0 instructions: 300000030 cycles: 931246016 heartbeat IPC: 0.2883 cumulative IPC: 0.3221 (Simulation time: 01 hr 26 min 03 sec)
Heartbeat CPU 0 instructions: 310000030 cycles: 952548397 heartbeat IPC: 0.4694 cumulative IPC: 0.3254 (Simulation time: 01 hr 28 min 21 sec)
[ERROR_CYCLE] Error added at CPU cycle 953232740, interval 37, pending count: 1
[DRAM_CYCLE_ERROR] Cycle-based error applied! address=0x11b17fa020 additional_latency=173500 cycles
Heartbeat CPU 0 instructions: 320000030 cycles: 975012670 heartbeat IPC: 0.4452 cumulative IPC: 0.3282 (Simulation time: 01 hr 30 min 41 sec)
[ERROR_CYCLE] Error added at CPU cycle 978995786, interval 38, pending count: 1
[DRAM_CYCLE_ERROR] Cycle-based error applied! address=0x440c6f58 additional_latency=173500 cycles
[ERROR_CYCLE] Error added at CPU cycle 1004758834, interval 39, pending count: 1
[DRAM_CYCLE_ERROR] Cycle-based error applied! address=0x12e0fac260 additional_latency=173500 cycles
Heartbeat CPU 0 instructions: 330000032 cycles: 1013230367 heartbeat IPC: 0.2617 cumulative IPC: 0.3257 (Simulation time: 01 hr 33 min 48 sec)
Heartbeat CPU 0 instructions: 340000032 cycles: 1028606651 heartbeat IPC: 0.6504 cumulative IPC: 0.3305 (Simulation time: 01 hr 35 min 34 sec)
[ERROR_CYCLE] Error added at CPU cycle 1030521880, interval 40, pending count: 1
[DRAM_CYCLE_ERROR] Cycle-based error applied! address=0x17d7b59ed0 additional_latency=173500 cycles
Heartbeat CPU 0 instructions: 350000032 cycles: 1039282762 heartbeat IPC: 0.9367 cumulative IPC: 0.3368 (Simulation time: 01 hr 36 min 53 sec)
[ERROR_CYCLE] Error added at CPU cycle 1056284927, interval 41, pending count: 1
[DRAM_CYCLE_ERROR] Cycle-based error applied! address=0x16f7c79520 additional_latency=173500 cycles
Heartbeat CPU 0 instructions: 360000032 cycles: 1073054672 heartbeat IPC: 0.2961 cumulative IPC: 0.3355 (Simulation time: 01 hr 39 min 48 sec)
[ERROR_CYCLE] Error added at CPU cycle 1082047975, interval 42, pending count: 1
[DRAM_CYCLE_ERROR] Cycle-based error applied! address=0xeb774cb00 additional_latency=173500 cycles
Heartbeat CPU 0 instructions: 370000034 cycles: 1094784297 heartbeat IPC: 0.4602 cumulative IPC: 0.338 (Simulation time: 01 hr 41 min 21 sec)
[ERROR_CYCLE] Error added at CPU cycle 1107811021, interval 43, pending count: 1
[DRAM_CYCLE_ERROR] Cycle-based error applied! address=0x1301002298 additional_latency=173500 cycles
Heartbeat CPU 0 instructions: 380000034 cycles: 1112004301 heartbeat IPC: 0.5807 cumulative IPC: 0.3417 (Simulation time: 01 hr 42 min 39 sec)
[ERROR_CYCLE] Error added at CPU cycle 1133574068, interval 44, pending count: 1
[DRAM_CYCLE_ERROR] Cycle-based error applied! address=0xf9351bf98 additional_latency=173500 cycles
Heartbeat CPU 0 instructions: 390000037 cycles: 1153348046 heartbeat IPC: 0.2419 cumulative IPC: 0.3381 (Simulation time: 01 hr 45 min 49 sec)
[ERROR_CYCLE] Error added at CPU cycle 1159337116, interval 45, pending count: 1
[DRAM_CYCLE_ERROR] Cycle-based error applied! address=0x10a0ffc508 additional_latency=173500 cycles
[ERROR_CYCLE] Error added at CPU cycle 1185100162, interval 46, pending count: 1
[DRAM_CYCLE_ERROR] Cycle-based error applied! address=0x1f374f4620 additional_latency=173500 cycles
Heartbeat CPU 0 instructions: 400000039 cycles: 1199033079 heartbeat IPC: 0.2189 cumulative IPC: 0.3336 (Simulation time: 01 hr 48 min 59 sec)
[ERROR_CYCLE] Error added at CPU cycle 1210863209, interval 47, pending count: 1
[DRAM_CYCLE_ERROR] Cycle-based error applied! address=0x10e8e008b0 additional_latency=173500 cycles
Heartbeat CPU 0 instructions: 410000039 cycles: 1216493913 heartbeat IPC: 0.5727 cumulative IPC: 0.337 (Simulation time: 01 hr 50 min 52 sec)
Heartbeat CPU 0 instructions: 420000040 cycles: 1227633163 heartbeat IPC: 0.8977 cumulative IPC: 0.3421 (Simulation time: 01 hr 51 min 58 sec)
[ERROR_CYCLE] Error added at CPU cycle 1236626257, interval 48, pending count: 1
[DRAM_CYCLE_ERROR] Cycle-based error applied! address=0x1a062ef388 additional_latency=173500 cycles
Heartbeat CPU 0 instructions: 430000041 cycles: 1247007771 heartbeat IPC: 0.5161 cumulative IPC: 0.3448 (Simulation time: 01 hr 54 min 02 sec)
[ERROR_CYCLE] Error added at CPU cycle 1262389303, interval 49, pending count: 1
[DRAM_CYCLE_ERROR] Cycle-based error applied! address=0x18e64e9d28 additional_latency=173500 cycles
[ERROR_CYCLE] Error added at CPU cycle 1288152351, interval 50, pending count: 1
[DRAM_CYCLE_ERROR] Cycle-based error applied! address=0x144328a880 additional_latency=173500 cycles
Heartbeat CPU 0 instructions: 440000041 cycles: 1296732402 heartbeat IPC: 0.2011 cumulative IPC: 0.3393 (Simulation time: 01 hr 58 min 14 sec)
Heartbeat CPU 0 instructions: 450000041 cycles: 1307266854 heartbeat IPC: 0.9493 cumulative IPC: 0.3442 (Simulation time: 01 hr 59 min 31 sec)
[ERROR_CYCLE] Error added at CPU cycle 1313915398, interval 51, pending count: 1
[DRAM_CYCLE_ERROR] Cycle-based error applied! address=0x3e597b0c0 additional_latency=173500 cycles
Heartbeat CPU 0 instructions: 460000041 cycles: 1326665535 heartbeat IPC: 0.5155 cumulative IPC: 0.3467 (Simulation time: 02 hr 01 min 38 sec)
Heartbeat CPU 0 instructions: 470000041 cycles: 1338791511 heartbeat IPC: 0.8247 cumulative IPC: 0.3511 (Simulation time: 02 hr 03 min 04 sec)
[ERROR_CYCLE] Error added at CPU cycle 1339678444, interval 52, pending count: 1
[DRAM_CYCLE_ERROR] Cycle-based error applied! address=0x1de76a4f10 additional_latency=173500 cycles
Heartbeat CPU 0 instructions: 480000042 cycles: 1353712333 heartbeat IPC: 0.6702 cumulative IPC: 0.3546 (Simulation time: 02 hr 04 min 45 sec)
[ERROR_CYCLE] Error added at CPU cycle 1365441492, interval 53, pending count: 1
[DRAM_CYCLE_ERROR] Cycle-based error applied! address=0x3b7bf24a8 additional_latency=173500 cycles
[ERROR_CYCLE] Error added at CPU cycle 1391204538, interval 54, pending count: 1
[DRAM_CYCLE_ERROR] Cycle-based error applied! address=0x1f3d804e48 additional_latency=173500 cycles
Heartbeat CPU 0 instructions: 490000043 cycles: 1400678758 heartbeat IPC: 0.2129 cumulative IPC: 0.3498 (Simulation time: 02 hr 09 min 19 sec)
[ERROR_CYCLE] Error added at CPU cycle 1416967585, interval 55, pending count: 1
[DRAM_CYCLE_ERROR] Cycle-based error applied! address=0x1cf6a75880 additional_latency=173500 cycles
Heartbeat CPU 0 instructions: 500000046 cycles: 1420253070 heartbeat IPC: 0.5109 cumulative IPC: 0.352 (Simulation time: 02 hr 10 min 49 sec)
Heartbeat CPU 0 instructions: 510000047 cycles: 1440197679 heartbeat IPC: 0.5014 cumulative IPC: 0.3541 (Simulation time: 02 hr 12 min 18 sec)
[ERROR_CYCLE] Error added at CPU cycle 1442730633, interval 56, pending count: 1
[DRAM_CYCLE_ERROR] Cycle-based error applied! address=0x1cf6a75880 additional_latency=173500 cycles
Heartbeat CPU 0 instructions: 520000048 cycles: 1453405174 heartbeat IPC: 0.7571 cumulative IPC: 0.3578 (Simulation time: 02 hr 13 min 37 sec)
[ERROR_CYCLE] Error added at CPU cycle 1468493679, interval 57, pending count: 1
[DRAM_CYCLE_ERROR] Cycle-based error applied! address=0xfacfc2c68 additional_latency=173500 cycles
Heartbeat CPU 0 instructions: 530000052 cycles: 1470596657 heartbeat IPC: 0.5817 cumulative IPC: 0.3604 (Simulation time: 02 hr 15 min 30 sec)
[ERROR_CYCLE] Error added at CPU cycle 1494256726, interval 58, pending count: 1
[DRAM_CYCLE_ERROR] Cycle-based error applied! address=0x82b25da08 additional_latency=173500 cycles
Heartbeat CPU 0 instructions: 540000053 cycles: 1514076423 heartbeat IPC: 0.23 cumulative IPC: 0.3567 (Simulation time: 02 hr 19 min 35 sec)
[ERROR_CYCLE] Error added at CPU cycle 1520019774, interval 59, pending count: 1
[DRAM_CYCLE_ERROR] Cycle-based error applied! address=0x1feca3e7a0 additional_latency=173500 cycles
[ERROR_CYCLE] Error added at CPU cycle 1545782820, interval 60, pending count: 1
[DRAM_CYCLE_ERROR] Cycle-based error applied! address=0xdad23ce48 additional_latency=173500 cycles
Heartbeat CPU 0 instructions: 550000054 cycles: 1569314642 heartbeat IPC: 0.181 cumulative IPC: 0.3505 (Simulation time: 02 hr 23 min 52 sec)
[ERROR_CYCLE] Error added at CPU cycle 1571545867, interval 61, pending count: 1
[DRAM_CYCLE_ERROR] Cycle-based error applied! address=0x98e3934d8 additional_latency=173500 cycles
[ERROR_CYCLE] Error added at CPU cycle 1597308915, interval 62, pending count: 1
[DRAM_CYCLE_ERROR] Cycle-based error applied! address=0x188a6fcab0 additional_latency=173500 cycles
[ERROR_CYCLE] Error added at CPU cycle 1623071961, interval 63, pending count: 1
[DRAM_CYCLE_ERROR] Cycle-based error applied! address=0x53124f1b8 additional_latency=173500 cycles
Heartbeat CPU 0 instructions: 560000054 cycles: 1623258034 heartbeat IPC: 0.1854 cumulative IPC: 0.345 (Simulation time: 02 hr 27 min 04 sec)
[ERROR_CYCLE] Error added at CPU cycle 1648835009, interval 64, pending count: 1
[DRAM_CYCLE_ERROR] Cycle-based error applied! address=0x10aeb8e028 additional_latency=173500 cycles
[ERROR_CYCLE] Error added at CPU cycle 1674598055, interval 65, pending count: 1
[DRAM_CYCLE_ERROR] Cycle-based error applied! address=0x64213c528 additional_latency=173500 cycles
Heartbeat CPU 0 instructions: 570000057 cycles: 1675830985 heartbeat IPC: 0.1902 cumulative IPC: 0.3401 (Simulation time: 02 hr 30 min 10 sec)
[ERROR_CYCLE] Error added at CPU cycle 1700361102, interval 66, pending count: 1
[DRAM_CYCLE_ERROR] Cycle-based error applied! address=0x1fe3e1c4c8 additional_latency=173500 cycles
[ERROR_CYCLE] Error added at CPU cycle 1726124150, interval 67, pending count: 1
[DRAM_CYCLE_ERROR] Cycle-based error applied! address=0x620d5d550 additional_latency=173500 cycles
Heartbeat CPU 0 instructions: 580000060 cycles: 1727521652 heartbeat IPC: 0.1935 cumulative IPC: 0.3357 (Simulation time: 02 hr 34 min 40 sec)
[ERROR_CYCLE] Error added at CPU cycle 1751887196, interval 68, pending count: 1
[DRAM_CYCLE_ERROR] Cycle-based error applied! address=0x54f169800 additional_latency=173500 cycles
[ERROR_CYCLE] Error added at CPU cycle 1777650243, interval 69, pending count: 1
[DRAM_CYCLE_ERROR] Cycle-based error applied! address=0x99a5e8c40 additional_latency=173500 cycles
Heartbeat CPU 0 instructions: 590000060 cycles: 1780118824 heartbeat IPC: 0.1901 cumulative IPC: 0.3314 (Simulation time: 02 hr 39 min 40 sec)
[ERROR_CYCLE] Error added at CPU cycle 1803413291, interval 70, pending count: 1
[DRAM_CYCLE_ERROR] Cycle-based error applied! address=0xf30db0ae0 additional_latency=173500 cycles
[ERROR_CYCLE] Error added at CPU cycle 1829176337, interval 71, pending count: 1
[DRAM_CYCLE_ERROR] Cycle-based error applied! address=0xa7a2f7810 additional_latency=173500 cycles
Heartbeat CPU 0 instructions: 600000061 cycles: 1831681790 heartbeat IPC: 0.1939 cumulative IPC: 0.3276 (Simulation time: 02 hr 44 min 01 sec)
[ERROR_CYCLE] Error added at CPU cycle 1854939384, interval 72, pending count: 1
[DRAM_CYCLE_ERROR] Cycle-based error applied! address=0xa748c4088 additional_latency=173500 cycles
[ERROR_CYCLE] Error added at CPU cycle 1880702432, interval 73, pending count: 1
[DRAM_CYCLE_ERROR] Cycle-based error applied! address=0x1151dc75e8 additional_latency=173500 cycles
Heartbeat CPU 0 instructions: 610000062 cycles: 1883227161 heartbeat IPC: 0.194 cumulative IPC: 0.3239 (Simulation time: 02 hr 47 min 16 sec)
[ERROR_CYCLE] Error added at CPU cycle 1906465478, interval 74, pending count: 1
[DRAM_CYCLE_ERROR] Cycle-based error applied! address=0x532f2aa00 additional_latency=173500 cycles
[ERROR_CYCLE] Error added at CPU cycle 1932228526, interval 75, pending count: 1
[DRAM_CYCLE_ERROR] Cycle-based error applied! address=0xb242c4a40 additional_latency=173500 cycles
Heartbeat CPU 0 instructions: 620000063 cycles: 1932248149 heartbeat IPC: 0.204 cumulative IPC: 0.3209 (Simulation time: 02 hr 50 min 33 sec)
[ERROR_CYCLE] Error added at CPU cycle 1957991572, interval 76, pending count: 1
[DRAM_CYCLE_ERROR] Cycle-based error applied! address=0xf534966d0 additional_latency=173500 cycles
Heartbeat CPU 0 instructions: 630000065 cycles: 1980594343 heartbeat IPC: 0.2068 cumulative IPC: 0.3181 (Simulation time: 02 hr 53 min 35 sec)
[ERROR_CYCLE] Error added at CPU cycle 1983754619, interval 77, pending count: 1
[DRAM_CYCLE_ERROR] Cycle-based error applied! address=0x7350f198 additional_latency=173500 cycles
[ERROR_CYCLE] Error added at CPU cycle 2009517667, interval 78, pending count: 1
[DRAM_CYCLE_ERROR] Cycle-based error applied! address=0x1899902b68 additional_latency=173500 cycles
Heartbeat CPU 0 instructions: 640000065 cycles: 2027397345 heartbeat IPC: 0.2137 cumulative IPC: 0.3157 (Simulation time: 02 hr 57 min 32 sec)
[ERROR_CYCLE] Error added at CPU cycle 2035280713, interval 79, pending count: 1
[DRAM_CYCLE_ERROR] Cycle-based error applied! address=0x5f19662b0 additional_latency=173500 cycles
[ERROR_CYCLE] Error added at CPU cycle 2061043760, interval 80, pending count: 1
[DRAM_CYCLE_ERROR] Cycle-based error applied! address=0x30dd32878 additional_latency=173500 cycles
Heartbeat CPU 0 instructions: 650000065 cycles: 2082897635 heartbeat IPC: 0.1802 cumulative IPC: 0.3121 (Simulation time: 03 hr 01 min 46 sec)
[ERROR_CYCLE] Error added at CPU cycle 2086806808, interval 81, pending count: 1
[DRAM_CYCLE_ERROR] Cycle-based error applied! address=0x1a22f8be8 additional_latency=173500 cycles
[ERROR_CYCLE] Error added at CPU cycle 2112569854, interval 82, pending count: 1
[DRAM_CYCLE_ERROR] Cycle-based error applied! address=0x6f586e2c8 additional_latency=173500 cycles
[ERROR_CYCLE] Error added at CPU cycle 2138332901, interval 83, pending count: 1
[DRAM_CYCLE_ERROR] Cycle-based error applied! address=0x15fd222770 additional_latency=173500 cycles
Heartbeat CPU 0 instructions: 660000066 cycles: 2144208229 heartbeat IPC: 0.1631 cumulative IPC: 0.3078 (Simulation time: 03 hr 05 min 42 sec)
[ERROR_CYCLE] Error added at CPU cycle 2164095949, interval 84, pending count: 1
[DRAM_CYCLE_ERROR] Cycle-based error applied! address=0x1e86e8178 additional_latency=173500 cycles
[ERROR_CYCLE] Error added at CPU cycle 2189858995, interval 85, pending count: 1
[DRAM_CYCLE_ERROR] Cycle-based error applied! address=0xd88a9e4b8 additional_latency=173500 cycles
Heartbeat CPU 0 instructions: 670000066 cycles: 2207907963 heartbeat IPC: 0.157 cumulative IPC: 0.3035 (Simulation time: 03 hr 09 min 32 sec)
[ERROR_CYCLE] Error added at CPU cycle 2215622043, interval 86, pending count: 1
[DRAM_CYCLE_ERROR] Cycle-based error applied! address=0x115a2dae08 additional_latency=173500 cycles
[ERROR_CYCLE] Error added at CPU cycle 2241385090, interval 87, pending count: 1
[DRAM_CYCLE_ERROR] Cycle-based error applied! address=0xa8c13a558 additional_latency=173500 cycles
[ERROR_CYCLE] Error added at CPU cycle 2267148136, interval 88, pending count: 1
[DRAM_CYCLE_ERROR] Cycle-based error applied! address=0xe776b4dc0 additional_latency=173500 cycles
Heartbeat CPU 0 instructions: 680000067 cycles: 2279098848 heartbeat IPC: 0.1405 cumulative IPC: 0.2984 (Simulation time: 03 hr 13 min 47 sec)
[ERROR_CYCLE] Error added at CPU cycle 2292911184, interval 89, pending count: 1
[DRAM_CYCLE_ERROR] Cycle-based error applied! address=0x1fe20a5e40 additional_latency=173500 cycles
[ERROR_CYCLE] Error added at CPU cycle 2318674230, interval 90, pending count: 1
[DRAM_CYCLE_ERROR] Cycle-based error applied! address=0x10ab034490 additional_latency=173500 cycles
Heartbeat CPU 0 instructions: 690000071 cycles: 2338765284 heartbeat IPC: 0.1676 cumulative IPC: 0.295 (Simulation time: 03 hr 17 min 25 sec)
[ERROR_CYCLE] Error added at CPU cycle 2344437277, interval 91, pending count: 1
[DRAM_CYCLE_ERROR] Cycle-based error applied! address=0x12508cd4c0 additional_latency=173500 cycles
[ERROR_CYCLE] Error added at CPU cycle 2370200325, interval 92, pending count: 1
[DRAM_CYCLE_ERROR] Cycle-based error applied! address=0x78374e170 additional_latency=173500 cycles
Heartbeat CPU 0 instructions: 700000073 cycles: 2373340546 heartbeat IPC: 0.2892 cumulative IPC: 0.2949 (Simulation time: 03 hr 19 min 43 sec)
Heartbeat CPU 0 instructions: 710000077 cycles: 2391268184 heartbeat IPC: 0.5578 cumulative IPC: 0.2969 (Simulation time: 03 hr 20 min 57 sec)
[ERROR_CYCLE] Error added at CPU cycle 2395963371, interval 93, pending count: 1
[DRAM_CYCLE_ERROR] Cycle-based error applied! address=0x1308da05d8 additional_latency=173500 cycles
Heartbeat CPU 0 instructions: 720000079 cycles: 2412325263 heartbeat IPC: 0.4749 cumulative IPC: 0.2985 (Simulation time: 03 hr 22 min 21 sec)
[ERROR_CYCLE] Error added at CPU cycle 2421726418, interval 94, pending count: 1
[DRAM_CYCLE_ERROR] Cycle-based error applied! address=0x3c9b80fe0 additional_latency=173500 cycles
Heartbeat CPU 0 instructions: 730000082 cycles: 2428957762 heartbeat IPC: 0.6012 cumulative IPC: 0.3005 (Simulation time: 03 hr 23 min 30 sec)
Heartbeat CPU 0 instructions: 740000083 cycles: 2440183218 heartbeat IPC: 0.8908 cumulative IPC: 0.3033 (Simulation time: 03 hr 24 min 22 sec)
[ERROR_CYCLE] Error added at CPU cycle 2447489466, interval 95, pending count: 1
[DRAM_CYCLE_ERROR] Cycle-based error applied! address=0x8b9b47ce0 additional_latency=173500 cycles
Heartbeat CPU 0 instructions: 750000085 cycles: 2463922425 heartbeat IPC: 0.4212 cumulative IPC: 0.3044 (Simulation time: 03 hr 26 min 16 sec)
[ERROR_CYCLE] Error added at CPU cycle 2473252512, interval 96, pending count: 1
[DRAM_CYCLE_ERROR] Cycle-based error applied! address=0x1a6fa82d38 additional_latency=173500 cycles
Heartbeat CPU 0 instructions: 760000089 cycles: 2475221138 heartbeat IPC: 0.8851 cumulative IPC: 0.307 (Simulation time: 03 hr 27 min 17 sec)
Heartbeat CPU 0 instructions: 770000091 cycles: 2490205348 heartbeat IPC: 0.6674 cumulative IPC: 0.3092 (Simulation time: 03 hr 28 min 37 sec)
[ERROR_CYCLE] Error added at CPU cycle 2499015559, interval 97, pending count: 1
[DRAM_CYCLE_ERROR] Cycle-based error applied! address=0x11f597ea60 additional_latency=173500 cycles
Heartbeat CPU 0 instructions: 780000093 cycles: 2516219559 heartbeat IPC: 0.3844 cumulative IPC: 0.31 (Simulation time: 03 hr 30 min 16 sec)
[ERROR_CYCLE] Error added at CPU cycle 2524778607, interval 98, pending count: 1
[DRAM_CYCLE_ERROR] Cycle-based error applied! address=0x15c20880d8 additional_latency=173500 cycles
Heartbeat CPU 0 instructions: 790000093 cycles: 2542470828 heartbeat IPC: 0.3809 cumulative IPC: 0.3107 (Simulation time: 03 hr 31 min 55 sec)
[ERROR_CYCLE] Error added at CPU cycle 2550541653, interval 99, pending count: 1
[DRAM_CYCLE_ERROR] Cycle-based error applied! address=0xd22df5278 additional_latency=173500 cycles
[ERROR_CYCLE] Error added at CPU cycle 2576304701, interval 100, pending count: 1
[DRAM_CYCLE_ERROR] Cycle-based error applied! address=0x172c228bc0 additional_latency=173500 cycles
Heartbeat CPU 0 instructions: 800000093 cycles: 2587883778 heartbeat IPC: 0.2202 cumulative IPC: 0.3091 (Simulation time: 03 hr 34 min 34 sec)
[ERROR_CYCLE] Error added at CPU cycle 2602067747, interval 101, pending count: 1
[DRAM_CYCLE_ERROR] Cycle-based error applied! address=0x12a5952f40 additional_latency=173500 cycles
Heartbeat CPU 0 instructions: 810000094 cycles: 2623035602 heartbeat IPC: 0.2845 cumulative IPC: 0.3088 (Simulation time: 03 hr 36 min 40 sec)
[ERROR_CYCLE] Error added at CPU cycle 2627830794, interval 102, pending count: 1
[DRAM_CYCLE_ERROR] Cycle-based error applied! address=0x70bd82d0 additional_latency=173500 cycles
Heartbeat CPU 0 instructions: 820000094 cycles: 2651161229 heartbeat IPC: 0.3555 cumulative IPC: 0.3093 (Simulation time: 03 hr 38 min 23 sec)
[ERROR_CYCLE] Error added at CPU cycle 2653593842, interval 103, pending count: 1
[DRAM_CYCLE_ERROR] Cycle-based error applied! address=0x1f4f0cd970 additional_latency=173500 cycles
Heartbeat CPU 0 instructions: 830000094 cycles: 2671796536 heartbeat IPC: 0.4846 cumulative IPC: 0.3107 (Simulation time: 03 hr 39 min 44 sec)
[ERROR_CYCLE] Error added at CPU cycle 2679356888, interval 104, pending count: 1
[DRAM_CYCLE_ERROR] Cycle-based error applied! address=0x1ae793ca38 additional_latency=173500 cycles
[ERROR_CYCLE] Error added at CPU cycle 2705119935, interval 105, pending count: 1
[DRAM_CYCLE_ERROR] Cycle-based error applied! address=0x22e430438 additional_latency=173500 cycles
Heartbeat CPU 0 instructions: 840000096 cycles: 2715347079 heartbeat IPC: 0.2296 cumulative IPC: 0.3094 (Simulation time: 03 hr 42 min 16 sec)
[ERROR_CYCLE] Error added at CPU cycle 2730882983, interval 106, pending count: 1
[DRAM_CYCLE_ERROR] Cycle-based error applied! address=0xeca1c46f0 additional_latency=173500 cycles
Heartbeat CPU 0 instructions: 850000099 cycles: 2749766339 heartbeat IPC: 0.2905 cumulative IPC: 0.3091 (Simulation time: 03 hr 44 min 26 sec)
[ERROR_CYCLE] Error added at CPU cycle 2756646029, interval 107, pending count: 1
[DRAM_CYCLE_ERROR] Cycle-based error applied! address=0x16eb0451f8 additional_latency=173500 cycles
Heartbeat CPU 0 instructions: 860000100 cycles: 2767443220 heartbeat IPC: 0.5657 cumulative IPC: 0.3108 (Simulation time: 03 hr 45 min 37 sec)
Heartbeat CPU 0 instructions: 870000103 cycles: 2778588574 heartbeat IPC: 0.8972 cumulative IPC: 0.3131 (Simulation time: 03 hr 46 min 26 sec)
[ERROR_CYCLE] Error added at CPU cycle 2782409076, interval 108, pending count: 1
[DRAM_CYCLE_ERROR] Cycle-based error applied! address=0x1e1b8d3eb0 additional_latency=173500 cycles
Heartbeat CPU 0 instructions: 880000103 cycles: 2800716062 heartbeat IPC: 0.4519 cumulative IPC: 0.3142 (Simulation time: 03 hr 47 min 51 sec)
[ERROR_CYCLE] Error added at CPU cycle 2808172124, interval 109, pending count: 1
[DRAM_CYCLE_ERROR] Cycle-based error applied! address=0x1cae879488 additional_latency=173500 cycles
Heartbeat CPU 0 instructions: 890000103 cycles: 2819341060 heartbeat IPC: 0.5369 cumulative IPC: 0.3157 (Simulation time: 03 hr 49 min 05 sec)
[ERROR_CYCLE] Error added at CPU cycle 2833935170, interval 110, pending count: 1
[DRAM_CYCLE_ERROR] Cycle-based error applied! address=0x1d8a689378 additional_latency=173500 cycles
Heartbeat CPU 0 instructions: 900000107 cycles: 2857491585 heartbeat IPC: 0.2621 cumulative IPC: 0.315 (Simulation time: 03 hr 51 min 22 sec)
[ERROR_CYCLE] Error added at CPU cycle 2859698218, interval 111, pending count: 1
[DRAM_CYCLE_ERROR] Cycle-based error applied! address=0xea0a890 additional_latency=173500 cycles
Heartbeat CPU 0 instructions: 910000107 cycles: 2874018789 heartbeat IPC: 0.6051 cumulative IPC: 0.3166 (Simulation time: 03 hr 52 min 28 sec)
[ERROR_CYCLE] Error added at CPU cycle 2885461265, interval 112, pending count: 1
[DRAM_CYCLE_ERROR] Cycle-based error applied! address=0x47d43a210 additional_latency=173500 cycles
Heartbeat CPU 0 instructions: 920000108 cycles: 2898583670 heartbeat IPC: 0.4071 cumulative IPC: 0.3174 (Simulation time: 03 hr 53 min 58 sec)
[ERROR_CYCLE] Error added at CPU cycle 2911224311, interval 113, pending count: 1
[DRAM_CYCLE_ERROR] Cycle-based error applied! address=0x1acb02a1a8 additional_latency=173500 cycles
Heartbeat CPU 0 instructions: 930000109 cycles: 2917506228 heartbeat IPC: 0.5285 cumulative IPC: 0.3188 (Simulation time: 03 hr 55 min 12 sec)
[ERROR_CYCLE] Error added at CPU cycle 2936987359, interval 114, pending count: 1
[DRAM_CYCLE_ERROR] Cycle-based error applied! address=0x1a1aefdce0 additional_latency=173500 cycles
[ERROR_CYCLE] Error added at CPU cycle 2962750405, interval 115, pending count: 1
[DRAM_CYCLE_ERROR] Cycle-based error applied! address=0x1c951c2980 additional_latency=173500 cycles
Heartbeat CPU 0 instructions: 940000110 cycles: 2972517781 heartbeat IPC: 0.1818 cumulative IPC: 0.3162 (Simulation time: 03 hr 58 min 16 sec)
[ERROR_CYCLE] Error added at CPU cycle 2988513452, interval 116, pending count: 1
[DRAM_CYCLE_ERROR] Cycle-based error applied! address=0x847b18ab8 additional_latency=173500 cycles
[ERROR_CYCLE] Error added at CPU cycle 3014276500, interval 117, pending count: 1
[DRAM_CYCLE_ERROR] Cycle-based error applied! address=0x78136a728 additional_latency=173500 cycles
Heartbeat CPU 0 instructions: 950000112 cycles: 3035530606 heartbeat IPC: 0.1587 cumulative IPC: 0.313 (Simulation time: 04 hr 01 min 46 sec)
[ERROR_CYCLE] Error added at CPU cycle 3040039546, interval 118, pending count: 1
[DRAM_CYCLE_ERROR] Cycle-based error applied! address=0x120ccc9c00 additional_latency=173500 cycles
[ERROR_CYCLE] Error added at CPU cycle 3065802593, interval 119, pending count: 1
[DRAM_CYCLE_ERROR] Cycle-based error applied! address=0xae003d920 additional_latency=173500 cycles
Heartbeat CPU 0 instructions: 960000113 cycles: 3067714183 heartbeat IPC: 0.3107 cumulative IPC: 0.3129 (Simulation time: 04 hr 03 min 44 sec)
Heartbeat CPU 0 instructions: 970000113 cycles: 3083246763 heartbeat IPC: 0.6438 cumulative IPC: 0.3146 (Simulation time: 04 hr 04 min 46 sec)
[ERROR_CYCLE] Error added at CPU cycle 3091565641, interval 120, pending count: 1
[DRAM_CYCLE_ERROR] Cycle-based error applied! address=0x839197978 additional_latency=173500 cycles
Heartbeat CPU 0 instructions: 980000113 cycles: 3096420074 heartbeat IPC: 0.7591 cumulative IPC: 0.3165 (Simulation time: 04 hr 05 min 41 sec)
[ERROR_CYCLE] Error added at CPU cycle 3117328687, interval 121, pending count: 1
[DRAM_CYCLE_ERROR] Cycle-based error applied! address=0x1991dcf380 additional_latency=173500 cycles
Heartbeat CPU 0 instructions: 990000115 cycles: 3122675153 heartbeat IPC: 0.3809 cumulative IPC: 0.317 (Simulation time: 04 hr 07 min 19 sec)
Heartbeat CPU 0 instructions: 1000000115 cycles: 3138279917 heartbeat IPC: 0.6408 cumulative IPC: 0.3186 (Simulation time: 04 hr 08 min 22 sec)
[ERROR_CYCLE] Error added at CPU cycle 3143091734, interval 122, pending count: 1
[DRAM_CYCLE_ERROR] Cycle-based error applied! address=0x1aa3e7ac38 additional_latency=173500 cycles
Heartbeat CPU 0 instructions: 1010000115 cycles: 3156073833 heartbeat IPC: 0.562 cumulative IPC: 0.32 (Simulation time: 04 hr 09 min 31 sec)
[ERROR_CYCLE] Error added at CPU cycle 3168854782, interval 123, pending count: 1
[DRAM_CYCLE_ERROR] Cycle-based error applied! address=0x16e786e730 additional_latency=173500 cycles
Heartbeat CPU 0 instructions: 1020000118 cycles: 3176823151 heartbeat IPC: 0.4819 cumulative IPC: 0.3211 (Simulation time: 04 hr 10 min 52 sec)
Heartbeat CPU 0 instructions: 1030000118 cycles: 3194433653 heartbeat IPC: 0.5678 cumulative IPC: 0.3224 (Simulation time: 04 hr 12 min 03 sec)
[ERROR_CYCLE] Error added at CPU cycle 3194617828, interval 124, pending count: 1
[DRAM_CYCLE_ERROR] Cycle-based error applied! address=0x9c54da758 additional_latency=173500 cycles
Heartbeat CPU 0 instructions: 1040000118 cycles: 3214884878 heartbeat IPC: 0.489 cumulative IPC: 0.3235 (Simulation time: 04 hr 13 min 20 sec)
[ERROR_CYCLE] Error added at CPU cycle 3220380876, interval 125, pending count: 1
[DRAM_CYCLE_ERROR] Cycle-based error applied! address=0x7fab081b8 additional_latency=173500 cycles
[ERROR_CYCLE] Error added at CPU cycle 3246143922, interval 126, pending count: 1
[DRAM_CYCLE_ERROR] Cycle-based error applied! address=0x1decd22c88 additional_latency=173500 cycles
[ERROR_CYCLE] Error added at CPU cycle 3271906969, interval 127, pending count: 1
[DRAM_CYCLE_ERROR] Cycle-based error applied! address=0x1bd768ebb8 additional_latency=173500 cycles
Heartbeat CPU 0 instructions: 1050000121 cycles: 3289317569 heartbeat IPC: 0.1343 cumulative IPC: 0.3192 (Simulation time: 04 hr 17 min 19 sec)
[ERROR_CYCLE] Error added at CPU cycle 3297670017, interval 128, pending count: 1
[DRAM_CYCLE_ERROR] Cycle-based error applied! address=0x131dff7088 additional_latency=173500 cycles
[ERROR_CYCLE] Error added at CPU cycle 3323433063, interval 129, pending count: 1
[DRAM_CYCLE_ERROR] Cycle-based error applied! address=0x153f7c00 additional_latency=173500 cycles
[ERROR_CYCLE] Error added at CPU cycle 3349196110, interval 130, pending count: 1
[DRAM_CYCLE_ERROR] Cycle-based error applied! address=0x1d9cd9be38 additional_latency=173500 cycles
Heartbeat CPU 0 instructions: 1060000125 cycles: 3349481654 heartbeat IPC: 0.1662 cumulative IPC: 0.3165 (Simulation time: 04 hr 20 min 39 sec)
Heartbeat CPU 0 instructions: 1070000125 cycles: 3363454058 heartbeat IPC: 0.7157 cumulative IPC: 0.3181 (Simulation time: 04 hr 21 min 35 sec)
[ERROR_CYCLE] Error added at CPU cycle 3374959158, interval 131, pending count: 1
[DRAM_CYCLE_ERROR] Cycle-based error applied! address=0x1a587f73b8 additional_latency=173500 cycles
Heartbeat CPU 0 instructions: 1080000129 cycles: 3377899780 heartbeat IPC: 0.6922 cumulative IPC: 0.3197 (Simulation time: 04 hr 22 min 35 sec)
[ERROR_CYCLE] Error added at CPU cycle 3400722204, interval 132, pending count: 1
[DRAM_CYCLE_ERROR] Cycle-based error applied! address=0xcb72232c8 additional_latency=173500 cycles
[ERROR_CYCLE] Error added at CPU cycle 3426485251, interval 133, pending count: 1
[DRAM_CYCLE_ERROR] Cycle-based error applied! address=0x1991dcf330 additional_latency=173500 cycles
Heartbeat CPU 0 instructions: 1090000132 cycles: 3436561816 heartbeat IPC: 0.1705 cumulative IPC: 0.3172 (Simulation time: 04 hr 25 min 53 sec)
[ERROR_CYCLE] Error added at CPU cycle 3452248299, interval 134, pending count: 1
[DRAM_CYCLE_ERROR] Cycle-based error applied! address=0x1bd9741f68 additional_latency=173500 cycles
Heartbeat CPU 0 instructions: 1100000134 cycles: 3461939145 heartbeat IPC: 0.3941 cumulative IPC: 0.3177 (Simulation time: 04 hr 27 min 28 sec)
Heartbeat CPU 0 instructions: 1110000137 cycles: 3477963451 heartbeat IPC: 0.6241 cumulative IPC: 0.3192 (Simulation time: 04 hr 28 min 33 sec)
[ERROR_CYCLE] Error added at CPU cycle 3478011345, interval 135, pending count: 1
[DRAM_CYCLE_ERROR] Cycle-based error applied! address=0x15074e90a8 additional_latency=173500 cycles
Heartbeat CPU 0 instructions: 1120000138 cycles: 3491820665 heartbeat IPC: 0.7216 cumulative IPC: 0.3207 (Simulation time: 04 hr 29 min 29 sec)
Heartbeat CPU 0 instructions: 1130000138 cycles: 3503409298 heartbeat IPC: 0.8629 cumulative IPC: 0.3225 (Simulation time: 04 hr 30 min 17 sec)
[ERROR_CYCLE] Error added at CPU cycle 3503774393, interval 136, pending count: 1
[DRAM_CYCLE_ERROR] Cycle-based error applied! address=0x8111c0158 additional_latency=173500 cycles
[ERROR_CYCLE] Error added at CPU cycle 3529537440, interval 137, pending count: 1
[DRAM_CYCLE_ERROR] Cycle-based error applied! address=0x1508556af0 additional_latency=173500 cycles
Heartbeat CPU 0 instructions: 1140000142 cycles: 3545585049 heartbeat IPC: 0.2371 cumulative IPC: 0.3215 (Simulation time: 04 hr 32 min 37 sec)
[ERROR_CYCLE] Error added at CPU cycle 3555300486, interval 138, pending count: 1
[DRAM_CYCLE_ERROR] Cycle-based error applied! address=0x187c48bbb8 additional_latency=173500 cycles
Heartbeat CPU 0 instructions: 1150000145 cycles: 3564799375 heartbeat IPC: 0.5204 cumulative IPC: 0.3226 (Simulation time: 04 hr 33 min 48 sec)
[ERROR_CYCLE] Error added at CPU cycle 3581063534, interval 139, pending count: 1
[DRAM_CYCLE_ERROR] Cycle-based error applied! address=0x1eb63c1648 additional_latency=173500 cycles
Heartbeat CPU 0 instructions: 1160000149 cycles: 3598578022 heartbeat IPC: 0.296 cumulative IPC: 0.3223 (Simulation time: 04 hr 37 min 10 sec)
[ERROR_CYCLE] Error added at CPU cycle 3606826580, interval 140, pending count: 1
[DRAM_CYCLE_ERROR] Cycle-based error applied! address=0xd25a053d8 additional_latency=173500 cycles
Heartbeat CPU 0 instructions: 1170000151 cycles: 3614660105 heartbeat IPC: 0.6218 cumulative IPC: 0.3237 (Simulation time: 04 hr 39 min 09 sec)
[ERROR_CYCLE] Error added at CPU cycle 3632589627, interval 141, pending count: 1
[DRAM_CYCLE_ERROR] Cycle-based error applied! address=0xf2ac548a0 additional_latency=173500 cycles
Heartbeat CPU 0 instructions: 1180000152 cycles: 3634647725 heartbeat IPC: 0.5003 cumulative IPC: 0.3247 (Simulation time: 04 hr 41 min 30 sec)
[ERROR_CYCLE] Error added at CPU cycle 3658352675, interval 142, pending count: 1
[DRAM_CYCLE_ERROR] Cycle-based error applied! address=0x5918a95c0 additional_latency=173500 cycles
[ERROR_CYCLE] Error added at CPU cycle 3684115721, interval 143, pending count: 1
[DRAM_CYCLE_ERROR] Cycle-based error applied! address=0xefea3fc58 additional_latency=173500 cycles
Heartbeat CPU 0 instructions: 1190000154 cycles: 3685233173 heartbeat IPC: 0.1977 cumulative IPC: 0.3229 (Simulation time: 04 hr 46 min 57 sec)
Heartbeat CPU 0 instructions: 1200000156 cycles: 3701394778 heartbeat IPC: 0.6188 cumulative IPC: 0.3242 (Simulation time: 04 hr 48 min 58 sec)
[ERROR_CYCLE] Error added at CPU cycle 3709878768, interval 144, pending count: 1
[DRAM_CYCLE_ERROR] Cycle-based error applied! address=0x171f9582f8 additional_latency=173500 cycles
Heartbeat CPU 0 instructions: 1210000156 cycles: 3727789905 heartbeat IPC: 0.3789 cumulative IPC: 0.3246 (Simulation time: 04 hr 52 min 01 sec)
[ERROR_CYCLE] Error added at CPU cycle 3735641816, interval 145, pending count: 1
[DRAM_CYCLE_ERROR] Cycle-based error applied! address=0x1419da91b8 additional_latency=173500 cycles
Heartbeat CPU 0 instructions: 1220000159 cycles: 3751531797 heartbeat IPC: 0.4212 cumulative IPC: 0.3252 (Simulation time: 04 hr 54 min 51 sec)
[ERROR_CYCLE] Error added at CPU cycle 3761404862, interval 146, pending count: 1
[DRAM_CYCLE_ERROR] Cycle-based error applied! address=0x1aa3e7ac98 additional_latency=173500 cycles
Heartbeat CPU 0 instructions: 1230000162 cycles: 3763495421 heartbeat IPC: 0.8359 cumulative IPC: 0.3268 (Simulation time: 04 hr 56 min 25 sec)
Heartbeat CPU 0 instructions: 1240000164 cycles: 3776960889 heartbeat IPC: 0.7426 cumulative IPC: 0.3283 (Simulation time: 04 hr 58 min 11 sec)
[ERROR_CYCLE] Error added at CPU cycle 3787167910, interval 147, pending count: 1
[DRAM_CYCLE_ERROR] Cycle-based error applied! address=0x1801742778 additional_latency=173500 cycles
[ERROR_CYCLE] Error added at CPU cycle 3812930957, interval 148, pending count: 1
[DRAM_CYCLE_ERROR] Cycle-based error applied! address=0x17d7b59ed0 additional_latency=173500 cycles
Heartbeat CPU 0 instructions: 1250000167 cycles: 3815869476 heartbeat IPC: 0.257 cumulative IPC: 0.3276 (Simulation time: 05 hr 02 min 25 sec)
Heartbeat CPU 0 instructions: 1260000170 cycles: 3832930119 heartbeat IPC: 0.5861 cumulative IPC: 0.3287 (Simulation time: 05 hr 04 min 24 sec)
[ERROR_CYCLE] Error added at CPU cycle 3838694003, interval 149, pending count: 1
[DRAM_CYCLE_ERROR] Cycle-based error applied! address=0x97e068580 additional_latency=173500 cycles
Heartbeat CPU 0 instructions: 1270000170 cycles: 3854565520 heartbeat IPC: 0.4622 cumulative IPC: 0.3295 (Simulation time: 05 hr 06 min 54 sec)
[ERROR_CYCLE] Error added at CPU cycle 3864457051, interval 150, pending count: 1
[DRAM_CYCLE_ERROR] Cycle-based error applied! address=0x1fa3f40fa0 additional_latency=173500 cycles
Heartbeat CPU 0 instructions: 1280000172 cycles: 3880197665 heartbeat IPC: 0.3901 cumulative IPC: 0.3299 (Simulation time: 05 hr 09 min 43 sec)
[ERROR_CYCLE] Error added at CPU cycle 3890220097, interval 151, pending count: 1
[DRAM_CYCLE_ERROR] Cycle-based error applied! address=0xda9abec80 additional_latency=173500 cycles
[ERROR_CYCLE] Error added at CPU cycle 3915983144, interval 152, pending count: 1
[DRAM_CYCLE_ERROR] Cycle-based error applied! address=0x1cdfe18280 additional_latency=173500 cycles
Heartbeat CPU 0 instructions: 1290000173 cycles: 3928820097 heartbeat IPC: 0.2057 cumulative IPC: 0.3283 (Simulation time: 05 hr 14 min 58 sec)
[ERROR_CYCLE] Error added at CPU cycle 3941746192, interval 153, pending count: 1
[DRAM_CYCLE_ERROR] Cycle-based error applied! address=0xf2ac548a0 additional_latency=173500 cycles
Heartbeat CPU 0 instructions: 1300000174 cycles: 3942346152 heartbeat IPC: 0.7393 cumulative IPC: 0.3298 (Simulation time: 05 hr 16 min 39 sec)
Heartbeat CPU 0 instructions: 1310000175 cycles: 3957645255 heartbeat IPC: 0.6536 cumulative IPC: 0.331 (Simulation time: 05 hr 18 min 31 sec)
[ERROR_CYCLE] Error added at CPU cycle 3967509238, interval 154, pending count: 1
[DRAM_CYCLE_ERROR] Cycle-based error applied! address=0x1b5b5cdab8 additional_latency=173500 cycles
Heartbeat CPU 0 instructions: 1320000178 cycles: 3970639865 heartbeat IPC: 0.7696 cumulative IPC: 0.3324 (Simulation time: 05 hr 20 min 13 sec)
[ERROR_CYCLE] Error added at CPU cycle 3993272285, interval 155, pending count: 1
[DRAM_CYCLE_ERROR] Cycle-based error applied! address=0x16cebea2e8 additional_latency=173500 cycles
Heartbeat CPU 0 instructions: 1330000178 cycles: 4002808052 heartbeat IPC: 0.3109 cumulative IPC: 0.3323 (Simulation time: 05 hr 23 min 41 sec)
[ERROR_CYCLE] Error added at CPU cycle 4019035333, interval 156, pending count: 1
[DRAM_CYCLE_ERROR] Cycle-based error applied! address=0x185fe517c8 additional_latency=173500 cycles
[ERROR_CYCLE] Error added at CPU cycle 4044798379, interval 157, pending count: 1
[DRAM_CYCLE_ERROR] Cycle-based error applied! address=0x1acb110290 additional_latency=173500 cycles
Heartbeat CPU 0 instructions: 1340000180 cycles: 4060745009 heartbeat IPC: 0.1726 cumulative IPC: 0.33 (Simulation time: 05 hr 29 min 34 sec)
[ERROR_CYCLE] Error added at CPU cycle 4070561426, interval 158, pending count: 1
[DRAM_CYCLE_ERROR] Cycle-based error applied! address=0x13fb8cc1b8 additional_latency=173500 cycles
[ERROR_CYCLE] Error added at CPU cycle 4096324474, interval 159, pending count: 1
[DRAM_CYCLE_ERROR] Cycle-based error applied! address=0xc04dc7150 additional_latency=173500 cycles
Heartbeat CPU 0 instructions: 1350000181 cycles: 4098493435 heartbeat IPC: 0.2649 cumulative IPC: 0.3294 (Simulation time: 05 hr 33 min 32 sec)
Heartbeat CPU 0 instructions: 1360000185 cycles: 4111867024 heartbeat IPC: 0.7477 cumulative IPC: 0.3308 (Simulation time: 05 hr 35 min 07 sec)
[ERROR_CYCLE] Error added at CPU cycle 4122087520, interval 160, pending count: 1
[DRAM_CYCLE_ERROR] Cycle-based error applied! address=0x1b3d60e8f8 additional_latency=173500 cycles
Heartbeat CPU 0 instructions: 1370000185 cycles: 4135624595 heartbeat IPC: 0.4209 cumulative IPC: 0.3313 (Simulation time: 05 hr 37 min 45 sec)
[ERROR_CYCLE] Error added at CPU cycle 4147850568, interval 161, pending count: 1
[DRAM_CYCLE_ERROR] Cycle-based error applied! address=0x1af8642580 additional_latency=173500 cycles
Heartbeat CPU 0 instructions: 1380000188 cycles: 4151943916 heartbeat IPC: 0.6128 cumulative IPC: 0.3324 (Simulation time: 05 hr 39 min 41 sec)
Heartbeat CPU 0 instructions: 1390000191 cycles: 4165346727 heartbeat IPC: 0.7461 cumulative IPC: 0.3337 (Simulation time: 05 hr 41 min 16 sec)
[ERROR_CYCLE] Error added at CPU cycle 4173613614, interval 162, pending count: 1
[DRAM_CYCLE_ERROR] Cycle-based error applied! address=0x6cf66498 additional_latency=173500 cycles
Heartbeat CPU 0 instructions: 1400000191 cycles: 4180054887 heartbeat IPC: 0.6799 cumulative IPC: 0.3349 (Simulation time: 05 hr 43 min 01 sec)
[ERROR_CYCLE] Error added at CPU cycle 4199376661, interval 163, pending count: 1
[DRAM_CYCLE_ERROR] Cycle-based error applied! address=0xe0f0c3140 additional_latency=173500 cycles
Heartbeat CPU 0 instructions: 1410000194 cycles: 4204062417 heartbeat IPC: 0.4165 cumulative IPC: 0.3354 (Simulation time: 05 hr 45 min 42 sec)
Heartbeat CPU 0 instructions: 1420000195 cycles: 4216191619 heartbeat IPC: 0.8245 cumulative IPC: 0.3368 (Simulation time: 05 hr 47 min 10 sec)
[ERROR_CYCLE] Error added at CPU cycle 4225139709, interval 164, pending count: 1
[DRAM_CYCLE_ERROR] Cycle-based error applied! address=0x7ac1850f0 additional_latency=173500 cycles
Heartbeat CPU 0 instructions: 1430000197 cycles: 4231133866 heartbeat IPC: 0.6692 cumulative IPC: 0.338 (Simulation time: 05 hr 48 min 56 sec)
[ERROR_CYCLE] Error added at CPU cycle 4250902755, interval 165, pending count: 1
[DRAM_CYCLE_ERROR] Cycle-based error applied! address=0xacf125cf8 additional_latency=173500 cycles
[ERROR_CYCLE] Error added at CPU cycle 4276665802, interval 166, pending count: 1
[DRAM_CYCLE_ERROR] Cycle-based error applied! address=0x1c68924ae0 additional_latency=173500 cycles
Heartbeat CPU 0 instructions: 1440000199 cycles: 4276885221 heartbeat IPC: 0.2186 cumulative IPC: 0.3367 (Simulation time: 05 hr 53 min 32 sec)
Heartbeat CPU 0 instructions: 1450000200 cycles: 4300783011 heartbeat IPC: 0.4184 cumulative IPC: 0.3371 (Simulation time: 05 hr 56 min 10 sec)
[ERROR_CYCLE] Error added at CPU cycle 4302428850, interval 167, pending count: 1
[DRAM_CYCLE_ERROR] Cycle-based error applied! address=0xddb084aa0 additional_latency=173500 cycles
Heartbeat CPU 0 instructions: 1460000200 cycles: 4315303130 heartbeat IPC: 0.6887 cumulative IPC: 0.3383 (Simulation time: 05 hr 57 min 54 sec)
[ERROR_CYCLE] Error added at CPU cycle 4328191896, interval 168, pending count: 1
[DRAM_CYCLE_ERROR] Cycle-based error applied! address=0xbfdd0c760 additional_latency=173500 cycles
Heartbeat CPU 0 instructions: 1470000204 cycles: 4330387849 heartbeat IPC: 0.6629 cumulative IPC: 0.3395 (Simulation time: 05 hr 59 min 41 sec)
Heartbeat CPU 0 instructions: 1480000204 cycles: 4347148578 heartbeat IPC: 0.5966 cumulative IPC: 0.3405 (Simulation time: 06 hr 01 min 37 sec)
[ERROR_CYCLE] Error added at CPU cycle 4353954943, interval 169, pending count: 1
[DRAM_CYCLE_ERROR] Cycle-based error applied! address=0x1412ddf730 additional_latency=173500 cycles
[ERROR_CYCLE] Error added at CPU cycle 4379717991, interval 170, pending count: 1
[DRAM_CYCLE_ERROR] Cycle-based error applied! address=0xaa02cfe00 additional_latency=173500 cycles
Heartbeat CPU 0 instructions: 1490000204 cycles: 4397142631 heartbeat IPC: 0.2 cumulative IPC: 0.3389 (Simulation time: 06 hr 06 min 35 sec)
[ERROR_CYCLE] Error added at CPU cycle 4405481037, interval 171, pending count: 1
[DRAM_CYCLE_ERROR] Cycle-based error applied! address=0x172d7f9c68 additional_latency=173500 cycles
Heartbeat CPU 0 instructions: 1500000205 cycles: 4412076917 heartbeat IPC: 0.6696 cumulative IPC: 0.34 (Simulation time: 06 hr 08 min 19 sec)
Heartbeat CPU 0 instructions: 1510000205 cycles: 4425860026 heartbeat IPC: 0.7255 cumulative IPC: 0.3412 (Simulation time: 06 hr 09 min 58 sec)
[ERROR_CYCLE] Error added at CPU cycle 4431244085, interval 172, pending count: 1
[DRAM_CYCLE_ERROR] Cycle-based error applied! address=0x17a6574718 additional_latency=173500 cycles
Heartbeat CPU 0 instructions: 1520000205 cycles: 4441798441 heartbeat IPC: 0.6274 cumulative IPC: 0.3422 (Simulation time: 06 hr 11 min 50 sec)
[ERROR_CYCLE] Error added at CPU cycle 4457007132, interval 173, pending count: 1
[DRAM_CYCLE_ERROR] Cycle-based error applied! address=0x13ba204000 additional_latency=173500 cycles
Heartbeat CPU 0 instructions: 1530000205 cycles: 4482481702 heartbeat IPC: 0.2458 cumulative IPC: 0.3413 (Simulation time: 06 hr 15 min 54 sec)
[ERROR_CYCLE] Error added at CPU cycle 4482770178, interval 174, pending count: 1
[DRAM_CYCLE_ERROR] Cycle-based error applied! address=0x462ca2bb8 additional_latency=173500 cycles
[ERROR_CYCLE] Error added at CPU cycle 4508533226, interval 175, pending count: 1
[DRAM_CYCLE_ERROR] Cycle-based error applied! address=0xd5e2f4a18 additional_latency=173500 cycles
Heartbeat CPU 0 instructions: 1540000205 cycles: 4532619706 heartbeat IPC: 0.1994 cumulative IPC: 0.3398 (Simulation time: 06 hr 20 min 50 sec)
[ERROR_CYCLE] Error added at CPU cycle 4534296272, interval 176, pending count: 1
[DRAM_CYCLE_ERROR] Cycle-based error applied! address=0x1e46cddb78 additional_latency=173500 cycles
[ERROR_CYCLE] Error added at CPU cycle 4560059319, interval 177, pending count: 1
[DRAM_CYCLE_ERROR] Cycle-based error applied! address=0xcc5c93e0 additional_latency=173500 cycles
Heartbeat CPU 0 instructions: 1550000206 cycles: 4583398687 heartbeat IPC: 0.1969 cumulative IPC: 0.3382 (Simulation time: 06 hr 25 min 48 sec)
[ERROR_CYCLE] Error added at CPU cycle 4585822367, interval 178, pending count: 1
[DRAM_CYCLE_ERROR] Cycle-based error applied! address=0x172079aff8 additional_latency=173500 cycles
[ERROR_CYCLE] Error added at CPU cycle 4611585413, interval 179, pending count: 1
[DRAM_CYCLE_ERROR] Cycle-based error applied! address=0x4642c2f78 additional_latency=173500 cycles
Heartbeat CPU 0 instructions: 1560000210 cycles: 4633554061 heartbeat IPC: 0.1994 cumulative IPC: 0.3367 (Simulation time: 06 hr 30 min 42 sec)
[ERROR_CYCLE] Error added at CPU cycle 4637348460, interval 180, pending count: 1
[DRAM_CYCLE_ERROR] Cycle-based error applied! address=0x2c2f8b488 additional_latency=173500 cycles
[ERROR_CYCLE] Error added at CPU cycle 4663111508, interval 181, pending count: 1
[DRAM_CYCLE_ERROR] Cycle-based error applied! address=0x13f3f31e60 additional_latency=173500 cycles
Heartbeat CPU 0 instructions: 1570000210 cycles: 4686954380 heartbeat IPC: 0.1873 cumulative IPC: 0.335 (Simulation time: 06 hr 35 min 55 sec)
[ERROR_CYCLE] Error added at CPU cycle 4688874554, interval 182, pending count: 1
[DRAM_CYCLE_ERROR] Cycle-based error applied! address=0xe1acd17f8 additional_latency=173500 cycles
[ERROR_CYCLE] Error added at CPU cycle 4714637601, interval 183, pending count: 1
[DRAM_CYCLE_ERROR] Cycle-based error applied! address=0xcbce7b588 additional_latency=173500 cycles
[ERROR_CYCLE] Error added at CPU cycle 4740400649, interval 184, pending count: 1
[DRAM_CYCLE_ERROR] Cycle-based error applied! address=0x11c033d5e8 additional_latency=173500 cycles
Heartbeat CPU 0 instructions: 1580000212 cycles: 4756336365 heartbeat IPC: 0.1441 cumulative IPC: 0.3322 (Simulation time: 06 hr 42 min 28 sec)
[ERROR_CYCLE] Error added at CPU cycle 4766163695, interval 185, pending count: 1
[DRAM_CYCLE_ERROR] Cycle-based error applied! address=0x475879630 additional_latency=173500 cycles
[ERROR_CYCLE] Error added at CPU cycle 4791926743, interval 186, pending count: 1
[DRAM_CYCLE_ERROR] Cycle-based error applied! address=0x1383a48938 additional_latency=173500 cycles
[ERROR_CYCLE] Error added at CPU cycle 4817689789, interval 187, pending count: 1
[DRAM_CYCLE_ERROR] Cycle-based error applied! address=0xedf403738 additional_latency=173500 cycles
Heartbeat CPU 0 instructions: 1590000216 cycles: 4827859033 heartbeat IPC: 0.1398 cumulative IPC: 0.3293 (Simulation time: 06 hr 49 min 10 sec)
[ERROR_CYCLE] Error added at CPU cycle 4843452836, interval 188, pending count: 1
[DRAM_CYCLE_ERROR] Cycle-based error applied! address=0x16bdb5d900 additional_latency=173500 cycles
[ERROR_CYCLE] Error added at CPU cycle 4869215884, interval 189, pending count: 1
[DRAM_CYCLE_ERROR] Cycle-based error applied! address=0x132c87c50 additional_latency=173500 cycles
Heartbeat CPU 0 instructions: 1600000218 cycles: 4880796424 heartbeat IPC: 0.1889 cumulative IPC: 0.3278 (Simulation time: 06 hr 54 min 28 sec)
[ERROR_CYCLE] Error added at CPU cycle 4894978930, interval 190, pending count: 1
[DRAM_CYCLE_ERROR] Cycle-based error applied! address=0xc7f873ce0 additional_latency=173500 cycles
Heartbeat CPU 0 instructions: 1610000218 cycles: 4898035149 heartbeat IPC: 0.5801 cumulative IPC: 0.3287 (Simulation time: 06 hr 56 min 26 sec)
Heartbeat CPU 0 instructions: 1620000222 cycles: 4910946588 heartbeat IPC: 0.7745 cumulative IPC: 0.3299 (Simulation time: 06 hr 57 min 57 sec)
[ERROR_CYCLE] Error added at CPU cycle 4920741977, interval 191, pending count: 1
[DRAM_CYCLE_ERROR] Cycle-based error applied! address=0xdb6fa7fa0 additional_latency=173500 cycles
Heartbeat CPU 0 instructions: 1630000223 cycles: 4940833406 heartbeat IPC: 0.3346 cumulative IPC: 0.3299 (Simulation time: 07 hr 01 min 02 sec)
[ERROR_CYCLE] Error added at CPU cycle 4946505025, interval 192, pending count: 1
[DRAM_CYCLE_ERROR] Cycle-based error applied! address=0x14ebf4adf0 additional_latency=173500 cycles
Heartbeat CPU 0 instructions: 1640000224 cycles: 4959605942 heartbeat IPC: 0.5327 cumulative IPC: 0.3307 (Simulation time: 07 hr 03 min 10 sec)
[ERROR_CYCLE] Error added at CPU cycle 4972268071, interval 193, pending count: 1
[DRAM_CYCLE_ERROR] Cycle-based error applied! address=0x9f6c8c010 additional_latency=173500 cycles
Heartbeat CPU 0 instructions: 1650000228 cycles: 4976901855 heartbeat IPC: 0.5782 cumulative IPC: 0.3315 (Simulation time: 07 hr 05 min 03 sec)
Heartbeat CPU 0 instructions: 1660000230 cycles: 4996837850 heartbeat IPC: 0.5016 cumulative IPC: 0.3322 (Simulation time: 07 hr 07 min 08 sec)
[ERROR_CYCLE] Error added at CPU cycle 4998031118, interval 194, pending count: 1
[DRAM_CYCLE_ERROR] Cycle-based error applied! address=0x1aa3e7adf8 additional_latency=173500 cycles
[ERROR_CYCLE] Error added at CPU cycle 5023794166, interval 195, pending count: 1
[DRAM_CYCLE_ERROR] Cycle-based error applied! address=0x19c3d6ff90 additional_latency=173500 cycles
Heartbeat CPU 0 instructions: 1670000231 cycles: 5040888523 heartbeat IPC: 0.227 cumulative IPC: 0.3313 (Simulation time: 07 hr 11 min 24 sec)
[ERROR_CYCLE] Error added at CPU cycle 5049557212, interval 196, pending count: 1
[DRAM_CYCLE_ERROR] Cycle-based error applied! address=0x380bf5840 additional_latency=173500 cycles
[ERROR_CYCLE] Error added at CPU cycle 5075320260, interval 197, pending count: 1
[DRAM_CYCLE_ERROR] Cycle-based error applied! address=0x54e62d388 additional_latency=173500 cycles
Heartbeat CPU 0 instructions: 1680000231 cycles: 5079976638 heartbeat IPC: 0.2558 cumulative IPC: 0.3307 (Simulation time: 07 hr 15 min 25 sec)
Heartbeat CPU 0 instructions: 1690000231 cycles: 5090810852 heartbeat IPC: 0.923 cumulative IPC: 0.332 (Simulation time: 07 hr 16 min 40 sec)
[ERROR_CYCLE] Error added at CPU cycle 5101083307, interval 198, pending count: 1
[DRAM_CYCLE_ERROR] Cycle-based error applied! address=0xe475b3d40 additional_latency=173500 cycles
Heartbeat CPU 0 instructions: 1700000232 cycles: 5110299074 heartbeat IPC: 0.5131 cumulative IPC: 0.3327 (Simulation time: 07 hr 18 min 49 sec)
[ERROR_CYCLE] Error added at CPU cycle 5126846353, interval 199, pending count: 1
[DRAM_CYCLE_ERROR] Cycle-based error applied! address=0x1ed28c6fa8 additional_latency=173500 cycles
Heartbeat CPU 0 instructions: 1710000236 cycles: 5129569418 heartbeat IPC: 0.5189 cumulative IPC: 0.3334 (Simulation time: 07 hr 20 min 57 sec)
Heartbeat CPU 0 instructions: 1720000238 cycles: 5146342218 heartbeat IPC: 0.5962 cumulative IPC: 0.3342 (Simulation time: 07 hr 22 min 51 sec)
[ERROR_CYCLE] Error added at CPU cycle 5152609401, interval 200, pending count: 1
[DRAM_CYCLE_ERROR] Cycle-based error applied! address=0x16b940d780 additional_latency=173500 cycles
Heartbeat CPU 0 instructions: 1730000238 cycles: 5159036070 heartbeat IPC: 0.7878 cumulative IPC: 0.3353 (Simulation time: 07 hr 24 min 21 sec)
[ERROR_CYCLE] Error added at CPU cycle 5178372447, interval 201, pending count: 1
[DRAM_CYCLE_ERROR] Cycle-based error applied! address=0x1832c47200 additional_latency=173500 cycles
Heartbeat CPU 0 instructions: 1740000240 cycles: 5189893732 heartbeat IPC: 0.3241 cumulative IPC: 0.3353 (Simulation time: 07 hr 27 min 32 sec)
Heartbeat CPU 0 instructions: 1750000242 cycles: 5203508367 heartbeat IPC: 0.7345 cumulative IPC: 0.3363 (Simulation time: 07 hr 29 min 08 sec)
[ERROR_CYCLE] Error added at CPU cycle 5204135494, interval 202, pending count: 1
[DRAM_CYCLE_ERROR] Cycle-based error applied! address=0x18caba4d70 additional_latency=173500 cycles
[ERROR_CYCLE] Error added at CPU cycle 5229898542, interval 203, pending count: 1
[DRAM_CYCLE_ERROR] Cycle-based error applied! address=0x378386990 additional_latency=173500 cycles
Heartbeat CPU 0 instructions: 1760000244 cycles: 5230233758 heartbeat IPC: 0.3742 cumulative IPC: 0.3365 (Simulation time: 07 hr 31 min 57 sec)
Heartbeat CPU 0 instructions: 1770000244 cycles: 5247685629 heartbeat IPC: 0.573 cumulative IPC: 0.3373 (Simulation time: 07 hr 33 min 54 sec)
[ERROR_CYCLE] Error added at CPU cycle 5255661588, interval 204, pending count: 1
[DRAM_CYCLE_ERROR] Cycle-based error applied! address=0x7eaa770 additional_latency=173500 cycles
Heartbeat CPU 0 instructions: 1780000245 cycles: 5278508570 heartbeat IPC: 0.3244 cumulative IPC: 0.3372 (Simulation time: 07 hr 37 min 02 sec)
[ERROR_CYCLE] Error added at CPU cycle 5281424635, interval 205, pending count: 1
[DRAM_CYCLE_ERROR] Cycle-based error applied! address=0x1ca3d9d5e8 additional_latency=173500 cycles
[ERROR_CYCLE] Error added at CPU cycle 5307187683, interval 206, pending count: 1
[DRAM_CYCLE_ERROR] Cycle-based error applied! address=0x16a459af08 additional_latency=173500 cycles
[ERROR_CYCLE] Error added at CPU cycle 5332950729, interval 207, pending count: 1
[DRAM_CYCLE_ERROR] Cycle-based error applied! address=0xd2370e478 additional_latency=173500 cycles
Heartbeat CPU 0 instructions: 1790000248 cycles: 5349163556 heartbeat IPC: 0.1415 cumulative IPC: 0.3346 (Simulation time: 07 hr 43 min 41 sec)
[ERROR_CYCLE] Error added at CPU cycle 5358713776, interval 208, pending count: 1
[DRAM_CYCLE_ERROR] Cycle-based error applied! address=0x1de70c87c0 additional_latency=173500 cycles
[ERROR_CYCLE] Error added at CPU cycle 5384476824, interval 209, pending count: 1
[DRAM_CYCLE_ERROR] Cycle-based error applied! address=0x138d7bc498 additional_latency=173500 cycles
Heartbeat CPU 0 instructions: 1800000249 cycles: 5385382427 heartbeat IPC: 0.2761 cumulative IPC: 0.3342 (Simulation time: 07 hr 47 min 25 sec)
Heartbeat CPU 0 instructions: 1810000250 cycles: 5399258204 heartbeat IPC: 0.7207 cumulative IPC: 0.3352 (Simulation time: 07 hr 49 min 02 sec)
[ERROR_CYCLE] Error added at CPU cycle 5410239870, interval 210, pending count: 1
[DRAM_CYCLE_ERROR] Cycle-based error applied! address=0x2dff0b8f0 additional_latency=173500 cycles
Heartbeat CPU 0 instructions: 1820000254 cycles: 5432970000 heartbeat IPC: 0.2966 cumulative IPC: 0.335 (Simulation time: 07 hr 52 min 36 sec)
[ERROR_CYCLE] Error added at CPU cycle 5436002918, interval 211, pending count: 1
[DRAM_CYCLE_ERROR] Cycle-based error applied! address=0x7803055d8 additional_latency=173500 cycles
Heartbeat CPU 0 instructions: 1830000257 cycles: 5446921411 heartbeat IPC: 0.7168 cumulative IPC: 0.336 (Simulation time: 07 hr 54 min 15 sec)
Heartbeat CPU 0 instructions: 1840000258 cycles: 5456468903 heartbeat IPC: 1.047 cumulative IPC: 0.3372 (Simulation time: 07 hr 55 min 28 sec)
[ERROR_CYCLE] Error added at CPU cycle 5461765964, interval 212, pending count: 1
[DRAM_CYCLE_ERROR] Cycle-based error applied! address=0x1dfc8cdcc0 additional_latency=173500 cycles
Heartbeat CPU 0 instructions: 1850000262 cycles: 5473343123 heartbeat IPC: 0.5926 cumulative IPC: 0.338 (Simulation time: 07 hr 57 min 24 sec)
[ERROR_CYCLE] Error added at CPU cycle 5487529011, interval 213, pending count: 1
[DRAM_CYCLE_ERROR] Cycle-based error applied! address=0x1e94bf0cb8 additional_latency=173500 cycles
Heartbeat CPU 0 instructions: 1860000262 cycles: 5499272832 heartbeat IPC: 0.3857 cumulative IPC: 0.3382 (Simulation time: 08 hr 00 min 12 sec)
[ERROR_CYCLE] Error added at CPU cycle 5513292059, interval 214, pending count: 1
[DRAM_CYCLE_ERROR] Cycle-based error applied! address=0xce0870f68 additional_latency=173500 cycles
Heartbeat CPU 0 instructions: 1870000262 cycles: 5525730519 heartbeat IPC: 0.378 cumulative IPC: 0.3384 (Simulation time: 08 hr 02 min 57 sec)
Heartbeat CPU 0 instructions: 1880000265 cycles: 5538784676 heartbeat IPC: 0.766 cumulative IPC: 0.3394 (Simulation time: 08 hr 04 min 31 sec)
[ERROR_CYCLE] Error added at CPU cycle 5539055105, interval 215, pending count: 1
[DRAM_CYCLE_ERROR] Cycle-based error applied! address=0x156213cde0 additional_latency=173500 cycles
Heartbeat CPU 0 instructions: 1890000265 cycles: 5564193515 heartbeat IPC: 0.3936 cumulative IPC: 0.3397 (Simulation time: 08 hr 07 min 17 sec)
[ERROR_CYCLE] Error added at CPU cycle 5564818152, interval 216, pending count: 1
[DRAM_CYCLE_ERROR] Cycle-based error applied! address=0x2e0b09248 additional_latency=173500 cycles
Heartbeat CPU 0 instructions: 1900000266 cycles: 5575891191 heartbeat IPC: 0.8549 cumulative IPC: 0.3408 (Simulation time: 08 hr 08 min 42 sec)
Heartbeat CPU 0 instructions: 1910000266 cycles: 5589905915 heartbeat IPC: 0.7135 cumulative IPC: 0.3417 (Simulation time: 08 hr 10 min 20 sec)
[ERROR_CYCLE] Error added at CPU cycle 5590581200, interval 217, pending count: 1
[DRAM_CYCLE_ERROR] Cycle-based error applied! address=0xa606cef88 additional_latency=173500 cycles
Heartbeat CPU 0 instructions: 1920000266 cycles: 5601609684 heartbeat IPC: 0.8544 cumulative IPC: 0.3428 (Simulation time: 08 hr 11 min 46 sec)
[ERROR_CYCLE] Error added at CPU cycle 5616344246, interval 218, pending count: 1
[DRAM_CYCLE_ERROR] Cycle-based error applied! address=0x4203b4838 additional_latency=173500 cycles
Heartbeat CPU 0 instructions: 1930000266 cycles: 5626521460 heartbeat IPC: 0.4014 cumulative IPC: 0.343 (Simulation time: 08 hr 14 min 16 sec)
Heartbeat CPU 0 instructions: 1940000267 cycles: 5640687288 heartbeat IPC: 0.7059 cumulative IPC: 0.3439 (Simulation time: 08 hr 15 min 37 sec)
[ERROR_CYCLE] Error added at CPU cycle 5642107293, interval 219, pending count: 1
[DRAM_CYCLE_ERROR] Cycle-based error applied! address=0x1529eefeb8 additional_latency=173500 cycles
Heartbeat CPU 0 instructions: 1950000268 cycles: 5661848955 heartbeat IPC: 0.4726 cumulative IPC: 0.3444 (Simulation time: 08 hr 17 min 49 sec)
[ERROR_CYCLE] Error added at CPU cycle 5667870341, interval 220, pending count: 1
[DRAM_CYCLE_ERROR] Cycle-based error applied! address=0xdab9bd3d8 additional_latency=173500 cycles
Heartbeat CPU 0 instructions: 1960000268 cycles: 5676532980 heartbeat IPC: 0.681 cumulative IPC: 0.3453 (Simulation time: 08 hr 19 min 13 sec)
[ERROR_CYCLE] Error added at CPU cycle 5693633387, interval 221, pending count: 1
[DRAM_CYCLE_ERROR] Cycle-based error applied! address=0x1dab970828 additional_latency=173500 cycles
Heartbeat CPU 0 instructions: 1970000269 cycles: 5709363433 heartbeat IPC: 0.3046 cumulative IPC: 0.345 (Simulation time: 08 hr 21 min 55 sec)
[ERROR_CYCLE] Error added at CPU cycle 5719396435, interval 222, pending count: 1
[DRAM_CYCLE_ERROR] Cycle-based error applied! address=0xf817d8228 additional_latency=173500 cycles
[ERROR_CYCLE] Error added at CPU cycle 5745159481, interval 223, pending count: 1
[DRAM_CYCLE_ERROR] Cycle-based error applied! address=0x12f7110a00 additional_latency=173500 cycles
Heartbeat CPU 0 instructions: 1980000269 cycles: 5770550374 heartbeat IPC: 0.1634 cumulative IPC: 0.3431 (Simulation time: 08 hr 27 min 20 sec)
[ERROR_CYCLE] Error added at CPU cycle 5770922528, interval 224, pending count: 1
[DRAM_CYCLE_ERROR] Cycle-based error applied! address=0xee0352b8 additional_latency=173500 cycles
[ERROR_CYCLE] Error added at CPU cycle 5796685576, interval 225, pending count: 1
[DRAM_CYCLE_ERROR] Cycle-based error applied! address=0x140c750e38 additional_latency=173500 cycles
[ERROR_CYCLE] Error added at CPU cycle 5822448622, interval 226, pending count: 1
[DRAM_CYCLE_ERROR] Cycle-based error applied! address=0x1aaee6b60 additional_latency=173500 cycles
Heartbeat CPU 0 instructions: 1990000270 cycles: 5831758813 heartbeat IPC: 0.1634 cumulative IPC: 0.3412 (Simulation time: 08 hr 32 min 34 sec)
[ERROR_CYCLE] Error added at CPU cycle 5848211669, interval 227, pending count: 1
[DRAM_CYCLE_ERROR] Cycle-based error applied! address=0x568cc04f0 additional_latency=173500 cycles
[ERROR_CYCLE] Error added at CPU cycle 5873974717, interval 228, pending count: 1
[DRAM_CYCLE_ERROR] Cycle-based error applied! address=0x1ea1f9ac08 additional_latency=173500 cycles

=== ERROR PAGE STATISTICS ===
Mode: CYCLE
Error Cycle Interval: 25763047 CPU cycles
Total Error Accesses: 228
==============================
Simulation finished CPU 0 instructions: 1999999938 cycles: 5890022300 cumulative IPC: 0.3396 (Simulation time: 08 hr 37 min 34 sec)
Simulation complete CPU 0 instructions: 1999999938 cycles: 5890022300 cumulative IPC: 0.3396 (Simulation time: 08 hr 37 min 34 sec)

ChampSim completed all CPUs

=== Simulation ===
CPU 0 runs test_traces/605.mcf_s-994B.champsimtrace.xz

Region of Interest Statistics

CPU 0 cumulative IPC: 0.3396 instructions: 1999999938 cycles: 5890022300
CPU 0 Branch Prediction Accuracy: 92.62% MPKI: 18.99 Average ROB Occupancy at Mispredict: 34.58
Branch type MPKI
BRANCH_DIRECT_JUMP: 0.123
BRANCH_INDIRECT: 0
BRANCH_CONDITIONAL: 18.86
BRANCH_DIRECT_CALL: 6.5e-06
BRANCH_INDIRECT_CALL: 0.0004185
BRANCH_RETURN: 1e-05

cpu0->cpu0_STLB TOTAL        ACCESS:   24265386 HIT:   11227773 MISS:   13037613 MSHR_MERGE:          0
cpu0->cpu0_STLB LOAD         ACCESS:   24265386 HIT:   11227773 MISS:   13037613 MSHR_MERGE:          0
cpu0->cpu0_STLB RFO          ACCESS:          0 HIT:          0 MISS:          0 MSHR_MERGE:          0
cpu0->cpu0_STLB PREFETCH     ACCESS:          0 HIT:          0 MISS:          0 MSHR_MERGE:          0
cpu0->cpu0_STLB WRITE        ACCESS:          0 HIT:          0 MISS:          0 MSHR_MERGE:          0
cpu0->cpu0_STLB TRANSLATION  ACCESS:          0 HIT:          0 MISS:          0 MSHR_MERGE:          0
cpu0->cpu0_STLB PREFETCH REQUESTED:          0 ISSUED:          0 USEFUL:          0 USELESS:          0
cpu0->cpu0_STLB AVERAGE MISS LATENCY: 241.5 cycles
cpu0->cpu0_L2C TOTAL        ACCESS:   81182048 HIT:   27438369 MISS:   53743679 MSHR_MERGE:          0
cpu0->cpu0_L2C LOAD         ACCESS:   75044093 HIT:   21366579 MISS:   53677514 MSHR_MERGE:          0
cpu0->cpu0_L2C RFO          ACCESS:     492942 HIT:     431172 MISS:      61770 MSHR_MERGE:          0
cpu0->cpu0_L2C PREFETCH     ACCESS:          0 HIT:          0 MISS:          0 MSHR_MERGE:          0
cpu0->cpu0_L2C WRITE        ACCESS:    5645013 HIT:    5640618 MISS:       4395 MSHR_MERGE:          0
cpu0->cpu0_L2C TRANSLATION  ACCESS:          0 HIT:          0 MISS:          0 MSHR_MERGE:          0
cpu0->cpu0_L2C PREFETCH REQUESTED:          0 ISSUED:          0 USEFUL:          0 USELESS:          0
cpu0->cpu0_L2C AVERAGE MISS LATENCY: 95.12 cycles
cpu0->cpu0_L1I TOTAL        ACCESS:    3226537 HIT:    3226445 MISS:         92 MSHR_MERGE:         26
cpu0->cpu0_L1I LOAD         ACCESS:    3226537 HIT:    3226445 MISS:         92 MSHR_MERGE:         26
cpu0->cpu0_L1I RFO          ACCESS:          0 HIT:          0 MISS:          0 MSHR_MERGE:          0
cpu0->cpu0_L1I PREFETCH     ACCESS:          0 HIT:          0 MISS:          0 MSHR_MERGE:          0
cpu0->cpu0_L1I WRITE        ACCESS:          0 HIT:          0 MISS:          0 MSHR_MERGE:          0
cpu0->cpu0_L1I TRANSLATION  ACCESS:          0 HIT:          0 MISS:          0 MSHR_MERGE:          0
cpu0->cpu0_L1I PREFETCH REQUESTED:          0 ISSUED:          0 USEFUL:          0 USELESS:          0
cpu0->cpu0_L1I AVERAGE MISS LATENCY: 123.5 cycles
cpu0->cpu0_L1D TOTAL        ACCESS:  806972264 HIT:  724733970 MISS:   82238294 MSHR_MERGE:    6700648
cpu0->cpu0_L1D LOAD         ACCESS:  606390636 HIT:  525536326 MISS:   80854310 MSHR_MERGE:    5810262
cpu0->cpu0_L1D RFO          ACCESS:          0 HIT:          0 MISS:          0 MSHR_MERGE:          0
cpu0->cpu0_L1D PREFETCH     ACCESS:          0 HIT:          0 MISS:          0 MSHR_MERGE:          0
cpu0->cpu0_L1D WRITE        ACCESS:  200581628 HIT:  199197644 MISS:    1383984 MSHR_MERGE:     890386
cpu0->cpu0_L1D TRANSLATION  ACCESS:          0 HIT:          0 MISS:          0 MSHR_MERGE:          0
cpu0->cpu0_L1D PREFETCH REQUESTED:          0 ISSUED:          0 USEFUL:          0 USELESS:          0
cpu0->cpu0_L1D AVERAGE MISS LATENCY: 76.59 cycles
cpu0->cpu0_ITLB TOTAL        ACCESS:    3076200 HIT:    3076193 MISS:          7 MSHR_MERGE:          1
cpu0->cpu0_ITLB LOAD         ACCESS:    3076200 HIT:    3076193 MISS:          7 MSHR_MERGE:          1
cpu0->cpu0_ITLB RFO          ACCESS:          0 HIT:          0 MISS:          0 MSHR_MERGE:          0
cpu0->cpu0_ITLB PREFETCH     ACCESS:          0 HIT:          0 MISS:          0 MSHR_MERGE:          0
cpu0->cpu0_ITLB WRITE        ACCESS:          0 HIT:          0 MISS:          0 MSHR_MERGE:          0
cpu0->cpu0_ITLB TRANSLATION  ACCESS:          0 HIT:          0 MISS:          0 MSHR_MERGE:          0
cpu0->cpu0_ITLB PREFETCH REQUESTED:          0 ISSUED:          0 USEFUL:          0 USELESS:          0
cpu0->cpu0_ITLB AVERAGE MISS LATENCY: 684.7 cycles
cpu0->cpu0_DTLB TOTAL        ACCESS:  721868971 HIT:  688505150 MISS:   33363821 MSHR_MERGE:    9098441
cpu0->cpu0_DTLB LOAD         ACCESS:  721868971 HIT:  688505150 MISS:   33363821 MSHR_MERGE:    9098441
cpu0->cpu0_DTLB RFO          ACCESS:          0 HIT:          0 MISS:          0 MSHR_MERGE:          0
cpu0->cpu0_DTLB PREFETCH     ACCESS:          0 HIT:          0 MISS:          0 MSHR_MERGE:          0
cpu0->cpu0_DTLB WRITE        ACCESS:          0 HIT:          0 MISS:          0 MSHR_MERGE:          0
cpu0->cpu0_DTLB TRANSLATION  ACCESS:          0 HIT:          0 MISS:          0 MSHR_MERGE:          0
cpu0->cpu0_DTLB PREFETCH REQUESTED:          0 ISSUED:          0 USEFUL:          0 USELESS:          0
cpu0->cpu0_DTLB AVERAGE MISS LATENCY: 135.3 cycles
cpu0->LLC TOTAL        ACCESS:   57704649 HIT:   16607035 MISS:   41097614 MSHR_MERGE:          0
cpu0->LLC LOAD         ACCESS:   53677513 HIT:   12599593 MISS:   41077920 MSHR_MERGE:          0
cpu0->LLC RFO          ACCESS:      61770 HIT:      43327 MISS:      18443 MSHR_MERGE:          0
cpu0->LLC PREFETCH     ACCESS:          0 HIT:          0 MISS:          0 MSHR_MERGE:          0
cpu0->LLC WRITE        ACCESS:    3965366 HIT:    3964115 MISS:       1251 MSHR_MERGE:          0
cpu0->LLC TRANSLATION  ACCESS:          0 HIT:          0 MISS:          0 MSHR_MERGE:          0
cpu0->LLC PREFETCH REQUESTED:          0 ISSUED:          0 USEFUL:          0 USELESS:          0
cpu0->LLC AVERAGE MISS LATENCY: 103.8 cycles

DRAM Statistics

Channel 0 RQ ROW_BUFFER_HIT:     485955
  ROW_BUFFER_MISS:   36427187
  AVG DBUS CONGESTED CYCLE: 9.41
Channel 0 WQ ROW_BUFFER_HIT:     379923
  ROW_BUFFER_MISS:    1199894
  FULL:          0
Channel 0 REFRESHES ISSUED:     490803

Channel 1 RQ ROW_BUFFER_HIT:     493196
  ROW_BUFFER_MISS:   35923733
  AVG DBUS CONGESTED CYCLE: 9.429
Channel 1 WQ ROW_BUFFER_HIT:     377963
  ROW_BUFFER_MISS:    1201938
  FULL:          0
Channel 1 REFRESHES ISSUED:     490803
