[VMEM] WARNING: physical memory size is smaller than virtual memory size.

*** ChampSim Multicore Out-of-Order Simulator ***
Warmup Instructions: 0
Simulation Instructions: 9223372036854775807
Number of CPUs: 1
Page size: 4096

Off-chip DRAM Size: 64 GiB Channels: 2 Width: 32-bit Data Rate: 4807 MT/s
[ERROR_PAGE_MANAGER] Error latency: 173500 
[ERROR_PAGE_MANAGER] Random seed: 54321 (fixed for preload reproducibility)
[ERROR_PAGE_MANAGER] Cycle-based error modeling enabled
[ERROR_PAGE_MANAGER] Errors per interval: 1
[ERROR_PAGE_MANAGER] Error cycle interval: 464841614 cycles

=== ERROR PAGE STATISTICS ===
Mode: CYCLE
Error Cycle Interval: 464841614 CPU cycles
Total Error Accesses: 0
==============================
Warmup finished CPU 0 instructions: 0 cycles: 1 cumulative IPC: 0 (Simulation time: 00 hr 00 min 01 sec)
Warmup complete CPU 0 instructions: 0 cycles: 1 cumulative IPC: 0 (Simulation time: 00 hr 00 min 01 sec)
Heartbeat CPU 0 instructions: 10000001 cycles: 16972260 heartbeat IPC: 0.5892 cumulative IPC: 0.5892 (Simulation time: 00 hr 01 min 53 sec)
Heartbeat CPU 0 instructions: 20000002 cycles: 39125876 heartbeat IPC: 0.4514 cumulative IPC: 0.5112 (Simulation time: 00 hr 04 min 14 sec)
Heartbeat CPU 0 instructions: 30000002 cycles: 65027230 heartbeat IPC: 0.3861 cumulative IPC: 0.4613 (Simulation time: 00 hr 06 min 26 sec)
Heartbeat CPU 0 instructions: 40000005 cycles: 82600390 heartbeat IPC: 0.569 cumulative IPC: 0.4843 (Simulation time: 00 hr 07 min 45 sec)
Heartbeat CPU 0 instructions: 50000005 cycles: 162786466 heartbeat IPC: 0.1247 cumulative IPC: 0.3072 (Simulation time: 00 hr 13 min 32 sec)
Heartbeat CPU 0 instructions: 60000005 cycles: 188854255 heartbeat IPC: 0.3836 cumulative IPC: 0.3177 (Simulation time: 00 hr 16 min 15 sec)
Heartbeat CPU 0 instructions: 70000005 cycles: 222529427 heartbeat IPC: 0.297 cumulative IPC: 0.3146 (Simulation time: 00 hr 19 min 29 sec)
Heartbeat CPU 0 instructions: 80000007 cycles: 241248429 heartbeat IPC: 0.5342 cumulative IPC: 0.3316 (Simulation time: 00 hr 21 min 16 sec)
Heartbeat CPU 0 instructions: 90000007 cycles: 257937518 heartbeat IPC: 0.5992 cumulative IPC: 0.3489 (Simulation time: 00 hr 23 min 08 sec)
Heartbeat CPU 0 instructions: 100000007 cycles: 273806385 heartbeat IPC: 0.6302 cumulative IPC: 0.3652 (Simulation time: 00 hr 24 min 52 sec)
Heartbeat CPU 0 instructions: 110000007 cycles: 311477158 heartbeat IPC: 0.2655 cumulative IPC: 0.3532 (Simulation time: 00 hr 28 min 36 sec)
Heartbeat CPU 0 instructions: 120000009 cycles: 338740721 heartbeat IPC: 0.3668 cumulative IPC: 0.3543 (Simulation time: 00 hr 30 min 35 sec)
Heartbeat CPU 0 instructions: 130000009 cycles: 362065433 heartbeat IPC: 0.4287 cumulative IPC: 0.3591 (Simulation time: 00 hr 32 min 50 sec)
Heartbeat CPU 0 instructions: 140000010 cycles: 394971868 heartbeat IPC: 0.3039 cumulative IPC: 0.3545 (Simulation time: 00 hr 36 min 09 sec)
Heartbeat CPU 0 instructions: 150000010 cycles: 445057157 heartbeat IPC: 0.1997 cumulative IPC: 0.337 (Simulation time: 00 hr 41 min 00 sec)
Heartbeat CPU 0 instructions: 160000012 cycles: 461423629 heartbeat IPC: 0.611 cumulative IPC: 0.3468 (Simulation time: 00 hr 42 min 50 sec)
[ERROR_CYCLE] Error added at CPU cycle 464841614, interval 1, pending count: 1
[DRAM_CYCLE_ERROR] Cycle-based error applied! address=0x9b89fedf8 additional_latency=173500 cycles
Heartbeat CPU 0 instructions: 170000016 cycles: 472007995 heartbeat IPC: 0.9448 cumulative IPC: 0.3602 (Simulation time: 00 hr 43 min 59 sec)
Heartbeat CPU 0 instructions: 180000016 cycles: 520168161 heartbeat IPC: 0.2076 cumulative IPC: 0.346 (Simulation time: 00 hr 47 min 30 sec)
Heartbeat CPU 0 instructions: 190000016 cycles: 531493280 heartbeat IPC: 0.883 cumulative IPC: 0.3575 (Simulation time: 00 hr 48 min 35 sec)
Heartbeat CPU 0 instructions: 200000017 cycles: 549767118 heartbeat IPC: 0.5472 cumulative IPC: 0.3638 (Simulation time: 00 hr 50 min 36 sec)
Heartbeat CPU 0 instructions: 210000017 cycles: 582061483 heartbeat IPC: 0.3097 cumulative IPC: 0.3608 (Simulation time: 00 hr 53 min 10 sec)
Heartbeat CPU 0 instructions: 220000019 cycles: 625458534 heartbeat IPC: 0.2304 cumulative IPC: 0.3517 (Simulation time: 00 hr 56 min 47 sec)
Heartbeat CPU 0 instructions: 230000019 cycles: 647040289 heartbeat IPC: 0.4634 cumulative IPC: 0.3555 (Simulation time: 00 hr 59 min 08 sec)
Heartbeat CPU 0 instructions: 240000020 cycles: 668483878 heartbeat IPC: 0.4663 cumulative IPC: 0.359 (Simulation time: 01 hr 01 min 31 sec)
Heartbeat CPU 0 instructions: 250000020 cycles: 680541617 heartbeat IPC: 0.8293 cumulative IPC: 0.3674 (Simulation time: 01 hr 02 min 59 sec)
Heartbeat CPU 0 instructions: 260000023 cycles: 745788680 heartbeat IPC: 0.1533 cumulative IPC: 0.3486 (Simulation time: 01 hr 08 min 15 sec)
Heartbeat CPU 0 instructions: 270000023 cycles: 826584807 heartbeat IPC: 0.1238 cumulative IPC: 0.3266 (Simulation time: 01 hr 14 min 47 sec)
Heartbeat CPU 0 instructions: 280000025 cycles: 852596214 heartbeat IPC: 0.3844 cumulative IPC: 0.3284 (Simulation time: 01 hr 17 min 17 sec)
Heartbeat CPU 0 instructions: 290000026 cycles: 885206017 heartbeat IPC: 0.3067 cumulative IPC: 0.3276 (Simulation time: 01 hr 20 min 13 sec)
Heartbeat CPU 0 instructions: 300000030 cycles: 919436114 heartbeat IPC: 0.2921 cumulative IPC: 0.3263 (Simulation time: 01 hr 22 min 47 sec)
[ERROR_CYCLE] Error added at CPU cycle 929683228, interval 2, pending count: 1
[DRAM_CYCLE_ERROR] Cycle-based error applied! address=0x3b15125d8 additional_latency=173500 cycles
Heartbeat CPU 0 instructions: 310000030 cycles: 940505380 heartbeat IPC: 0.4746 cumulative IPC: 0.3296 (Simulation time: 01 hr 24 min 32 sec)
Heartbeat CPU 0 instructions: 320000031 cycles: 962708254 heartbeat IPC: 0.4504 cumulative IPC: 0.3324 (Simulation time: 01 hr 26 min 11 sec)
Heartbeat CPU 0 instructions: 330000032 cycles: 1000398288 heartbeat IPC: 0.2653 cumulative IPC: 0.3299 (Simulation time: 01 hr 28 min 51 sec)
Heartbeat CPU 0 instructions: 340000032 cycles: 1015629342 heartbeat IPC: 0.6566 cumulative IPC: 0.3348 (Simulation time: 01 hr 30 min 34 sec)
Heartbeat CPU 0 instructions: 350000032 cycles: 1026218305 heartbeat IPC: 0.9444 cumulative IPC: 0.3411 (Simulation time: 01 hr 31 min 44 sec)
Heartbeat CPU 0 instructions: 360000032 cycles: 1059545043 heartbeat IPC: 0.3001 cumulative IPC: 0.3398 (Simulation time: 01 hr 34 min 50 sec)
Heartbeat CPU 0 instructions: 370000034 cycles: 1081046413 heartbeat IPC: 0.4651 cumulative IPC: 0.3423 (Simulation time: 01 hr 36 min 39 sec)
Heartbeat CPU 0 instructions: 380000034 cycles: 1098076997 heartbeat IPC: 0.5872 cumulative IPC: 0.3461 (Simulation time: 01 hr 38 min 07 sec)
Heartbeat CPU 0 instructions: 390000037 cycles: 1138841854 heartbeat IPC: 0.2453 cumulative IPC: 0.3425 (Simulation time: 01 hr 41 min 10 sec)
Heartbeat CPU 0 instructions: 400000039 cycles: 1183891491 heartbeat IPC: 0.222 cumulative IPC: 0.3379 (Simulation time: 01 hr 45 min 30 sec)
Heartbeat CPU 0 instructions: 410000039 cycles: 1201154182 heartbeat IPC: 0.5793 cumulative IPC: 0.3413 (Simulation time: 01 hr 47 min 27 sec)
Heartbeat CPU 0 instructions: 420000040 cycles: 1212227558 heartbeat IPC: 0.9031 cumulative IPC: 0.3465 (Simulation time: 01 hr 48 min 47 sec)
Heartbeat CPU 0 instructions: 430000041 cycles: 1231386377 heartbeat IPC: 0.522 cumulative IPC: 0.3492 (Simulation time: 01 hr 50 min 51 sec)
Heartbeat CPU 0 instructions: 440000041 cycles: 1280418798 heartbeat IPC: 0.2039 cumulative IPC: 0.3436 (Simulation time: 01 hr 55 min 29 sec)
Heartbeat CPU 0 instructions: 450000041 cycles: 1290893190 heartbeat IPC: 0.9547 cumulative IPC: 0.3486 (Simulation time: 01 hr 56 min 47 sec)
Heartbeat CPU 0 instructions: 460000041 cycles: 1310083772 heartbeat IPC: 0.5211 cumulative IPC: 0.3511 (Simulation time: 01 hr 58 min 49 sec)
Heartbeat CPU 0 instructions: 470000041 cycles: 1322121271 heartbeat IPC: 0.8307 cumulative IPC: 0.3555 (Simulation time: 02 hr 00 min 13 sec)
Heartbeat CPU 0 instructions: 480000042 cycles: 1336889054 heartbeat IPC: 0.6771 cumulative IPC: 0.359 (Simulation time: 02 hr 01 min 30 sec)
Heartbeat CPU 0 instructions: 490000043 cycles: 1383199252 heartbeat IPC: 0.2159 cumulative IPC: 0.3543 (Simulation time: 02 hr 05 min 11 sec)
[ERROR_CYCLE] Error added at CPU cycle 1394524842, interval 3, pending count: 1
[DRAM_CYCLE_ERROR] Cycle-based error applied! address=0x1833f1668 additional_latency=173500 cycles
Heartbeat CPU 0 instructions: 500000046 cycles: 1402546854 heartbeat IPC: 0.5169 cumulative IPC: 0.3565 (Simulation time: 02 hr 06 min 44 sec)
Heartbeat CPU 0 instructions: 510000047 cycles: 1422251676 heartbeat IPC: 0.5075 cumulative IPC: 0.3586 (Simulation time: 02 hr 08 min 37 sec)
Heartbeat CPU 0 instructions: 520000048 cycles: 1435339708 heartbeat IPC: 0.7641 cumulative IPC: 0.3623 (Simulation time: 02 hr 10 min 11 sec)
Heartbeat CPU 0 instructions: 530000052 cycles: 1452394238 heartbeat IPC: 0.5864 cumulative IPC: 0.3649 (Simulation time: 02 hr 11 min 39 sec)
Heartbeat CPU 0 instructions: 540000053 cycles: 1495258053 heartbeat IPC: 0.2333 cumulative IPC: 0.3611 (Simulation time: 02 hr 15 min 02 sec)
Heartbeat CPU 0 instructions: 550000054 cycles: 1549681826 heartbeat IPC: 0.1837 cumulative IPC: 0.3549 (Simulation time: 02 hr 20 min 06 sec)
Heartbeat CPU 0 instructions: 560000054 cycles: 1602816167 heartbeat IPC: 0.1882 cumulative IPC: 0.3494 (Simulation time: 02 hr 25 min 01 sec)
Heartbeat CPU 0 instructions: 570000057 cycles: 1654646375 heartbeat IPC: 0.1929 cumulative IPC: 0.3445 (Simulation time: 02 hr 29 min 42 sec)
Heartbeat CPU 0 instructions: 580000060 cycles: 1705566508 heartbeat IPC: 0.1964 cumulative IPC: 0.3401 (Simulation time: 02 hr 34 min 36 sec)
Heartbeat CPU 0 instructions: 590000060 cycles: 1757382437 heartbeat IPC: 0.193 cumulative IPC: 0.3357 (Simulation time: 02 hr 39 min 00 sec)
Heartbeat CPU 0 instructions: 600000063 cycles: 1808195563 heartbeat IPC: 0.1968 cumulative IPC: 0.3318 (Simulation time: 02 hr 43 min 34 sec)
Heartbeat CPU 0 instructions: 610000067 cycles: 1858982354 heartbeat IPC: 0.1969 cumulative IPC: 0.3281 (Simulation time: 02 hr 48 min 02 sec)
[ERROR_CYCLE] Error added at CPU cycle 1859366456, interval 4, pending count: 1
[DRAM_CYCLE_ERROR] Cycle-based error applied! address=0xcbc84d7e0 additional_latency=173500 cycles
Heartbeat CPU 0 instructions: 620000068 cycles: 1907287155 heartbeat IPC: 0.207 cumulative IPC: 0.3251 (Simulation time: 02 hr 52 min 14 sec)
Heartbeat CPU 0 instructions: 630000070 cycles: 1954940218 heartbeat IPC: 0.2099 cumulative IPC: 0.3223 (Simulation time: 02 hr 55 min 47 sec)
Heartbeat CPU 0 instructions: 640000070 cycles: 2001064403 heartbeat IPC: 0.2168 cumulative IPC: 0.3198 (Simulation time: 02 hr 59 min 16 sec)
Heartbeat CPU 0 instructions: 650000070 cycles: 2055747972 heartbeat IPC: 0.1829 cumulative IPC: 0.3162 (Simulation time: 03 hr 04 min 34 sec)
Heartbeat CPU 0 instructions: 660000074 cycles: 2116161959 heartbeat IPC: 0.1655 cumulative IPC: 0.3119 (Simulation time: 03 hr 10 min 17 sec)
Heartbeat CPU 0 instructions: 670000075 cycles: 2178934990 heartbeat IPC: 0.1593 cumulative IPC: 0.3075 (Simulation time: 03 hr 15 min 35 sec)
Heartbeat CPU 0 instructions: 680000077 cycles: 2249095266 heartbeat IPC: 0.1425 cumulative IPC: 0.3023 (Simulation time: 03 hr 22 min 05 sec)
Heartbeat CPU 0 instructions: 690000081 cycles: 2307883002 heartbeat IPC: 0.1701 cumulative IPC: 0.299 (Simulation time: 03 hr 27 min 42 sec)
[ERROR_CYCLE] Error added at CPU cycle 2324208070, interval 5, pending count: 1
[DRAM_CYCLE_ERROR] Cycle-based error applied! address=0xa43583d0 additional_latency=173500 cycles
Heartbeat CPU 0 instructions: 700000083 cycles: 2341997016 heartbeat IPC: 0.2931 cumulative IPC: 0.2989 (Simulation time: 03 hr 31 min 15 sec)
Heartbeat CPU 0 instructions: 710000087 cycles: 2359739172 heartbeat IPC: 0.5636 cumulative IPC: 0.3009 (Simulation time: 03 hr 33 min 14 sec)
Heartbeat CPU 0 instructions: 720000089 cycles: 2380522126 heartbeat IPC: 0.4812 cumulative IPC: 0.3025 (Simulation time: 03 hr 35 min 29 sec)
Heartbeat CPU 0 instructions: 730000092 cycles: 2396990961 heartbeat IPC: 0.6072 cumulative IPC: 0.3045 (Simulation time: 03 hr 37 min 19 sec)
Heartbeat CPU 0 instructions: 740000092 cycles: 2408134832 heartbeat IPC: 0.8974 cumulative IPC: 0.3073 (Simulation time: 03 hr 38 min 27 sec)
Heartbeat CPU 0 instructions: 750000093 cycles: 2431548241 heartbeat IPC: 0.4271 cumulative IPC: 0.3084 (Simulation time: 03 hr 40 min 29 sec)
Heartbeat CPU 0 instructions: 760000093 cycles: 2442731108 heartbeat IPC: 0.8942 cumulative IPC: 0.3111 (Simulation time: 03 hr 41 min 43 sec)
Heartbeat CPU 0 instructions: 770000094 cycles: 2457573912 heartbeat IPC: 0.6737 cumulative IPC: 0.3133 (Simulation time: 03 hr 43 min 24 sec)
Heartbeat CPU 0 instructions: 780000094 cycles: 2483275130 heartbeat IPC: 0.3891 cumulative IPC: 0.3141 (Simulation time: 03 hr 46 min 08 sec)
Heartbeat CPU 0 instructions: 790000095 cycles: 2509195933 heartbeat IPC: 0.3858 cumulative IPC: 0.3148 (Simulation time: 03 hr 48 min 54 sec)
Heartbeat CPU 0 instructions: 800000097 cycles: 2554001246 heartbeat IPC: 0.2232 cumulative IPC: 0.3132 (Simulation time: 03 hr 52 min 36 sec)
Heartbeat CPU 0 instructions: 810000099 cycles: 2588669697 heartbeat IPC: 0.2884 cumulative IPC: 0.3129 (Simulation time: 03 hr 55 min 58 sec)
Heartbeat CPU 0 instructions: 820000099 cycles: 2616457127 heartbeat IPC: 0.3599 cumulative IPC: 0.3134 (Simulation time: 03 hr 58 min 28 sec)
Heartbeat CPU 0 instructions: 830000099 cycles: 2636861638 heartbeat IPC: 0.4901 cumulative IPC: 0.3148 (Simulation time: 04 hr 00 min 24 sec)
Heartbeat CPU 0 instructions: 840000102 cycles: 2679811826 heartbeat IPC: 0.2328 cumulative IPC: 0.3135 (Simulation time: 04 hr 04 min 33 sec)
Heartbeat CPU 0 instructions: 850000102 cycles: 2713762683 heartbeat IPC: 0.2945 cumulative IPC: 0.3132 (Simulation time: 04 hr 07 min 56 sec)
Heartbeat CPU 0 instructions: 860000105 cycles: 2731235587 heartbeat IPC: 0.5723 cumulative IPC: 0.3149 (Simulation time: 04 hr 09 min 17 sec)
Heartbeat CPU 0 instructions: 870000108 cycles: 2742314334 heartbeat IPC: 0.9026 cumulative IPC: 0.3173 (Simulation time: 04 hr 10 min 15 sec)
Heartbeat CPU 0 instructions: 880000108 cycles: 2764184492 heartbeat IPC: 0.4572 cumulative IPC: 0.3184 (Simulation time: 04 hr 12 min 01 sec)
Heartbeat CPU 0 instructions: 890000108 cycles: 2782622737 heartbeat IPC: 0.5424 cumulative IPC: 0.3198 (Simulation time: 04 hr 13 min 25 sec)
[ERROR_CYCLE] Error added at CPU cycle 2789049684, interval 6, pending count: 1
[DRAM_CYCLE_ERROR] Cycle-based error applied! address=0x9bce6b550 additional_latency=173500 cycles
Heartbeat CPU 0 instructions: 900000112 cycles: 2820260474 heartbeat IPC: 0.2657 cumulative IPC: 0.3191 (Simulation time: 04 hr 16 min 36 sec)
Heartbeat CPU 0 instructions: 910000112 cycles: 2836612176 heartbeat IPC: 0.6116 cumulative IPC: 0.3208 (Simulation time: 04 hr 18 min 02 sec)
Heartbeat CPU 0 instructions: 920000113 cycles: 2860866275 heartbeat IPC: 0.4123 cumulative IPC: 0.3216 (Simulation time: 04 hr 20 min 26 sec)
Heartbeat CPU 0 instructions: 930000116 cycles: 2879548800 heartbeat IPC: 0.5353 cumulative IPC: 0.323 (Simulation time: 04 hr 22 min 19 sec)
Heartbeat CPU 0 instructions: 940000116 cycles: 2933772496 heartbeat IPC: 0.1844 cumulative IPC: 0.3204 (Simulation time: 04 hr 27 min 00 sec)
Heartbeat CPU 0 instructions: 950000116 cycles: 2995874473 heartbeat IPC: 0.161 cumulative IPC: 0.3171 (Simulation time: 04 hr 31 min 50 sec)
Heartbeat CPU 0 instructions: 960000116 cycles: 3027637115 heartbeat IPC: 0.3148 cumulative IPC: 0.3171 (Simulation time: 04 hr 34 min 25 sec)
Heartbeat CPU 0 instructions: 970000116 cycles: 3043018957 heartbeat IPC: 0.6501 cumulative IPC: 0.3188 (Simulation time: 04 hr 35 min 51 sec)
Heartbeat CPU 0 instructions: 980000117 cycles: 3056066439 heartbeat IPC: 0.7664 cumulative IPC: 0.3207 (Simulation time: 04 hr 37 min 25 sec)
Heartbeat CPU 0 instructions: 990000117 cycles: 3081999513 heartbeat IPC: 0.3856 cumulative IPC: 0.3212 (Simulation time: 04 hr 40 min 13 sec)
Heartbeat CPU 0 instructions: 1000000120 cycles: 3097440685 heartbeat IPC: 0.6476 cumulative IPC: 0.3228 (Simulation time: 04 hr 41 min 50 sec)
Heartbeat CPU 0 instructions: 1010000121 cycles: 3115055029 heartbeat IPC: 0.5677 cumulative IPC: 0.3242 (Simulation time: 04 hr 43 min 20 sec)
Heartbeat CPU 0 instructions: 1020000121 cycles: 3135542081 heartbeat IPC: 0.4881 cumulative IPC: 0.3253 (Simulation time: 04 hr 45 min 06 sec)
Heartbeat CPU 0 instructions: 1030000121 cycles: 3152959410 heartbeat IPC: 0.5741 cumulative IPC: 0.3267 (Simulation time: 04 hr 46 min 44 sec)
Heartbeat CPU 0 instructions: 1040000123 cycles: 3173172829 heartbeat IPC: 0.4947 cumulative IPC: 0.3277 (Simulation time: 04 hr 48 min 21 sec)
Heartbeat CPU 0 instructions: 1050000125 cycles: 3246530474 heartbeat IPC: 0.1363 cumulative IPC: 0.3234 (Simulation time: 04 hr 54 min 25 sec)
[ERROR_CYCLE] Error added at CPU cycle 3253891298, interval 7, pending count: 1
[DRAM_CYCLE_ERROR] Cycle-based error applied! address=0x2e6866c80 additional_latency=173500 cycles
Heartbeat CPU 0 instructions: 1060000125 cycles: 3305841429 heartbeat IPC: 0.1686 cumulative IPC: 0.3206 (Simulation time: 04 hr 59 min 56 sec)
Heartbeat CPU 0 instructions: 1070000125 cycles: 3319675012 heartbeat IPC: 0.7229 cumulative IPC: 0.3223 (Simulation time: 05 hr 01 min 10 sec)
Heartbeat CPU 0 instructions: 1080000129 cycles: 3333989292 heartbeat IPC: 0.6986 cumulative IPC: 0.3239 (Simulation time: 05 hr 02 min 26 sec)
Heartbeat CPU 0 instructions: 1090000132 cycles: 3391818481 heartbeat IPC: 0.1729 cumulative IPC: 0.3214 (Simulation time: 05 hr 06 min 50 sec)
Heartbeat CPU 0 instructions: 1100000134 cycles: 3416877971 heartbeat IPC: 0.3991 cumulative IPC: 0.3219 (Simulation time: 05 hr 09 min 17 sec)
Heartbeat CPU 0 instructions: 1110000137 cycles: 3432721969 heartbeat IPC: 0.6312 cumulative IPC: 0.3234 (Simulation time: 05 hr 11 min 07 sec)
Heartbeat CPU 0 instructions: 1120000138 cycles: 3446451694 heartbeat IPC: 0.7283 cumulative IPC: 0.325 (Simulation time: 05 hr 12 min 45 sec)
Heartbeat CPU 0 instructions: 1130000138 cycles: 3457952617 heartbeat IPC: 0.8695 cumulative IPC: 0.3268 (Simulation time: 05 hr 14 min 10 sec)
Heartbeat CPU 0 instructions: 1140000142 cycles: 3499568136 heartbeat IPC: 0.2403 cumulative IPC: 0.3258 (Simulation time: 05 hr 17 min 38 sec)
Heartbeat CPU 0 instructions: 1150000145 cycles: 3518590365 heartbeat IPC: 0.5257 cumulative IPC: 0.3268 (Simulation time: 05 hr 19 min 31 sec)
Heartbeat CPU 0 instructions: 1160000149 cycles: 3551900568 heartbeat IPC: 0.3002 cumulative IPC: 0.3266 (Simulation time: 05 hr 22 min 59 sec)
Heartbeat CPU 0 instructions: 1170000149 cycles: 3567811792 heartbeat IPC: 0.6285 cumulative IPC: 0.3279 (Simulation time: 05 hr 24 min 49 sec)
Heartbeat CPU 0 instructions: 1180000149 cycles: 3587575609 heartbeat IPC: 0.506 cumulative IPC: 0.3289 (Simulation time: 05 hr 26 min 59 sec)
Heartbeat CPU 0 instructions: 1190000149 cycles: 3637444398 heartbeat IPC: 0.2005 cumulative IPC: 0.3272 (Simulation time: 05 hr 31 min 44 sec)
Heartbeat CPU 0 instructions: 1200000152 cycles: 3653433643 heartbeat IPC: 0.6254 cumulative IPC: 0.3285 (Simulation time: 05 hr 33 min 05 sec)
Heartbeat CPU 0 instructions: 1210000156 cycles: 3679508485 heartbeat IPC: 0.3835 cumulative IPC: 0.3288 (Simulation time: 05 hr 35 min 54 sec)
Heartbeat CPU 0 instructions: 1220000159 cycles: 3702935866 heartbeat IPC: 0.4269 cumulative IPC: 0.3295 (Simulation time: 05 hr 38 min 26 sec)
Heartbeat CPU 0 instructions: 1230000162 cycles: 3714792757 heartbeat IPC: 0.8434 cumulative IPC: 0.3311 (Simulation time: 05 hr 39 min 42 sec)
[ERROR_CYCLE] Error added at CPU cycle 3718732912, interval 8, pending count: 1
[DRAM_CYCLE_ERROR] Cycle-based error applied! address=0xaa2f70ba8 additional_latency=173500 cycles
Heartbeat CPU 0 instructions: 1240000164 cycles: 3728117438 heartbeat IPC: 0.7505 cumulative IPC: 0.3326 (Simulation time: 05 hr 40 min 53 sec)
Heartbeat CPU 0 instructions: 1250000167 cycles: 3766517778 heartbeat IPC: 0.2604 cumulative IPC: 0.3319 (Simulation time: 05 hr 44 min 27 sec)
Heartbeat CPU 0 instructions: 1260000170 cycles: 3783390740 heartbeat IPC: 0.5927 cumulative IPC: 0.333 (Simulation time: 05 hr 45 min 52 sec)
Heartbeat CPU 0 instructions: 1270000170 cycles: 3804771224 heartbeat IPC: 0.4677 cumulative IPC: 0.3338 (Simulation time: 05 hr 47 min 38 sec)
Heartbeat CPU 0 instructions: 1280000174 cycles: 3830058993 heartbeat IPC: 0.3954 cumulative IPC: 0.3342 (Simulation time: 05 hr 49 min 27 sec)
Heartbeat CPU 0 instructions: 1290000176 cycles: 3877987443 heartbeat IPC: 0.2086 cumulative IPC: 0.3326 (Simulation time: 05 hr 52 min 51 sec)
Heartbeat CPU 0 instructions: 1300000178 cycles: 3891361528 heartbeat IPC: 0.7477 cumulative IPC: 0.3341 (Simulation time: 05 hr 54 min 01 sec)
Heartbeat CPU 0 instructions: 1310000178 cycles: 3906508018 heartbeat IPC: 0.6602 cumulative IPC: 0.3353 (Simulation time: 05 hr 55 min 26 sec)
Heartbeat CPU 0 instructions: 1320000178 cycles: 3919393667 heartbeat IPC: 0.7761 cumulative IPC: 0.3368 (Simulation time: 05 hr 56 min 40 sec)
Heartbeat CPU 0 instructions: 1330000178 cycles: 3951148798 heartbeat IPC: 0.3149 cumulative IPC: 0.3366 (Simulation time: 05 hr 59 min 21 sec)
Heartbeat CPU 0 instructions: 1340000182 cycles: 4008229489 heartbeat IPC: 0.1752 cumulative IPC: 0.3343 (Simulation time: 06 hr 04 min 28 sec)
Heartbeat CPU 0 instructions: 1350000184 cycles: 4045435007 heartbeat IPC: 0.2688 cumulative IPC: 0.3337 (Simulation time: 06 hr 07 min 26 sec)
Heartbeat CPU 0 instructions: 1360000185 cycles: 4058697235 heartbeat IPC: 0.754 cumulative IPC: 0.3351 (Simulation time: 06 hr 08 min 37 sec)
Heartbeat CPU 0 instructions: 1370000185 cycles: 4082159791 heartbeat IPC: 0.4262 cumulative IPC: 0.3356 (Simulation time: 06 hr 10 min 26 sec)
Heartbeat CPU 0 instructions: 1380000188 cycles: 4098291491 heartbeat IPC: 0.6199 cumulative IPC: 0.3367 (Simulation time: 06 hr 11 min 46 sec)
Heartbeat CPU 0 instructions: 1390000191 cycles: 4111572421 heartbeat IPC: 0.753 cumulative IPC: 0.3381 (Simulation time: 06 hr 12 min 50 sec)
Heartbeat CPU 0 instructions: 1400000193 cycles: 4126155246 heartbeat IPC: 0.6857 cumulative IPC: 0.3393 (Simulation time: 06 hr 14 min 04 sec)
Heartbeat CPU 0 instructions: 1410000194 cycles: 4149851856 heartbeat IPC: 0.422 cumulative IPC: 0.3398 (Simulation time: 06 hr 16 min 28 sec)
Heartbeat CPU 0 instructions: 1420000195 cycles: 4161873785 heartbeat IPC: 0.8318 cumulative IPC: 0.3412 (Simulation time: 06 hr 17 min 55 sec)
Heartbeat CPU 0 instructions: 1430000197 cycles: 4176679284 heartbeat IPC: 0.6754 cumulative IPC: 0.3424 (Simulation time: 06 hr 19 min 34 sec)
[ERROR_CYCLE] Error added at CPU cycle 4183574526, interval 9, pending count: 1
[DRAM_CYCLE_ERROR] Cycle-based error applied! address=0x560e55d00 additional_latency=173500 cycles
Heartbeat CPU 0 instructions: 1440000199 cycles: 4221796513 heartbeat IPC: 0.2216 cumulative IPC: 0.3411 (Simulation time: 06 hr 23 min 14 sec)
Heartbeat CPU 0 instructions: 1450000200 cycles: 4245378261 heartbeat IPC: 0.4241 cumulative IPC: 0.3415 (Simulation time: 06 hr 25 min 05 sec)
Heartbeat CPU 0 instructions: 1460000200 cycles: 4259699046 heartbeat IPC: 0.6983 cumulative IPC: 0.3427 (Simulation time: 06 hr 26 min 27 sec)
Heartbeat CPU 0 instructions: 1470000204 cycles: 4274634521 heartbeat IPC: 0.6695 cumulative IPC: 0.3439 (Simulation time: 06 hr 28 min 02 sec)
Heartbeat CPU 0 instructions: 1480000208 cycles: 4291206458 heartbeat IPC: 0.6034 cumulative IPC: 0.3449 (Simulation time: 06 hr 29 min 28 sec)
Heartbeat CPU 0 instructions: 1490000208 cycles: 4340494644 heartbeat IPC: 0.2029 cumulative IPC: 0.3433 (Simulation time: 06 hr 32 min 57 sec)
Heartbeat CPU 0 instructions: 1500000211 cycles: 4355294297 heartbeat IPC: 0.6757 cumulative IPC: 0.3444 (Simulation time: 06 hr 34 min 09 sec)
Heartbeat CPU 0 instructions: 1510000214 cycles: 4368957115 heartbeat IPC: 0.7319 cumulative IPC: 0.3456 (Simulation time: 06 hr 35 min 12 sec)
Heartbeat CPU 0 instructions: 1520000214 cycles: 4384766433 heartbeat IPC: 0.6325 cumulative IPC: 0.3467 (Simulation time: 06 hr 36 min 49 sec)
Heartbeat CPU 0 instructions: 1530000214 cycles: 4424881312 heartbeat IPC: 0.2493 cumulative IPC: 0.3458 (Simulation time: 06 hr 40 min 05 sec)
Heartbeat CPU 0 instructions: 1540000218 cycles: 4474296781 heartbeat IPC: 0.2024 cumulative IPC: 0.3442 (Simulation time: 06 hr 43 min 22 sec)
Heartbeat CPU 0 instructions: 1550000221 cycles: 4524323574 heartbeat IPC: 0.1999 cumulative IPC: 0.3426 (Simulation time: 06 hr 47 min 14 sec)
Heartbeat CPU 0 instructions: 1560000225 cycles: 4573749215 heartbeat IPC: 0.2023 cumulative IPC: 0.3411 (Simulation time: 06 hr 51 min 19 sec)
Heartbeat CPU 0 instructions: 1570000228 cycles: 4626363353 heartbeat IPC: 0.1901 cumulative IPC: 0.3394 (Simulation time: 06 hr 55 min 10 sec)
[ERROR_CYCLE] Error added at CPU cycle 4648416140, interval 10, pending count: 1
[DRAM_CYCLE_ERROR] Cycle-based error applied! address=0xe13766118 additional_latency=173500 cycles
Heartbeat CPU 0 instructions: 1580000232 cycles: 4694730592 heartbeat IPC: 0.1463 cumulative IPC: 0.3365 (Simulation time: 07 hr 00 min 52 sec)
Heartbeat CPU 0 instructions: 1590000233 cycles: 4765212423 heartbeat IPC: 0.1419 cumulative IPC: 0.3337 (Simulation time: 07 hr 06 min 27 sec)
Heartbeat CPU 0 instructions: 1600000236 cycles: 4817370918 heartbeat IPC: 0.1917 cumulative IPC: 0.3321 (Simulation time: 07 hr 11 min 14 sec)
Heartbeat CPU 0 instructions: 1610000236 cycles: 4834405690 heartbeat IPC: 0.587 cumulative IPC: 0.333 (Simulation time: 07 hr 12 min 44 sec)
Heartbeat CPU 0 instructions: 1620000237 cycles: 4847230308 heartbeat IPC: 0.7798 cumulative IPC: 0.3342 (Simulation time: 07 hr 14 min 15 sec)
[VMEM] WARNING: Out of physical memory, freeing ppages
Heartbeat CPU 0 instructions: 1630000241 cycles: 4876732197 heartbeat IPC: 0.339 cumulative IPC: 0.3342 (Simulation time: 07 hr 16 min 41 sec)
Heartbeat CPU 0 instructions: 1640000244 cycles: 4895298106 heartbeat IPC: 0.5386 cumulative IPC: 0.335 (Simulation time: 07 hr 18 min 10 sec)
Heartbeat CPU 0 instructions: 1650000248 cycles: 4912423476 heartbeat IPC: 0.5839 cumulative IPC: 0.3359 (Simulation time: 07 hr 19 min 40 sec)
Heartbeat CPU 0 instructions: 1660000248 cycles: 4932131110 heartbeat IPC: 0.5074 cumulative IPC: 0.3366 (Simulation time: 07 hr 21 min 22 sec)
Heartbeat CPU 0 instructions: 1670000252 cycles: 4975568212 heartbeat IPC: 0.2302 cumulative IPC: 0.3356 (Simulation time: 07 hr 24 min 14 sec)
Heartbeat CPU 0 instructions: 1680000256 cycles: 5014106657 heartbeat IPC: 0.2595 cumulative IPC: 0.3351 (Simulation time: 07 hr 27 min 23 sec)
Heartbeat CPU 0 instructions: 1690000256 cycles: 5024850933 heartbeat IPC: 0.9307 cumulative IPC: 0.3363 (Simulation time: 07 hr 28 min 13 sec)
Heartbeat CPU 0 instructions: 1700000257 cycles: 5044135701 heartbeat IPC: 0.5185 cumulative IPC: 0.337 (Simulation time: 07 hr 29 min 35 sec)
Heartbeat CPU 0 instructions: 1710000257 cycles: 5063186726 heartbeat IPC: 0.5249 cumulative IPC: 0.3377 (Simulation time: 07 hr 30 min 57 sec)
Heartbeat CPU 0 instructions: 1720000261 cycles: 5079788466 heartbeat IPC: 0.6023 cumulative IPC: 0.3386 (Simulation time: 07 hr 32 min 09 sec)
Heartbeat CPU 0 instructions: 1730000264 cycles: 5092390326 heartbeat IPC: 0.7935 cumulative IPC: 0.3397 (Simulation time: 07 hr 33 min 28 sec)
[ERROR_CYCLE] Error added at CPU cycle 5113257755, interval 11, pending count: 1
[DRAM_CYCLE_ERROR] Cycle-based error applied! address=0xb8207a010 additional_latency=173500 cycles
Heartbeat CPU 0 instructions: 1740000265 cycles: 5122803866 heartbeat IPC: 0.3288 cumulative IPC: 0.3397 (Simulation time: 07 hr 35 min 47 sec)
Heartbeat CPU 0 instructions: 1750000265 cycles: 5136265229 heartbeat IPC: 0.7429 cumulative IPC: 0.3407 (Simulation time: 07 hr 36 min 57 sec)
Heartbeat CPU 0 instructions: 1760000265 cycles: 5162658597 heartbeat IPC: 0.3789 cumulative IPC: 0.3409 (Simulation time: 07 hr 39 min 05 sec)
Heartbeat CPU 0 instructions: 1770000265 cycles: 5179918061 heartbeat IPC: 0.5794 cumulative IPC: 0.3417 (Simulation time: 07 hr 40 min 59 sec)
Heartbeat CPU 0 instructions: 1780000266 cycles: 5210345361 heartbeat IPC: 0.3287 cumulative IPC: 0.3416 (Simulation time: 07 hr 44 min 01 sec)
Heartbeat CPU 0 instructions: 1790000268 cycles: 5279977950 heartbeat IPC: 0.1436 cumulative IPC: 0.339 (Simulation time: 07 hr 50 min 26 sec)
Heartbeat CPU 0 instructions: 1800000269 cycles: 5315690567 heartbeat IPC: 0.28 cumulative IPC: 0.3386 (Simulation time: 07 hr 52 min 48 sec)
Heartbeat CPU 0 instructions: 1810000270 cycles: 5329440051 heartbeat IPC: 0.7273 cumulative IPC: 0.3396 (Simulation time: 07 hr 53 min 48 sec)
Heartbeat CPU 0 instructions: 1820000274 cycles: 5362678002 heartbeat IPC: 0.3009 cumulative IPC: 0.3394 (Simulation time: 07 hr 56 min 12 sec)
Heartbeat CPU 0 instructions: 1830000275 cycles: 5376519962 heartbeat IPC: 0.7224 cumulative IPC: 0.3404 (Simulation time: 07 hr 57 min 13 sec)
Heartbeat CPU 0 instructions: 1840000276 cycles: 5386008391 heartbeat IPC: 1.054 cumulative IPC: 0.3416 (Simulation time: 07 hr 57 min 58 sec)
Heartbeat CPU 0 instructions: 1850000276 cycles: 5402682430 heartbeat IPC: 0.5997 cumulative IPC: 0.3424 (Simulation time: 07 hr 59 min 21 sec)
Heartbeat CPU 0 instructions: 1860000280 cycles: 5428289587 heartbeat IPC: 0.3905 cumulative IPC: 0.3426 (Simulation time: 08 hr 01 min 06 sec)
Heartbeat CPU 0 instructions: 1870000280 cycles: 5454397415 heartbeat IPC: 0.383 cumulative IPC: 0.3428 (Simulation time: 08 hr 02 min 51 sec)
Heartbeat CPU 0 instructions: 1880000281 cycles: 5467324997 heartbeat IPC: 0.7735 cumulative IPC: 0.3439 (Simulation time: 08 hr 03 min 53 sec)
Heartbeat CPU 0 instructions: 1890000283 cycles: 5492413830 heartbeat IPC: 0.3986 cumulative IPC: 0.3441 (Simulation time: 08 hr 05 min 36 sec)
Heartbeat CPU 0 instructions: 1900000283 cycles: 5504035598 heartbeat IPC: 0.8605 cumulative IPC: 0.3452 (Simulation time: 08 hr 06 min 29 sec)
Heartbeat CPU 0 instructions: 1910000283 cycles: 5517929591 heartbeat IPC: 0.7197 cumulative IPC: 0.3461 (Simulation time: 08 hr 07 min 32 sec)
Heartbeat CPU 0 instructions: 1920000283 cycles: 5529529702 heartbeat IPC: 0.8621 cumulative IPC: 0.3472 (Simulation time: 08 hr 08 min 25 sec)
Heartbeat CPU 0 instructions: 1930000286 cycles: 5554123652 heartbeat IPC: 0.4066 cumulative IPC: 0.3475 (Simulation time: 08 hr 10 min 05 sec)
Heartbeat CPU 0 instructions: 1940000287 cycles: 5568151234 heartbeat IPC: 0.7129 cumulative IPC: 0.3484 (Simulation time: 08 hr 11 min 10 sec)
[ERROR_CYCLE] Error added at CPU cycle 5578099368, interval 12, pending count: 1
[DRAM_CYCLE_ERROR] Cycle-based error applied! address=0x960b52650 additional_latency=173500 cycles
Heartbeat CPU 0 instructions: 1950000291 cycles: 5589037833 heartbeat IPC: 0.4788 cumulative IPC: 0.3489 (Simulation time: 08 hr 12 min 36 sec)
Heartbeat CPU 0 instructions: 1960000291 cycles: 5603559909 heartbeat IPC: 0.6886 cumulative IPC: 0.3498 (Simulation time: 08 hr 13 min 39 sec)
Heartbeat CPU 0 instructions: 1970000292 cycles: 5635956028 heartbeat IPC: 0.3087 cumulative IPC: 0.3495 (Simulation time: 08 hr 15 min 37 sec)
Heartbeat CPU 0 instructions: 1980000293 cycles: 5696249367 heartbeat IPC: 0.1659 cumulative IPC: 0.3476 (Simulation time: 08 hr 19 min 11 sec)
Heartbeat CPU 0 instructions: 1990000293 cycles: 5756554979 heartbeat IPC: 0.1658 cumulative IPC: 0.3457 (Simulation time: 08 hr 22 min 35 sec)

=== ERROR PAGE STATISTICS ===
Mode: CYCLE
Error Cycle Interval: 464841614 CPU cycles
Total Error Accesses: 12
==============================
Simulation finished CPU 0 instructions: 1999999938 cycles: 5813978841 cumulative IPC: 0.344 (Simulation time: 08 hr 25 min 53 sec)
Simulation complete CPU 0 instructions: 1999999938 cycles: 5813978841 cumulative IPC: 0.344 (Simulation time: 08 hr 25 min 53 sec)

ChampSim completed all CPUs

=== Simulation ===
CPU 0 runs test_traces/605.mcf_s-994B.champsimtrace.xz

Region of Interest Statistics

CPU 0 cumulative IPC: 0.344 instructions: 1999999938 cycles: 5813978841
CPU 0 Branch Prediction Accuracy: 92.62% MPKI: 18.99 Average ROB Occupancy at Mispredict: 34.58
Branch type MPKI
BRANCH_DIRECT_JUMP: 0.123
BRANCH_INDIRECT: 0
BRANCH_CONDITIONAL: 18.86
BRANCH_DIRECT_CALL: 6.5e-06
BRANCH_INDIRECT_CALL: 0.0004185
BRANCH_RETURN: 1e-05

cpu0->cpu0_STLB TOTAL        ACCESS:   24265413 HIT:   11227806 MISS:   13037607 MSHR_MERGE:          0
cpu0->cpu0_STLB LOAD         ACCESS:   24265413 HIT:   11227806 MISS:   13037607 MSHR_MERGE:          0
cpu0->cpu0_STLB RFO          ACCESS:          0 HIT:          0 MISS:          0 MSHR_MERGE:          0
cpu0->cpu0_STLB PREFETCH     ACCESS:          0 HIT:          0 MISS:          0 MSHR_MERGE:          0
cpu0->cpu0_STLB WRITE        ACCESS:          0 HIT:          0 MISS:          0 MSHR_MERGE:          0
cpu0->cpu0_STLB TRANSLATION  ACCESS:          0 HIT:          0 MISS:          0 MSHR_MERGE:          0
cpu0->cpu0_STLB PREFETCH REQUESTED:          0 ISSUED:          0 USEFUL:          0 USELESS:          0
cpu0->cpu0_STLB AVERAGE MISS LATENCY: 237.1 cycles
cpu0->cpu0_L2C TOTAL        ACCESS:   81182064 HIT:   27436789 MISS:   53745275 MSHR_MERGE:          0
cpu0->cpu0_L2C LOAD         ACCESS:   75044096 HIT:   21364748 MISS:   53679348 MSHR_MERGE:          0
cpu0->cpu0_L2C RFO          ACCESS:     492944 HIT:     431345 MISS:      61599 MSHR_MERGE:          0
cpu0->cpu0_L2C PREFETCH     ACCESS:          0 HIT:          0 MISS:          0 MSHR_MERGE:          0
cpu0->cpu0_L2C WRITE        ACCESS:    5645024 HIT:    5640696 MISS:       4328 MSHR_MERGE:          0
cpu0->cpu0_L2C TRANSLATION  ACCESS:          0 HIT:          0 MISS:          0 MSHR_MERGE:          0
cpu0->cpu0_L2C PREFETCH REQUESTED:          0 ISSUED:          0 USEFUL:          0 USELESS:          0
cpu0->cpu0_L2C AVERAGE MISS LATENCY: 93.42 cycles
cpu0->cpu0_L1I TOTAL        ACCESS:    3226152 HIT:    3226061 MISS:         91 MSHR_MERGE:         25
cpu0->cpu0_L1I LOAD         ACCESS:    3226152 HIT:    3226061 MISS:         91 MSHR_MERGE:         25
cpu0->cpu0_L1I RFO          ACCESS:          0 HIT:          0 MISS:          0 MSHR_MERGE:          0
cpu0->cpu0_L1I PREFETCH     ACCESS:          0 HIT:          0 MISS:          0 MSHR_MERGE:          0
cpu0->cpu0_L1I WRITE        ACCESS:          0 HIT:          0 MISS:          0 MSHR_MERGE:          0
cpu0->cpu0_L1I TRANSLATION  ACCESS:          0 HIT:          0 MISS:          0 MSHR_MERGE:          0
cpu0->cpu0_L1I PREFETCH REQUESTED:          0 ISSUED:          0 USEFUL:          0 USELESS:          0
cpu0->cpu0_L1I AVERAGE MISS LATENCY: 118.6 cycles
cpu0->cpu0_L1D TOTAL        ACCESS:  806972929 HIT:  724733123 MISS:   82239806 MSHR_MERGE:    6702146
cpu0->cpu0_L1D LOAD         ACCESS:  606391274 HIT:  525536024 MISS:   80855250 MSHR_MERGE:    5811195
cpu0->cpu0_L1D RFO          ACCESS:          0 HIT:          0 MISS:          0 MSHR_MERGE:          0
cpu0->cpu0_L1D PREFETCH     ACCESS:          0 HIT:          0 MISS:          0 MSHR_MERGE:          0
cpu0->cpu0_L1D WRITE        ACCESS:  200581655 HIT:  199197099 MISS:    1384556 MSHR_MERGE:     890951
cpu0->cpu0_L1D TRANSLATION  ACCESS:          0 HIT:          0 MISS:          0 MSHR_MERGE:          0
cpu0->cpu0_L1D PREFETCH REQUESTED:          0 ISSUED:          0 USEFUL:          0 USELESS:          0
cpu0->cpu0_L1D AVERAGE MISS LATENCY: 75.38 cycles
cpu0->cpu0_ITLB TOTAL        ACCESS:    3075815 HIT:    3075808 MISS:          7 MSHR_MERGE:          1
cpu0->cpu0_ITLB LOAD         ACCESS:    3075815 HIT:    3075808 MISS:          7 MSHR_MERGE:          1
cpu0->cpu0_ITLB RFO          ACCESS:          0 HIT:          0 MISS:          0 MSHR_MERGE:          0
cpu0->cpu0_ITLB PREFETCH     ACCESS:          0 HIT:          0 MISS:          0 MSHR_MERGE:          0
cpu0->cpu0_ITLB WRITE        ACCESS:          0 HIT:          0 MISS:          0 MSHR_MERGE:          0
cpu0->cpu0_ITLB TRANSLATION  ACCESS:          0 HIT:          0 MISS:          0 MSHR_MERGE:          0
cpu0->cpu0_ITLB PREFETCH REQUESTED:          0 ISSUED:          0 USEFUL:          0 USELESS:          0
cpu0->cpu0_ITLB AVERAGE MISS LATENCY: 750.7 cycles
cpu0->cpu0_DTLB TOTAL        ACCESS:  721869333 HIT:  688504769 MISS:   33364564 MSHR_MERGE:    9099157
cpu0->cpu0_DTLB LOAD         ACCESS:  721869333 HIT:  688504769 MISS:   33364564 MSHR_MERGE:    9099157
cpu0->cpu0_DTLB RFO          ACCESS:          0 HIT:          0 MISS:          0 MSHR_MERGE:          0
cpu0->cpu0_DTLB PREFETCH     ACCESS:          0 HIT:          0 MISS:          0 MSHR_MERGE:          0
cpu0->cpu0_DTLB WRITE        ACCESS:          0 HIT:          0 MISS:          0 MSHR_MERGE:          0
cpu0->cpu0_DTLB TRANSLATION  ACCESS:          0 HIT:          0 MISS:          0 MSHR_MERGE:          0
cpu0->cpu0_DTLB PREFETCH REQUESTED:          0 ISSUED:          0 USEFUL:          0 USELESS:          0
cpu0->cpu0_DTLB AVERAGE MISS LATENCY: 133 cycles
cpu0->LLC TOTAL        ACCESS:   57707959 HIT:   16613382 MISS:   41094577 MSHR_MERGE:          0
cpu0->LLC LOAD         ACCESS:   53679348 HIT:   12604998 MISS:   41074350 MSHR_MERGE:          0
cpu0->LLC RFO          ACCESS:      61599 HIT:      42703 MISS:      18896 MSHR_MERGE:          0
cpu0->LLC PREFETCH     ACCESS:          0 HIT:          0 MISS:          0 MSHR_MERGE:          0
cpu0->LLC WRITE        ACCESS:    3967012 HIT:    3965681 MISS:       1331 MSHR_MERGE:          0
cpu0->LLC TRANSLATION  ACCESS:          0 HIT:          0 MISS:          0 MSHR_MERGE:          0
cpu0->LLC PREFETCH REQUESTED:          0 ISSUED:          0 USEFUL:          0 USELESS:          0
cpu0->LLC AVERAGE MISS LATENCY: 101.6 cycles

DRAM Statistics

Channel 0 RQ ROW_BUFFER_HIT:     488170
  ROW_BUFFER_MISS:   36080095
  AVG DBUS CONGESTED CYCLE: 9.425
Channel 0 WQ ROW_BUFFER_HIT:     379191
  ROW_BUFFER_MISS:    1200926
  FULL:          0
Channel 0 REFRESHES ISSUED:     484467

Channel 1 RQ ROW_BUFFER_HIT:     496376
  ROW_BUFFER_MISS:   36262286
  AVG DBUS CONGESTED CYCLE: 9.421
Channel 1 WQ ROW_BUFFER_HIT:     380732
  ROW_BUFFER_MISS:    1198971
  FULL:          0
Channel 1 REFRESHES ISSUED:     484467
