
*** ChampSim Multicore Out-of-Order Simulator ***
Warmup Instructions: 0
Simulation Instructions: 9223372036854775807
Number of CPUs: 1
Page size: 1048576

Off-chip DRAM Size: 128 GiB Channels: 2 Width: 32-bit Data Rate: 4807 MT/s
[ERROR_PAGE_MANAGER] Error latency: 2459910500 
[ERROR_PAGE_MANAGER] Random seed: 54321 (fixed for preload reproducibility)
[ERROR_PAGE_MANAGER] Cycle-based error modeling enabled
[ERROR_PAGE_MANAGER] Errors per interval: 1
[ERROR_PAGE_MANAGER] Error cycle interval: 257630478 cycles

=== ERROR PAGE STATISTICS ===
Mode: CYCLE
Error Cycle Interval: 257630478 CPU cycles
Total Error Accesses: 0
==============================
Warmup finished CPU 0 instructions: 0 cycles: 1 cumulative IPC: 0 (Simulation time: 00 hr 00 min 00 sec)
Warmup complete CPU 0 instructions: 0 cycles: 1 cumulative IPC: 0 (Simulation time: 00 hr 00 min 00 sec)
Simulation CPU 0 panic: IPC 0 < 0.01
Simulation CPU 0 panic: IPC 9e-07 < 0.01
Simulation CPU 0 panic: IPC 3e-07 < 0.01
Simulation CPU 0 panic: IPC 1e-07 < 0.01
Simulation CPU 0 panic: IPC 1.8e-06 < 0.01
Simulation CPU 0 panic: IPC 0 < 0.01
Simulation CPU 0 panic: IPC 2.29e-05 < 0.01
Simulation CPU 0 panic: IPC 1.7e-06 < 0.01
Simulation CPU 0 panic: IPC 1.81e-05 < 0.01
Simulation CPU 0 panic: IPC 4.33e-05 < 0.01
Simulation CPU 0 panic: IPC 1.23e-05 < 0.01
Simulation CPU 0 panic: IPC 1e-07 < 0.01
Simulation CPU 0 panic: IPC 1.66e-05 < 0.01
Simulation CPU 0 panic: IPC 8.1e-06 < 0.01
Simulation CPU 0 panic: IPC 1e-07 < 0.01
Simulation CPU 0 panic: IPC 2.9e-06 < 0.01
Simulation CPU 0 panic: IPC 3.8e-06 < 0.01
Simulation CPU 0 panic: IPC 1e-07 < 0.01
Simulation CPU 0 panic: IPC 2.9e-06 < 0.01
Simulation CPU 0 panic: IPC 1e-07 < 0.01
Simulation CPU 0 panic: IPC 2.9e-06 < 0.01
Simulation CPU 0 panic: IPC 3e-06 < 0.01
Simulation CPU 0 panic: IPC 1e-07 < 0.01
Simulation CPU 0 panic: IPC 9.7e-06 < 0.01
Simulation CPU 0 panic: IPC 3e-06 < 0.01
[ERROR_CYCLE] Error added at CPU cycle 257630478, interval 1, pending count: 1
[DRAM_CYCLE_ERROR] Cycle-based error applied! address=0xa2e7d5e58 additional_latency=2459910500 cycles
Simulation CPU 0 panic: IPC 0 < 0.01
Simulation CPU 0 panic: IPC 3e-06 < 0.01
Simulation CPU 0 panic: IPC 2.34e-05 < 0.01
Simulation CPU 0 panic: IPC 1.52e-05 < 0.01
Simulation CPU 0 panic: IPC 2.35e-05 < 0.01
Simulation CPU 0 panic: IPC 8.2e-06 < 0.01
Simulation CPU 0 panic: IPC 1.95e-05 < 0.01
Simulation CPU 0 panic: IPC 0.0001239 < 0.01
Simulation CPU 0 panic: IPC 0.0001436 < 0.01
Simulation CPU 0 panic: IPC 0.0001423 < 0.01
Simulation CPU 0 panic: IPC 7.53e-05 < 0.01
Simulation CPU 0 panic: IPC 6.57e-05 < 0.01
Simulation CPU 0 panic: IPC 0.000357 < 0.01
Simulation CPU 0 panic: IPC 0.0012567 < 0.01
Simulation CPU 0 panic: IPC 0.0001685 < 0.01
Simulation CPU 0 panic: IPC 3.27e-05 < 0.01
Simulation CPU 0 panic: IPC 6.7e-06 < 0.01
Simulation CPU 0 panic: IPC 3.1e-06 < 0.01
Simulation CPU 0 panic: IPC 2.41e-05 < 0.01
Simulation CPU 0 panic: IPC 1.04e-05 < 0.01
Simulation CPU 0 panic: IPC 7.01e-05 < 0.01
Simulation CPU 0 panic: IPC 1.64e-05 < 0.01
Simulation CPU 0 panic: IPC 2.7e-06 < 0.01
Simulation CPU 0 panic: IPC 0.0001107 < 0.01
Simulation CPU 0 panic: IPC 0.0001304 < 0.01
Simulation CPU 0 panic: IPC 3e-06 < 0.01
[ERROR_CYCLE] Error added at CPU cycle 515260956, interval 2, pending count: 1
[DRAM_CYCLE_ERROR] Cycle-based error applied! address=0x1022558048 additional_latency=2459910500 cycles
Simulation CPU 0 panic: IPC 0 < 0.01
Simulation CPU 0 panic: IPC 3e-06 < 0.01
Simulation CPU 0 panic: IPC 1e-07 < 0.01
Simulation CPU 0 panic: IPC 3e-06 < 0.01
Simulation CPU 0 panic: IPC 3e-06 < 0.01
Simulation CPU 0 panic: IPC 3e-06 < 0.01
Simulation CPU 0 panic: IPC 2.9e-06 < 0.01
Simulation CPU 0 panic: IPC 1e-07 < 0.01
Simulation CPU 0 panic: IPC 2.9e-06 < 0.01
Simulation CPU 0 panic: IPC 1e-07 < 0.01
Simulation CPU 0 panic: IPC 2.02e-05 < 0.01
Simulation CPU 0 panic: IPC 0.0001422 < 0.01
Simulation CPU 0 panic: IPC 2.14e-05 < 0.01
Simulation CPU 0 panic: IPC 1e-07 < 0.01
Simulation CPU 0 panic: IPC 5.9e-06 < 0.01
Simulation CPU 0 panic: IPC 6e-06 < 0.01
Simulation CPU 0 panic: IPC 9.1e-06 < 0.01
Simulation CPU 0 panic: IPC 2.12e-05 < 0.01
Simulation CPU 0 panic: IPC 0.0001447 < 0.01
Simulation CPU 0 panic: IPC 7.09e-05 < 0.01
Simulation CPU 0 panic: IPC 7e-06 < 0.01
Simulation CPU 0 panic: IPC 2.22e-05 < 0.01
Simulation CPU 0 panic: IPC 5e-07 < 0.01
Simulation CPU 0 panic: IPC 1.88e-05 < 0.01
Simulation CPU 0 panic: IPC 4e-07 < 0.01
Simulation CPU 0 panic: IPC 1.09e-05 < 0.01
[ERROR_CYCLE] Error added at CPU cycle 772891435, interval 3, pending count: 1
[DRAM_CYCLE_ERROR] Cycle-based error applied! address=0x1db2b17870 additional_latency=2459910500 cycles
Simulation CPU 0 panic: IPC 0 < 0.01
Simulation CPU 0 panic: IPC 5.8e-06 < 0.01
Simulation CPU 0 panic: IPC 4e-07 < 0.01
Simulation CPU 0 panic: IPC 8e-07 < 0.01
Simulation CPU 0 panic: IPC 5.1e-06 < 0.01
Simulation CPU 0 panic: IPC 2.8e-05 < 0.01
Simulation CPU 0 panic: IPC 2.47e-05 < 0.01
Simulation CPU 0 panic: IPC 5.4e-06 < 0.01
Simulation CPU 0 panic: IPC 1.71e-05 < 0.01
Simulation CPU 0 panic: IPC 5.1e-06 < 0.01
Simulation CPU 0 panic: IPC 1.52e-05 < 0.01
Simulation CPU 0 panic: IPC 8.6e-06 < 0.01
Simulation CPU 0 panic: IPC 5.5e-06 < 0.01
Simulation CPU 0 panic: IPC 8.5e-06 < 0.01
Simulation CPU 0 panic: IPC 1.48e-05 < 0.01
Simulation CPU 0 panic: IPC 1.25e-05 < 0.01
Simulation CPU 0 panic: IPC 2.58e-05 < 0.01
Simulation CPU 0 panic: IPC 2e-05 < 0.01
Simulation CPU 0 panic: IPC 1.17e-05 < 0.01
Simulation CPU 0 panic: IPC 3.16e-05 < 0.01
Simulation CPU 0 panic: IPC 5.5e-06 < 0.01
Simulation CPU 0 panic: IPC 0.0006164 < 0.01
Simulation CPU 0 panic: IPC 0.0002763 < 0.01
Simulation CPU 0 panic: IPC 0.0002749 < 0.01
Simulation CPU 0 panic: IPC 0.0001653 < 0.01
Simulation CPU 0 panic: IPC 0.0002633 < 0.01
[ERROR_CYCLE] Error added at CPU cycle 1030521912, interval 4, pending count: 1
[DRAM_CYCLE_ERROR] Cycle-based error applied! address=0x1959c81770 additional_latency=2459910500 cycles
Simulation CPU 0 panic: IPC 9.8e-05 < 0.01
Simulation CPU 0 panic: IPC 0.0010647 < 0.01
Simulation CPU 0 panic: IPC 5.4e-06 < 0.01
Simulation CPU 0 panic: IPC 0.0001581 < 0.01
Simulation CPU 0 panic: IPC 5.4e-06 < 0.01
Simulation CPU 0 panic: IPC 0.0001589 < 0.01
Simulation CPU 0 panic: IPC 5.4e-06 < 0.01
Simulation CPU 0 panic: IPC 0.0003267 < 0.01
Simulation CPU 0 panic: IPC 0.0001719 < 0.01
Simulation CPU 0 panic: IPC 0.0003328 < 0.01
Simulation CPU 0 panic: IPC 0.0001602 < 0.01
Simulation CPU 0 panic: IPC 5.4e-06 < 0.01
Simulation CPU 0 panic: IPC 0.0003799 < 0.01
Simulation CPU 0 panic: IPC 9e-06 < 0.01
Simulation CPU 0 panic: IPC 1e-07 < 0.01
Simulation CPU 0 panic: IPC 0.0001136 < 0.01
Simulation CPU 0 panic: IPC 1.6e-05 < 0.01
Simulation CPU 0 panic: IPC 2.22e-05 < 0.01
Simulation CPU 0 panic: IPC 1.21e-05 < 0.01
Simulation CPU 0 panic: IPC 8.9e-06 < 0.01
Simulation CPU 0 panic: IPC 1e-07 < 0.01
Simulation CPU 0 panic: IPC 0.0001899 < 0.01
Simulation CPU 0 panic: IPC 0.0001843 < 0.01
Simulation CPU 0 panic: IPC 3.75e-05 < 0.01
Simulation CPU 0 panic: IPC 0.0003367 < 0.01
[ERROR_CYCLE] Error added at CPU cycle 1288152391, interval 5, pending count: 1
Simulation CPU 0 panic: IPC 6.43e-05 < 0.01
[DRAM_CYCLE_ERROR] Cycle-based error applied! address=0x1959c9f5a8 additional_latency=2459910500 cycles
Simulation CPU 0 panic: IPC 0 < 0.01
Simulation CPU 0 panic: IPC 0.0002663 < 0.01
Simulation CPU 0 panic: IPC 3.92e-05 < 0.01
Simulation CPU 0 panic: IPC 4.55e-05 < 0.01
Simulation CPU 0 panic: IPC 2.08e-05 < 0.01
Simulation CPU 0 panic: IPC 5.2e-06 < 0.01
Simulation CPU 0 panic: IPC 6.65e-05 < 0.01
Simulation CPU 0 panic: IPC 0.0001063 < 0.01
Simulation CPU 0 panic: IPC 0.0006171 < 0.01
Simulation CPU 0 panic: IPC 0.0004196 < 0.01
Simulation CPU 0 panic: IPC 0.0001879 < 0.01
Simulation CPU 0 panic: IPC 0.0001448 < 0.01
Simulation CPU 0 panic: IPC 9.46e-05 < 0.01
Simulation CPU 0 panic: IPC 0.0004602 < 0.01
Simulation CPU 0 panic: IPC 3.92e-05 < 0.01
Simulation CPU 0 panic: IPC 3.95e-05 < 0.01
Simulation CPU 0 panic: IPC 3.73e-05 < 0.01
Simulation CPU 0 panic: IPC 0.0001282 < 0.01
Simulation CPU 0 panic: IPC 5.09e-05 < 0.01
Simulation CPU 0 panic: IPC 0.0002329 < 0.01
Simulation CPU 0 panic: IPC 9.46e-05 < 0.01
Simulation CPU 0 panic: IPC 0.0025007 < 0.01
Simulation CPU 0 panic: IPC 0.000105 < 0.01
Simulation CPU 0 panic: IPC 0.0003876 < 0.01
Simulation CPU 0 panic: IPC 0.0009874 < 0.01
[ERROR_CYCLE] Error added at CPU cycle 1545782868, interval 6, pending count: 1
[DRAM_CYCLE_ERROR] Cycle-based error applied! address=0x940e6fca0 additional_latency=2459910500 cycles
Simulation CPU 0 panic: IPC 0 < 0.01
Simulation CPU 0 panic: IPC 0.0012842 < 0.01
Simulation CPU 0 panic: IPC 0.0015389 < 0.01
Simulation CPU 0 panic: IPC 0.0003849 < 0.01
Simulation CPU 0 panic: IPC 0.0003655 < 0.01
Simulation CPU 0 panic: IPC 0.000366 < 0.01
Simulation CPU 0 panic: IPC 7.62e-05 < 0.01
Simulation CPU 0 panic: IPC 0.0003003 < 0.01
Simulation CPU 0 panic: IPC 0.0003039 < 0.01
Simulation CPU 0 panic: IPC 0.0006496 < 0.01
Simulation CPU 0 panic: IPC 0.0047815 < 0.01
Simulation CPU 0 panic: IPC 0.0010858 < 0.01
Simulation CPU 0 panic: IPC 0.0002078 < 0.01
Simulation CPU 0 panic: IPC 0.0002537 < 0.01
Simulation CPU 0 panic: IPC 0.0008968 < 0.01
Simulation CPU 0 panic: IPC 0.002866 < 0.01
Simulation CPU 0 panic: IPC 0.0011515 < 0.01
Simulation CPU 0 panic: IPC 0.0008584 < 0.01
Simulation CPU 0 panic: IPC 0.0006085 < 0.01
Simulation CPU 0 panic: IPC 0.0003011 < 0.01
Simulation CPU 0 panic: IPC 0.0021249 < 0.01
Simulation CPU 0 panic: IPC 0.0041581 < 0.01
Simulation CPU 0 panic: IPC 0.0011432 < 0.01
Simulation CPU 0 panic: IPC 0.0030551 < 0.01
Simulation CPU 0 panic: IPC 0.0017629 < 0.01
Simulation CPU 0 panic: IPC 0.0003205 < 0.01
[ERROR_CYCLE] Error added at CPU cycle 1803413346, interval 7, pending count: 1
[DRAM_CYCLE_ERROR] Cycle-based error applied! address=0x16756e4cc1 additional_latency=2459910500 cycles
Simulation CPU 0 panic: IPC 0 < 0.01
Simulation CPU 0 panic: IPC 0.0003317 < 0.01
Simulation CPU 0 panic: IPC 0.0007435 < 0.01
Simulation CPU 0 panic: IPC 0.0019878 < 0.01
Simulation CPU 0 panic: IPC 0.0003699 < 0.01
Simulation CPU 0 panic: IPC 0.0024232 < 0.01
Simulation CPU 0 panic: IPC 0.0003722 < 0.01
Simulation CPU 0 panic: IPC 0.0009868 < 0.01
Simulation CPU 0 panic: IPC 0.002298 < 0.01
Simulation CPU 0 critical: IPC 0.01801 < 0.02
Simulation CPU 0 panic: IPC 0.0083119 < 0.01
Simulation CPU 0 critical: IPC 0.018314 < 0.02
Heartbeat CPU 0 instructions: 10000003 cycles: 1967934619 heartbeat IPC: 0.005081 cumulative IPC: 0.005081 (Simulation time: 02 hr 42 min 00 sec)
Heartbeat CPU 0 instructions: 20000007 cycles: 1983148561 heartbeat IPC: 0.6573 cumulative IPC: 0.01008 (Simulation time: 02 hr 43 min 51 sec)
Heartbeat CPU 0 instructions: 30000008 cycles: 1998321857 heartbeat IPC: 0.6591 cumulative IPC: 0.01501 (Simulation time: 02 hr 45 min 42 sec)
Heartbeat CPU 0 instructions: 40000008 cycles: 2013599830 heartbeat IPC: 0.6545 cumulative IPC: 0.01986 (Simulation time: 02 hr 47 min 22 sec)
Heartbeat CPU 0 instructions: 50000008 cycles: 2029051822 heartbeat IPC: 0.6472 cumulative IPC: 0.02464 (Simulation time: 02 hr 48 min 45 sec)
Heartbeat CPU 0 instructions: 60000011 cycles: 2043924495 heartbeat IPC: 0.6724 cumulative IPC: 0.02936 (Simulation time: 02 hr 50 min 34 sec)
Heartbeat CPU 0 instructions: 70000011 cycles: 2059126188 heartbeat IPC: 0.6578 cumulative IPC: 0.034 (Simulation time: 02 hr 52 min 24 sec)
[ERROR_CYCLE] Error added at CPU cycle 2061043825, interval 8, pending count: 1
[DRAM_CYCLE_ERROR] Cycle-based error applied! address=0x9c19e55f8 additional_latency=2459910500 cycles
Heartbeat CPU 0 instructions: 80000012 cycles: 2084200723 heartbeat IPC: 0.3988 cumulative IPC: 0.03838 (Simulation time: 02 hr 54 min 42 sec)
Heartbeat CPU 0 instructions: 90000013 cycles: 2099283573 heartbeat IPC: 0.663 cumulative IPC: 0.04287 (Simulation time: 02 hr 56 min 24 sec)
Heartbeat CPU 0 instructions: 100000016 cycles: 2114401869 heartbeat IPC: 0.6615 cumulative IPC: 0.04729 (Simulation time: 02 hr 58 min 13 sec)
Heartbeat CPU 0 instructions: 110000018 cycles: 2129433884 heartbeat IPC: 0.6652 cumulative IPC: 0.05166 (Simulation time: 02 hr 59 min 56 sec)
Heartbeat CPU 0 instructions: 120000018 cycles: 2144401024 heartbeat IPC: 0.6681 cumulative IPC: 0.05596 (Simulation time: 03 hr 01 min 46 sec)
Heartbeat CPU 0 instructions: 130000018 cycles: 2159450093 heartbeat IPC: 0.6645 cumulative IPC: 0.0602 (Simulation time: 03 hr 03 min 37 sec)
Heartbeat CPU 0 instructions: 140000020 cycles: 2174434105 heartbeat IPC: 0.6674 cumulative IPC: 0.06438 (Simulation time: 03 hr 05 min 18 sec)
Heartbeat CPU 0 instructions: 150000021 cycles: 2189561529 heartbeat IPC: 0.6611 cumulative IPC: 0.06851 (Simulation time: 03 hr 07 min 09 sec)
Heartbeat CPU 0 instructions: 160000021 cycles: 2204673087 heartbeat IPC: 0.6617 cumulative IPC: 0.07257 (Simulation time: 03 hr 08 min 59 sec)
Heartbeat CPU 0 instructions: 170000021 cycles: 2219621319 heartbeat IPC: 0.669 cumulative IPC: 0.07659 (Simulation time: 03 hr 10 min 36 sec)
Heartbeat CPU 0 instructions: 180000024 cycles: 2234409975 heartbeat IPC: 0.6762 cumulative IPC: 0.08056 (Simulation time: 03 hr 11 min 49 sec)
Heartbeat CPU 0 instructions: 190000028 cycles: 2249332665 heartbeat IPC: 0.6701 cumulative IPC: 0.08447 (Simulation time: 03 hr 13 min 33 sec)
Heartbeat CPU 0 instructions: 200000029 cycles: 2264419894 heartbeat IPC: 0.6628 cumulative IPC: 0.08832 (Simulation time: 03 hr 15 min 22 sec)
Heartbeat CPU 0 instructions: 210000033 cycles: 2279463714 heartbeat IPC: 0.6647 cumulative IPC: 0.09213 (Simulation time: 03 hr 17 min 09 sec)
Heartbeat CPU 0 instructions: 220000035 cycles: 2294459812 heartbeat IPC: 0.6668 cumulative IPC: 0.09588 (Simulation time: 03 hr 18 min 49 sec)
Heartbeat CPU 0 instructions: 230000036 cycles: 2309650737 heartbeat IPC: 0.6583 cumulative IPC: 0.09958 (Simulation time: 03 hr 20 min 26 sec)
[ERROR_CYCLE] Error added at CPU cycle 2318674302, interval 9, pending count: 1
[DRAM_CYCLE_ERROR] Cycle-based error applied! address=0x1f7b1cc300 additional_latency=2459910500 cycles
Heartbeat CPU 0 instructions: 240000036 cycles: 2324709412 heartbeat IPC: 0.6641 cumulative IPC: 0.1032 (Simulation time: 03 hr 22 min 16 sec)
Heartbeat CPU 0 instructions: 250000038 cycles: 2339318108 heartbeat IPC: 0.6845 cumulative IPC: 0.1069 (Simulation time: 03 hr 24 min 04 sec)
Heartbeat CPU 0 instructions: 260000038 cycles: 2353971938 heartbeat IPC: 0.6824 cumulative IPC: 0.1105 (Simulation time: 03 hr 25 min 47 sec)
Heartbeat CPU 0 instructions: 270000038 cycles: 2369087648 heartbeat IPC: 0.6616 cumulative IPC: 0.114 (Simulation time: 03 hr 27 min 25 sec)
Heartbeat CPU 0 instructions: 280000041 cycles: 2384486785 heartbeat IPC: 0.6494 cumulative IPC: 0.1174 (Simulation time: 03 hr 28 min 56 sec)
Heartbeat CPU 0 instructions: 290000043 cycles: 2399750452 heartbeat IPC: 0.6552 cumulative IPC: 0.1208 (Simulation time: 03 hr 30 min 13 sec)
Heartbeat CPU 0 instructions: 300000044 cycles: 2414453864 heartbeat IPC: 0.6801 cumulative IPC: 0.1243 (Simulation time: 03 hr 31 min 28 sec)
Heartbeat CPU 0 instructions: 310000047 cycles: 2429753441 heartbeat IPC: 0.6536 cumulative IPC: 0.1276 (Simulation time: 03 hr 33 min 02 sec)
Heartbeat CPU 0 instructions: 320000051 cycles: 2444810884 heartbeat IPC: 0.6641 cumulative IPC: 0.1309 (Simulation time: 03 hr 34 min 44 sec)
Heartbeat CPU 0 instructions: 330000051 cycles: 2459838511 heartbeat IPC: 0.6654 cumulative IPC: 0.1342 (Simulation time: 03 hr 36 min 34 sec)
Heartbeat CPU 0 instructions: 340000055 cycles: 2473978898 heartbeat IPC: 0.7072 cumulative IPC: 0.1374 (Simulation time: 03 hr 38 min 05 sec)
Heartbeat CPU 0 instructions: 350000055 cycles: 2488861638 heartbeat IPC: 0.6719 cumulative IPC: 0.1406 (Simulation time: 03 hr 39 min 50 sec)
Heartbeat CPU 0 instructions: 360000056 cycles: 2503473734 heartbeat IPC: 0.6844 cumulative IPC: 0.1438 (Simulation time: 03 hr 41 min 18 sec)
Heartbeat CPU 0 instructions: 370000056 cycles: 2518175079 heartbeat IPC: 0.6802 cumulative IPC: 0.1469 (Simulation time: 03 hr 42 min 35 sec)
Heartbeat CPU 0 instructions: 380000056 cycles: 2532777724 heartbeat IPC: 0.6848 cumulative IPC: 0.15 (Simulation time: 03 hr 44 min 23 sec)
Heartbeat CPU 0 instructions: 390000058 cycles: 2547423946 heartbeat IPC: 0.6828 cumulative IPC: 0.1531 (Simulation time: 03 hr 46 min 10 sec)
Heartbeat CPU 0 instructions: 400000059 cycles: 2562181720 heartbeat IPC: 0.6776 cumulative IPC: 0.1561 (Simulation time: 03 hr 47 min 59 sec)
[ERROR_CYCLE] Error added at CPU cycle 2576304781, interval 10, pending count: 1
[DRAM_CYCLE_ERROR] Cycle-based error applied! address=0x3b66201e8 additional_latency=2459910500 cycles
Heartbeat CPU 0 instructions: 410000059 cycles: 2586670486 heartbeat IPC: 0.4084 cumulative IPC: 0.1585 (Simulation time: 03 hr 50 min 34 sec)
Heartbeat CPU 0 instructions: 420000062 cycles: 2601495912 heartbeat IPC: 0.6745 cumulative IPC: 0.1614 (Simulation time: 03 hr 52 min 10 sec)
Heartbeat CPU 0 instructions: 430000065 cycles: 2616405195 heartbeat IPC: 0.6707 cumulative IPC: 0.1643 (Simulation time: 03 hr 53 min 42 sec)
Heartbeat CPU 0 instructions: 440000068 cycles: 2631454817 heartbeat IPC: 0.6645 cumulative IPC: 0.1672 (Simulation time: 03 hr 55 min 25 sec)
Heartbeat CPU 0 instructions: 450000068 cycles: 2646407774 heartbeat IPC: 0.6688 cumulative IPC: 0.17 (Simulation time: 03 hr 57 min 03 sec)
Heartbeat CPU 0 instructions: 460000068 cycles: 2661295728 heartbeat IPC: 0.6717 cumulative IPC: 0.1728 (Simulation time: 03 hr 58 min 43 sec)
Heartbeat CPU 0 instructions: 470000068 cycles: 2676303673 heartbeat IPC: 0.6663 cumulative IPC: 0.1756 (Simulation time: 04 hr 00 min 06 sec)
Heartbeat CPU 0 instructions: 480000068 cycles: 2691237595 heartbeat IPC: 0.6696 cumulative IPC: 0.1784 (Simulation time: 04 hr 01 min 33 sec)
Heartbeat CPU 0 instructions: 490000071 cycles: 2706705647 heartbeat IPC: 0.6465 cumulative IPC: 0.181 (Simulation time: 04 hr 03 min 20 sec)
Heartbeat CPU 0 instructions: 500000072 cycles: 2721535226 heartbeat IPC: 0.6743 cumulative IPC: 0.1837 (Simulation time: 04 hr 05 min 10 sec)
Heartbeat CPU 0 instructions: 510000075 cycles: 2736532490 heartbeat IPC: 0.6668 cumulative IPC: 0.1864 (Simulation time: 04 hr 06 min 47 sec)
Heartbeat CPU 0 instructions: 520000079 cycles: 2751569480 heartbeat IPC: 0.665 cumulative IPC: 0.189 (Simulation time: 04 hr 08 min 11 sec)
Heartbeat CPU 0 instructions: 530000080 cycles: 2766462592 heartbeat IPC: 0.6715 cumulative IPC: 0.1916 (Simulation time: 04 hr 09 min 59 sec)
Heartbeat CPU 0 instructions: 540000080 cycles: 2781690263 heartbeat IPC: 0.6567 cumulative IPC: 0.1941 (Simulation time: 04 hr 11 min 50 sec)
Heartbeat CPU 0 instructions: 550000081 cycles: 2796830926 heartbeat IPC: 0.6605 cumulative IPC: 0.1967 (Simulation time: 04 hr 13 min 39 sec)
Heartbeat CPU 0 instructions: 560000082 cycles: 2811837053 heartbeat IPC: 0.6664 cumulative IPC: 0.1992 (Simulation time: 04 hr 15 min 27 sec)
Heartbeat CPU 0 instructions: 570000082 cycles: 2827057663 heartbeat IPC: 0.657 cumulative IPC: 0.2016 (Simulation time: 04 hr 16 min 57 sec)
[ERROR_CYCLE] Error added at CPU cycle 2833935258, interval 11, pending count: 1
[DRAM_CYCLE_ERROR] Cycle-based error applied! address=0x17d46fdc10 additional_latency=2459910500 cycles
Heartbeat CPU 0 instructions: 580000085 cycles: 2842055009 heartbeat IPC: 0.6668 cumulative IPC: 0.2041 (Simulation time: 04 hr 18 min 39 sec)
Heartbeat CPU 0 instructions: 590000085 cycles: 2857241648 heartbeat IPC: 0.6585 cumulative IPC: 0.2065 (Simulation time: 04 hr 20 min 10 sec)
Heartbeat CPU 0 instructions: 600000086 cycles: 2872206999 heartbeat IPC: 0.6682 cumulative IPC: 0.2089 (Simulation time: 04 hr 21 min 42 sec)
Heartbeat CPU 0 instructions: 610000086 cycles: 2887104749 heartbeat IPC: 0.6712 cumulative IPC: 0.2113 (Simulation time: 04 hr 23 min 02 sec)
Heartbeat CPU 0 instructions: 620000090 cycles: 2902363361 heartbeat IPC: 0.6554 cumulative IPC: 0.2136 (Simulation time: 04 hr 24 min 43 sec)
Heartbeat CPU 0 instructions: 630000094 cycles: 2917426646 heartbeat IPC: 0.6639 cumulative IPC: 0.2159 (Simulation time: 04 hr 26 min 29 sec)
Heartbeat CPU 0 instructions: 640000095 cycles: 2932684940 heartbeat IPC: 0.6554 cumulative IPC: 0.2182 (Simulation time: 04 hr 28 min 13 sec)
Heartbeat CPU 0 instructions: 650000098 cycles: 2947792292 heartbeat IPC: 0.6619 cumulative IPC: 0.2205 (Simulation time: 04 hr 29 min 59 sec)
Heartbeat CPU 0 instructions: 660000100 cycles: 2962943699 heartbeat IPC: 0.66 cumulative IPC: 0.2228 (Simulation time: 04 hr 31 min 45 sec)
Heartbeat CPU 0 instructions: 670000101 cycles: 2978019619 heartbeat IPC: 0.6633 cumulative IPC: 0.225 (Simulation time: 04 hr 33 min 34 sec)
Heartbeat CPU 0 instructions: 680000104 cycles: 2993084782 heartbeat IPC: 0.6638 cumulative IPC: 0.2272 (Simulation time: 04 hr 35 min 06 sec)
Heartbeat CPU 0 instructions: 690000108 cycles: 3008028408 heartbeat IPC: 0.6692 cumulative IPC: 0.2294 (Simulation time: 04 hr 36 min 39 sec)
Heartbeat CPU 0 instructions: 700000111 cycles: 3022973042 heartbeat IPC: 0.6691 cumulative IPC: 0.2316 (Simulation time: 04 hr 38 min 15 sec)
Heartbeat CPU 0 instructions: 710000111 cycles: 3038088198 heartbeat IPC: 0.6616 cumulative IPC: 0.2337 (Simulation time: 04 hr 39 min 51 sec)
Heartbeat CPU 0 instructions: 720000111 cycles: 3053239980 heartbeat IPC: 0.66 cumulative IPC: 0.2358 (Simulation time: 04 hr 41 min 28 sec)
Heartbeat CPU 0 instructions: 730000112 cycles: 3068148074 heartbeat IPC: 0.6708 cumulative IPC: 0.2379 (Simulation time: 04 hr 43 min 04 sec)
Heartbeat CPU 0 instructions: 740000114 cycles: 3083270939 heartbeat IPC: 0.6613 cumulative IPC: 0.24 (Simulation time: 04 hr 44 min 44 sec)
[ERROR_CYCLE] Error added at CPU cycle 3091565736, interval 12, pending count: 1
[DRAM_CYCLE_ERROR] Cycle-based error applied! address=0x93744c038 additional_latency=2459910500 cycles
Heartbeat CPU 0 instructions: 750000115 cycles: 3108073958 heartbeat IPC: 0.4032 cumulative IPC: 0.2413 (Simulation time: 04 hr 47 min 10 sec)
Heartbeat CPU 0 instructions: 760000117 cycles: 3123176872 heartbeat IPC: 0.6621 cumulative IPC: 0.2433 (Simulation time: 04 hr 48 min 50 sec)
Heartbeat CPU 0 instructions: 770000119 cycles: 3137899528 heartbeat IPC: 0.6792 cumulative IPC: 0.2454 (Simulation time: 04 hr 50 min 22 sec)
Heartbeat CPU 0 instructions: 780000119 cycles: 3152982844 heartbeat IPC: 0.663 cumulative IPC: 0.2474 (Simulation time: 04 hr 51 min 52 sec)
Heartbeat CPU 0 instructions: 790000119 cycles: 3168005274 heartbeat IPC: 0.6657 cumulative IPC: 0.2494 (Simulation time: 04 hr 53 min 24 sec)
Heartbeat CPU 0 instructions: 800000119 cycles: 3182864512 heartbeat IPC: 0.673 cumulative IPC: 0.2513 (Simulation time: 04 hr 54 min 45 sec)
Heartbeat CPU 0 instructions: 810000119 cycles: 3197764985 heartbeat IPC: 0.6711 cumulative IPC: 0.2533 (Simulation time: 04 hr 56 min 13 sec)
Heartbeat CPU 0 instructions: 820000120 cycles: 3212773680 heartbeat IPC: 0.6663 cumulative IPC: 0.2552 (Simulation time: 04 hr 58 min 04 sec)
Heartbeat CPU 0 instructions: 830000122 cycles: 3227684723 heartbeat IPC: 0.6706 cumulative IPC: 0.2572 (Simulation time: 04 hr 59 min 55 sec)
Heartbeat CPU 0 instructions: 840000126 cycles: 3242399908 heartbeat IPC: 0.6796 cumulative IPC: 0.2591 (Simulation time: 05 hr 01 min 44 sec)
Heartbeat CPU 0 instructions: 850000129 cycles: 3257408161 heartbeat IPC: 0.6663 cumulative IPC: 0.2609 (Simulation time: 05 hr 03 min 20 sec)
Heartbeat CPU 0 instructions: 860000133 cycles: 3272339009 heartbeat IPC: 0.6698 cumulative IPC: 0.2628 (Simulation time: 05 hr 05 min 09 sec)
Heartbeat CPU 0 instructions: 870000136 cycles: 3287219592 heartbeat IPC: 0.672 cumulative IPC: 0.2647 (Simulation time: 05 hr 06 min 58 sec)
Heartbeat CPU 0 instructions: 880000138 cycles: 3302106261 heartbeat IPC: 0.6717 cumulative IPC: 0.2665 (Simulation time: 05 hr 08 min 22 sec)
Heartbeat CPU 0 instructions: 890000138 cycles: 3316956374 heartbeat IPC: 0.6734 cumulative IPC: 0.2683 (Simulation time: 05 hr 10 min 07 sec)
Heartbeat CPU 0 instructions: 900000142 cycles: 3331512123 heartbeat IPC: 0.687 cumulative IPC: 0.2701 (Simulation time: 05 hr 11 min 54 sec)
Heartbeat CPU 0 instructions: 910000142 cycles: 3346328091 heartbeat IPC: 0.6749 cumulative IPC: 0.2719 (Simulation time: 05 hr 13 min 44 sec)
[ERROR_CYCLE] Error added at CPU cycle 3349196215, interval 13, pending count: 1
[DRAM_CYCLE_ERROR] Cycle-based error applied! address=0xe63abf488 additional_latency=2459910500 cycles
Heartbeat CPU 0 instructions: 920000143 cycles: 3371100230 heartbeat IPC: 0.4037 cumulative IPC: 0.2729 (Simulation time: 05 hr 16 min 11 sec)
Heartbeat CPU 0 instructions: 930000144 cycles: 3385656412 heartbeat IPC: 0.687 cumulative IPC: 0.2747 (Simulation time: 05 hr 18 min 01 sec)
Heartbeat CPU 0 instructions: 940000145 cycles: 3400197081 heartbeat IPC: 0.6877 cumulative IPC: 0.2765 (Simulation time: 05 hr 19 min 51 sec)
Heartbeat CPU 0 instructions: 950000146 cycles: 3415092120 heartbeat IPC: 0.6714 cumulative IPC: 0.2782 (Simulation time: 05 hr 21 min 44 sec)
Heartbeat CPU 0 instructions: 960000149 cycles: 3429921853 heartbeat IPC: 0.6743 cumulative IPC: 0.2799 (Simulation time: 05 hr 23 min 36 sec)
Heartbeat CPU 0 instructions: 970000151 cycles: 3444838026 heartbeat IPC: 0.6704 cumulative IPC: 0.2816 (Simulation time: 05 hr 25 min 27 sec)
Heartbeat CPU 0 instructions: 980000151 cycles: 3459503578 heartbeat IPC: 0.6819 cumulative IPC: 0.2833 (Simulation time: 05 hr 26 min 50 sec)
Heartbeat CPU 0 instructions: 990000152 cycles: 3474419954 heartbeat IPC: 0.6704 cumulative IPC: 0.2849 (Simulation time: 05 hr 28 min 41 sec)
Heartbeat CPU 0 instructions: 1000000155 cycles: 3489350543 heartbeat IPC: 0.6698 cumulative IPC: 0.2866 (Simulation time: 05 hr 30 min 29 sec)
Heartbeat CPU 0 instructions: 1010000155 cycles: 3504115328 heartbeat IPC: 0.6773 cumulative IPC: 0.2882 (Simulation time: 05 hr 32 min 13 sec)
Heartbeat CPU 0 instructions: 1020000158 cycles: 3519044885 heartbeat IPC: 0.6698 cumulative IPC: 0.2899 (Simulation time: 05 hr 34 min 03 sec)
Heartbeat CPU 0 instructions: 1030000159 cycles: 3533904350 heartbeat IPC: 0.673 cumulative IPC: 0.2915 (Simulation time: 05 hr 35 min 53 sec)
Heartbeat CPU 0 instructions: 1040000159 cycles: 3548736670 heartbeat IPC: 0.6742 cumulative IPC: 0.2931 (Simulation time: 05 hr 37 min 41 sec)
Heartbeat CPU 0 instructions: 1050000161 cycles: 3563406493 heartbeat IPC: 0.6817 cumulative IPC: 0.2947 (Simulation time: 05 hr 39 min 00 sec)
Heartbeat CPU 0 instructions: 1060000161 cycles: 3578036797 heartbeat IPC: 0.6835 cumulative IPC: 0.2963 (Simulation time: 05 hr 40 min 37 sec)
Heartbeat CPU 0 instructions: 1070000165 cycles: 3592686846 heartbeat IPC: 0.6826 cumulative IPC: 0.2978 (Simulation time: 05 hr 42 min 20 sec)
[ERROR_CYCLE] Error added at CPU cycle 3606826692, interval 14, pending count: 1
[DRAM_CYCLE_ERROR] Cycle-based error applied! address=0x8c29c6d08 additional_latency=2459910500 cycles
Heartbeat CPU 0 instructions: 1080000166 cycles: 3617504221 heartbeat IPC: 0.4029 cumulative IPC: 0.2985 (Simulation time: 05 hr 44 min 36 sec)
Heartbeat CPU 0 instructions: 1090000166 cycles: 3632312506 heartbeat IPC: 0.6753 cumulative IPC: 0.3001 (Simulation time: 05 hr 46 min 03 sec)
Heartbeat CPU 0 instructions: 1100000166 cycles: 3646796700 heartbeat IPC: 0.6904 cumulative IPC: 0.3016 (Simulation time: 05 hr 47 min 40 sec)
Heartbeat CPU 0 instructions: 1110000166 cycles: 3661671261 heartbeat IPC: 0.6723 cumulative IPC: 0.3031 (Simulation time: 05 hr 49 min 30 sec)
Heartbeat CPU 0 instructions: 1120000168 cycles: 3676292616 heartbeat IPC: 0.6839 cumulative IPC: 0.3047 (Simulation time: 05 hr 51 min 19 sec)
Heartbeat CPU 0 instructions: 1130000172 cycles: 3691199407 heartbeat IPC: 0.6708 cumulative IPC: 0.3061 (Simulation time: 05 hr 53 min 09 sec)
Heartbeat CPU 0 instructions: 1140000176 cycles: 3705827901 heartbeat IPC: 0.6836 cumulative IPC: 0.3076 (Simulation time: 05 hr 54 min 55 sec)
Heartbeat CPU 0 instructions: 1150000177 cycles: 3720411561 heartbeat IPC: 0.6857 cumulative IPC: 0.3091 (Simulation time: 05 hr 56 min 42 sec)
Heartbeat CPU 0 instructions: 1160000181 cycles: 3735072980 heartbeat IPC: 0.6821 cumulative IPC: 0.3106 (Simulation time: 05 hr 58 min 31 sec)
Heartbeat CPU 0 instructions: 1170000181 cycles: 3749867526 heartbeat IPC: 0.6759 cumulative IPC: 0.312 (Simulation time: 06 hr 00 min 09 sec)
Heartbeat CPU 0 instructions: 1180000184 cycles: 3764504015 heartbeat IPC: 0.6832 cumulative IPC: 0.3135 (Simulation time: 06 hr 01 min 58 sec)
Heartbeat CPU 0 instructions: 1190000185 cycles: 3779431455 heartbeat IPC: 0.6699 cumulative IPC: 0.3149 (Simulation time: 06 hr 03 min 46 sec)
Heartbeat CPU 0 instructions: 1200000186 cycles: 3794193872 heartbeat IPC: 0.6774 cumulative IPC: 0.3163 (Simulation time: 06 hr 05 min 33 sec)
Heartbeat CPU 0 instructions: 1210000189 cycles: 3808890878 heartbeat IPC: 0.6804 cumulative IPC: 0.3177 (Simulation time: 06 hr 07 min 09 sec)
Heartbeat CPU 0 instructions: 1220000191 cycles: 3823627453 heartbeat IPC: 0.6786 cumulative IPC: 0.3191 (Simulation time: 06 hr 08 min 38 sec)
Heartbeat CPU 0 instructions: 1230000191 cycles: 3838376160 heartbeat IPC: 0.678 cumulative IPC: 0.3204 (Simulation time: 06 hr 10 min 26 sec)
Heartbeat CPU 0 instructions: 1240000191 cycles: 3853055202 heartbeat IPC: 0.6812 cumulative IPC: 0.3218 (Simulation time: 06 hr 12 min 14 sec)
[ERROR_CYCLE] Error added at CPU cycle 3864457171, interval 15, pending count: 1
[DRAM_CYCLE_ERROR] Cycle-based error applied! address=0x14f4d22488 additional_latency=2459910500 cycles
Heartbeat CPU 0 instructions: 1250000193 cycles: 3867817106 heartbeat IPC: 0.6774 cumulative IPC: 0.3232 (Simulation time: 06 hr 14 min 02 sec)
Heartbeat CPU 0 instructions: 1260000195 cycles: 3882518620 heartbeat IPC: 0.6802 cumulative IPC: 0.3245 (Simulation time: 06 hr 15 min 33 sec)
Heartbeat CPU 0 instructions: 1270000195 cycles: 3897160601 heartbeat IPC: 0.683 cumulative IPC: 0.3259 (Simulation time: 06 hr 17 min 10 sec)
Heartbeat CPU 0 instructions: 1280000195 cycles: 3911937399 heartbeat IPC: 0.6767 cumulative IPC: 0.3272 (Simulation time: 06 hr 18 min 36 sec)
Heartbeat CPU 0 instructions: 1290000195 cycles: 3926841028 heartbeat IPC: 0.671 cumulative IPC: 0.3285 (Simulation time: 06 hr 19 min 48 sec)
Heartbeat CPU 0 instructions: 1300000195 cycles: 3941471703 heartbeat IPC: 0.6835 cumulative IPC: 0.3298 (Simulation time: 06 hr 21 min 34 sec)
Heartbeat CPU 0 instructions: 1310000199 cycles: 3956020440 heartbeat IPC: 0.6873 cumulative IPC: 0.3311 (Simulation time: 06 hr 23 min 21 sec)
Heartbeat CPU 0 instructions: 1320000200 cycles: 3970876026 heartbeat IPC: 0.6731 cumulative IPC: 0.3324 (Simulation time: 06 hr 25 min 09 sec)
Heartbeat CPU 0 instructions: 1330000200 cycles: 3985517815 heartbeat IPC: 0.683 cumulative IPC: 0.3337 (Simulation time: 06 hr 26 min 57 sec)
Heartbeat CPU 0 instructions: 1340000202 cycles: 4000215807 heartbeat IPC: 0.6804 cumulative IPC: 0.335 (Simulation time: 06 hr 28 min 18 sec)
Heartbeat CPU 0 instructions: 1350000205 cycles: 4015048112 heartbeat IPC: 0.6742 cumulative IPC: 0.3362 (Simulation time: 06 hr 30 min 02 sec)
Heartbeat CPU 0 instructions: 1360000205 cycles: 4029542597 heartbeat IPC: 0.6899 cumulative IPC: 0.3375 (Simulation time: 06 hr 31 min 24 sec)
Heartbeat CPU 0 instructions: 1370000207 cycles: 4044338073 heartbeat IPC: 0.6759 cumulative IPC: 0.3387 (Simulation time: 06 hr 32 min 47 sec)
Heartbeat CPU 0 instructions: 1380000207 cycles: 4059136743 heartbeat IPC: 0.6757 cumulative IPC: 0.34 (Simulation time: 06 hr 34 min 11 sec)
Heartbeat CPU 0 instructions: 1390000207 cycles: 4073951987 heartbeat IPC: 0.675 cumulative IPC: 0.3412 (Simulation time: 06 hr 35 min 55 sec)
Heartbeat CPU 0 instructions: 1400000207 cycles: 4088641442 heartbeat IPC: 0.6808 cumulative IPC: 0.3424 (Simulation time: 06 hr 37 min 38 sec)
Heartbeat CPU 0 instructions: 1410000207 cycles: 4103459901 heartbeat IPC: 0.6748 cumulative IPC: 0.3436 (Simulation time: 06 hr 39 min 13 sec)
Heartbeat CPU 0 instructions: 1420000207 cycles: 4118388977 heartbeat IPC: 0.6698 cumulative IPC: 0.3448 (Simulation time: 06 hr 41 min 02 sec)
[ERROR_CYCLE] Error added at CPU cycle 4122087648, interval 16, pending count: 1
[DRAM_CYCLE_ERROR] Cycle-based error applied! address=0xbf439dd80 additional_latency=2459910500 cycles
Heartbeat CPU 0 instructions: 1430000211 cycles: 4143081436 heartbeat IPC: 0.405 cumulative IPC: 0.3452 (Simulation time: 06 hr 43 min 29 sec)
Heartbeat CPU 0 instructions: 1440000213 cycles: 4158051773 heartbeat IPC: 0.668 cumulative IPC: 0.3463 (Simulation time: 06 hr 44 min 53 sec)
Heartbeat CPU 0 instructions: 1450000215 cycles: 4172498276 heartbeat IPC: 0.6922 cumulative IPC: 0.3475 (Simulation time: 06 hr 46 min 13 sec)
Heartbeat CPU 0 instructions: 1460000218 cycles: 4187291904 heartbeat IPC: 0.676 cumulative IPC: 0.3487 (Simulation time: 06 hr 47 min 49 sec)
Heartbeat CPU 0 instructions: 1470000218 cycles: 4201938945 heartbeat IPC: 0.6827 cumulative IPC: 0.3498 (Simulation time: 06 hr 49 min 19 sec)
Heartbeat CPU 0 instructions: 1480000218 cycles: 4216677088 heartbeat IPC: 0.6785 cumulative IPC: 0.351 (Simulation time: 06 hr 51 min 01 sec)
Heartbeat CPU 0 instructions: 1490000222 cycles: 4231365054 heartbeat IPC: 0.6808 cumulative IPC: 0.3521 (Simulation time: 06 hr 52 min 50 sec)
Heartbeat CPU 0 instructions: 1500000226 cycles: 4246142125 heartbeat IPC: 0.6767 cumulative IPC: 0.3533 (Simulation time: 06 hr 54 min 40 sec)
Heartbeat CPU 0 instructions: 1510000228 cycles: 4260925280 heartbeat IPC: 0.6764 cumulative IPC: 0.3544 (Simulation time: 06 hr 56 min 27 sec)
Heartbeat CPU 0 instructions: 1520000228 cycles: 4275711479 heartbeat IPC: 0.6763 cumulative IPC: 0.3555 (Simulation time: 06 hr 58 min 04 sec)
Heartbeat CPU 0 instructions: 1530000229 cycles: 4290640286 heartbeat IPC: 0.6698 cumulative IPC: 0.3566 (Simulation time: 06 hr 59 min 35 sec)
Heartbeat CPU 0 instructions: 1540000230 cycles: 4305510132 heartbeat IPC: 0.6725 cumulative IPC: 0.3577 (Simulation time: 07 hr 01 min 06 sec)
Heartbeat CPU 0 instructions: 1550000233 cycles: 4320619734 heartbeat IPC: 0.6618 cumulative IPC: 0.3587 (Simulation time: 07 hr 02 min 32 sec)
Heartbeat CPU 0 instructions: 1560000236 cycles: 4335555114 heartbeat IPC: 0.6696 cumulative IPC: 0.3598 (Simulation time: 07 hr 04 min 22 sec)
Heartbeat CPU 0 instructions: 1570000239 cycles: 4350552524 heartbeat IPC: 0.6668 cumulative IPC: 0.3609 (Simulation time: 07 hr 06 min 10 sec)
Heartbeat CPU 0 instructions: 1580000242 cycles: 4365693451 heartbeat IPC: 0.6605 cumulative IPC: 0.3619 (Simulation time: 07 hr 08 min 01 sec)
[ERROR_CYCLE] Error added at CPU cycle 4379718127, interval 17, pending count: 1
[DRAM_CYCLE_ERROR] Cycle-based error applied! address=0xf6bc44830 additional_latency=2459910500 cycles
Simulation CPU 0 warning: IPC 0.028584 < 0.05
Heartbeat CPU 0 instructions: 1590000245 cycles: 4390641809 heartbeat IPC: 0.4008 cumulative IPC: 0.3621 (Simulation time: 07 hr 10 min 40 sec)
Heartbeat CPU 0 instructions: 1600000249 cycles: 4405619158 heartbeat IPC: 0.6677 cumulative IPC: 0.3632 (Simulation time: 07 hr 12 min 31 sec)
Heartbeat CPU 0 instructions: 1610000250 cycles: 4420598527 heartbeat IPC: 0.6676 cumulative IPC: 0.3642 (Simulation time: 07 hr 14 min 09 sec)
Heartbeat CPU 0 instructions: 1620000253 cycles: 4435576027 heartbeat IPC: 0.6677 cumulative IPC: 0.3652 (Simulation time: 07 hr 15 min 47 sec)
Heartbeat CPU 0 instructions: 1630000253 cycles: 4450653264 heartbeat IPC: 0.6633 cumulative IPC: 0.3662 (Simulation time: 07 hr 17 min 31 sec)
Heartbeat CPU 0 instructions: 1640000255 cycles: 4465565827 heartbeat IPC: 0.6706 cumulative IPC: 0.3673 (Simulation time: 07 hr 18 min 52 sec)
Heartbeat CPU 0 instructions: 1650000258 cycles: 4480509891 heartbeat IPC: 0.6692 cumulative IPC: 0.3683 (Simulation time: 07 hr 20 min 44 sec)
Heartbeat CPU 0 instructions: 1660000261 cycles: 4495550320 heartbeat IPC: 0.6649 cumulative IPC: 0.3693 (Simulation time: 07 hr 22 min 22 sec)
Heartbeat CPU 0 instructions: 1670000263 cycles: 4510551503 heartbeat IPC: 0.6666 cumulative IPC: 0.3702 (Simulation time: 07 hr 24 min 09 sec)
Heartbeat CPU 0 instructions: 1680000266 cycles: 4525691618 heartbeat IPC: 0.6605 cumulative IPC: 0.3712 (Simulation time: 07 hr 25 min 54 sec)
Heartbeat CPU 0 instructions: 1690000270 cycles: 4540733337 heartbeat IPC: 0.6648 cumulative IPC: 0.3722 (Simulation time: 07 hr 27 min 21 sec)
Heartbeat CPU 0 instructions: 1700000271 cycles: 4555772782 heartbeat IPC: 0.6649 cumulative IPC: 0.3732 (Simulation time: 07 hr 28 min 47 sec)
Heartbeat CPU 0 instructions: 1710000271 cycles: 4570726708 heartbeat IPC: 0.6687 cumulative IPC: 0.3741 (Simulation time: 07 hr 30 min 31 sec)
Heartbeat CPU 0 instructions: 1720000274 cycles: 4585832879 heartbeat IPC: 0.662 cumulative IPC: 0.3751 (Simulation time: 07 hr 32 min 04 sec)
Heartbeat CPU 0 instructions: 1730000275 cycles: 4601065752 heartbeat IPC: 0.6565 cumulative IPC: 0.376 (Simulation time: 07 hr 33 min 21 sec)
Heartbeat CPU 0 instructions: 1740000278 cycles: 4615913649 heartbeat IPC: 0.6735 cumulative IPC: 0.377 (Simulation time: 07 hr 35 min 03 sec)
Heartbeat CPU 0 instructions: 1750000280 cycles: 4630829816 heartbeat IPC: 0.6704 cumulative IPC: 0.3779 (Simulation time: 07 hr 36 min 55 sec)
[ERROR_CYCLE] Error added at CPU cycle 4637348604, interval 18, pending count: 1
[DRAM_CYCLE_ERROR] Cycle-based error applied! address=0x1e8deff928 additional_latency=2459910500 cycles
Heartbeat CPU 0 instructions: 1760000280 cycles: 4645995263 heartbeat IPC: 0.6594 cumulative IPC: 0.3788 (Simulation time: 07 hr 38 min 44 sec)
Heartbeat CPU 0 instructions: 1770000282 cycles: 4661183074 heartbeat IPC: 0.6584 cumulative IPC: 0.3797 (Simulation time: 07 hr 40 min 22 sec)
Heartbeat CPU 0 instructions: 1780000282 cycles: 4676169239 heartbeat IPC: 0.6673 cumulative IPC: 0.3807 (Simulation time: 07 hr 42 min 13 sec)
Heartbeat CPU 0 instructions: 1790000283 cycles: 4691131252 heartbeat IPC: 0.6684 cumulative IPC: 0.3816 (Simulation time: 07 hr 44 min 03 sec)
Heartbeat CPU 0 instructions: 1800000284 cycles: 4706141168 heartbeat IPC: 0.6662 cumulative IPC: 0.3825 (Simulation time: 07 hr 45 min 55 sec)
Heartbeat CPU 0 instructions: 1810000288 cycles: 4721011419 heartbeat IPC: 0.6725 cumulative IPC: 0.3834 (Simulation time: 07 hr 47 min 28 sec)
Heartbeat CPU 0 instructions: 1820000288 cycles: 4736193101 heartbeat IPC: 0.6587 cumulative IPC: 0.3843 (Simulation time: 07 hr 49 min 21 sec)
Heartbeat CPU 0 instructions: 1830000289 cycles: 4751075104 heartbeat IPC: 0.672 cumulative IPC: 0.3852 (Simulation time: 07 hr 50 min 40 sec)
Heartbeat CPU 0 instructions: 1840000289 cycles: 4766012488 heartbeat IPC: 0.6695 cumulative IPC: 0.3861 (Simulation time: 07 hr 52 min 30 sec)
Heartbeat CPU 0 instructions: 1850000292 cycles: 4781027631 heartbeat IPC: 0.666 cumulative IPC: 0.3869 (Simulation time: 07 hr 54 min 21 sec)
Heartbeat CPU 0 instructions: 1860000292 cycles: 4796062747 heartbeat IPC: 0.6651 cumulative IPC: 0.3878 (Simulation time: 07 hr 56 min 12 sec)
Heartbeat CPU 0 instructions: 1870000296 cycles: 4811142051 heartbeat IPC: 0.6632 cumulative IPC: 0.3887 (Simulation time: 07 hr 58 min 04 sec)
Heartbeat CPU 0 instructions: 1880000298 cycles: 4826105748 heartbeat IPC: 0.6683 cumulative IPC: 0.3895 (Simulation time: 07 hr 59 min 37 sec)
Heartbeat CPU 0 instructions: 1890000302 cycles: 4840972749 heartbeat IPC: 0.6726 cumulative IPC: 0.3904 (Simulation time: 08 hr 01 min 05 sec)
Heartbeat CPU 0 instructions: 1900000302 cycles: 4855885845 heartbeat IPC: 0.6706 cumulative IPC: 0.3913 (Simulation time: 08 hr 02 min 45 sec)
Heartbeat CPU 0 instructions: 1910000305 cycles: 4870706020 heartbeat IPC: 0.6748 cumulative IPC: 0.3921 (Simulation time: 08 hr 04 min 14 sec)
Heartbeat CPU 0 instructions: 1920000307 cycles: 4885867086 heartbeat IPC: 0.6596 cumulative IPC: 0.393 (Simulation time: 08 hr 05 min 54 sec)
[ERROR_CYCLE] Error added at CPU cycle 4894979082, interval 19, pending count: 1
[DRAM_CYCLE_ERROR] Cycle-based error applied! address=0x90955c50 additional_latency=2459910500 cycles
Heartbeat CPU 0 instructions: 1930000310 cycles: 4910829957 heartbeat IPC: 0.4006 cumulative IPC: 0.393 (Simulation time: 08 hr 08 min 32 sec)
Heartbeat CPU 0 instructions: 1940000310 cycles: 4925765953 heartbeat IPC: 0.6695 cumulative IPC: 0.3938 (Simulation time: 08 hr 10 min 18 sec)
Heartbeat CPU 0 instructions: 1950000311 cycles: 4940734900 heartbeat IPC: 0.668 cumulative IPC: 0.3947 (Simulation time: 08 hr 11 min 48 sec)
Heartbeat CPU 0 instructions: 1960000313 cycles: 4955552268 heartbeat IPC: 0.6749 cumulative IPC: 0.3955 (Simulation time: 08 hr 13 min 38 sec)
Heartbeat CPU 0 instructions: 1970000313 cycles: 4970392458 heartbeat IPC: 0.6738 cumulative IPC: 0.3963 (Simulation time: 08 hr 15 min 28 sec)
Heartbeat CPU 0 instructions: 1980000314 cycles: 4985244279 heartbeat IPC: 0.6733 cumulative IPC: 0.3972 (Simulation time: 08 hr 17 min 18 sec)
Heartbeat CPU 0 instructions: 1990000314 cycles: 5000000710 heartbeat IPC: 0.6777 cumulative IPC: 0.398 (Simulation time: 08 hr 19 min 07 sec)

=== ERROR PAGE STATISTICS ===
Mode: CYCLE
Error Cycle Interval: 257630478 CPU cycles
Total Error Accesses: 19
==============================
Simulation finished CPU 0 instructions: 1999999986 cycles: 5014736585 cumulative IPC: 0.3988 (Simulation time: 08 hr 20 min 57 sec)
Simulation complete CPU 0 instructions: 1999999986 cycles: 5014736585 cumulative IPC: 0.3988 (Simulation time: 08 hr 20 min 57 sec)

ChampSim completed all CPUs

=== Simulation ===
CPU 0 runs test_traces/620.omnetpp_s-141B.champsimtrace.xz

Region of Interest Statistics

CPU 0 cumulative IPC: 0.3988 instructions: 1999999986 cycles: 5014736585
CPU 0 Branch Prediction Accuracy: 92.96% MPKI: 14.8 Average ROB Occupancy at Mispredict: 42.45
Branch type MPKI
BRANCH_DIRECT_JUMP: 0.8484
BRANCH_INDIRECT: 0.3555
BRANCH_CONDITIONAL: 12.32
BRANCH_DIRECT_CALL: 0.0001295
BRANCH_INDIRECT_CALL: 0.8457
BRANCH_RETURN: 0.4309

cpu0->cpu0_STLB TOTAL        ACCESS:    7943769 HIT:    7943542 MISS:        227 MSHR_MERGE:          0
cpu0->cpu0_STLB LOAD         ACCESS:    7943769 HIT:    7943542 MISS:        227 MSHR_MERGE:          0
cpu0->cpu0_STLB RFO          ACCESS:          0 HIT:          0 MISS:          0 MSHR_MERGE:          0
cpu0->cpu0_STLB PREFETCH     ACCESS:          0 HIT:          0 MISS:          0 MSHR_MERGE:          0
cpu0->cpu0_STLB WRITE        ACCESS:          0 HIT:          0 MISS:          0 MSHR_MERGE:          0
cpu0->cpu0_STLB TRANSLATION  ACCESS:          0 HIT:          0 MISS:          0 MSHR_MERGE:          0
cpu0->cpu0_STLB PREFETCH REQUESTED:          0 ISSUED:          0 USEFUL:          0 USELESS:          0
cpu0->cpu0_STLB AVERAGE MISS LATENCY: 9.408e+06 cycles
cpu0->cpu0_L2C TOTAL        ACCESS:   56648324 HIT:   29476089 MISS:   27172235 MSHR_MERGE:          0
cpu0->cpu0_L2C LOAD         ACCESS:   33707151 HIT:   10164102 MISS:   23543049 MSHR_MERGE:          0
cpu0->cpu0_L2C RFO          ACCESS:    4839170 HIT:    1233027 MISS:    3606143 MSHR_MERGE:          0
cpu0->cpu0_L2C PREFETCH     ACCESS:          0 HIT:          0 MISS:          0 MSHR_MERGE:          0
cpu0->cpu0_L2C WRITE        ACCESS:   18102003 HIT:   18078960 MISS:      23043 MSHR_MERGE:          0
cpu0->cpu0_L2C TRANSLATION  ACCESS:          0 HIT:          0 MISS:          0 MSHR_MERGE:          0
cpu0->cpu0_L2C PREFETCH REQUESTED:          0 ISSUED:          0 USEFUL:          0 USELESS:          0
cpu0->cpu0_L2C AVERAGE MISS LATENCY: 95.61 cycles
cpu0->cpu0_L1I TOTAL        ACCESS:  267256242 HIT:  265533359 MISS:    1722883 MSHR_MERGE:     435797
cpu0->cpu0_L1I LOAD         ACCESS:  267256242 HIT:  265533359 MISS:    1722883 MSHR_MERGE:     435797
cpu0->cpu0_L1I RFO          ACCESS:          0 HIT:          0 MISS:          0 MSHR_MERGE:          0
cpu0->cpu0_L1I PREFETCH     ACCESS:          0 HIT:          0 MISS:          0 MSHR_MERGE:          0
cpu0->cpu0_L1I WRITE        ACCESS:          0 HIT:          0 MISS:          0 MSHR_MERGE:          0
cpu0->cpu0_L1I TRANSLATION  ACCESS:          0 HIT:          0 MISS:          0 MSHR_MERGE:          0
cpu0->cpu0_L1I PREFETCH REQUESTED:          0 ISSUED:          0 USEFUL:          0 USELESS:          0
cpu0->cpu0_L1I AVERAGE MISS LATENCY: 12.04 cycles
cpu0->cpu0_L1D TOTAL        ACCESS:  808786411 HIT:  751455599 MISS:   57330812 MSHR_MERGE:   20071440
cpu0->cpu0_L1D LOAD         ACCESS:  441103401 HIT:  397763558 MISS:   43339843 MSHR_MERGE:   10919687
cpu0->cpu0_L1D RFO          ACCESS:          0 HIT:          0 MISS:          0 MSHR_MERGE:          0
cpu0->cpu0_L1D PREFETCH     ACCESS:          0 HIT:          0 MISS:          0 MSHR_MERGE:          0
cpu0->cpu0_L1D WRITE        ACCESS:  367683010 HIT:  353692041 MISS:   13990969 MSHR_MERGE:    9151753
cpu0->cpu0_L1D TRANSLATION  ACCESS:          0 HIT:          0 MISS:          0 MSHR_MERGE:          0
cpu0->cpu0_L1D PREFETCH REQUESTED:          0 ISSUED:          0 USEFUL:          0 USELESS:          0
cpu0->cpu0_L1D AVERAGE MISS LATENCY: 78.37 cycles
cpu0->cpu0_ITLB TOTAL        ACCESS:  234322592 HIT:  234322588 MISS:          4 MSHR_MERGE:          1
cpu0->cpu0_ITLB LOAD         ACCESS:  234322592 HIT:  234322588 MISS:          4 MSHR_MERGE:          1
cpu0->cpu0_ITLB RFO          ACCESS:          0 HIT:          0 MISS:          0 MSHR_MERGE:          0
cpu0->cpu0_ITLB PREFETCH     ACCESS:          0 HIT:          0 MISS:          0 MSHR_MERGE:          0
cpu0->cpu0_ITLB WRITE        ACCESS:          0 HIT:          0 MISS:          0 MSHR_MERGE:          0
cpu0->cpu0_ITLB TRANSLATION  ACCESS:          0 HIT:          0 MISS:          0 MSHR_MERGE:          0
cpu0->cpu0_ITLB PREFETCH REQUESTED:          0 ISSUED:          0 USEFUL:          0 USELESS:          0
cpu0->cpu0_ITLB AVERAGE MISS LATENCY: 1.232e+07 cycles
cpu0->cpu0_DTLB TOTAL        ACCESS:  689735874 HIT:  680452725 MISS:    9283149 MSHR_MERGE:    1339383
cpu0->cpu0_DTLB LOAD         ACCESS:  689735874 HIT:  680452725 MISS:    9283149 MSHR_MERGE:    1339383
cpu0->cpu0_DTLB RFO          ACCESS:          0 HIT:          0 MISS:          0 MSHR_MERGE:          0
cpu0->cpu0_DTLB PREFETCH     ACCESS:          0 HIT:          0 MISS:          0 MSHR_MERGE:          0
cpu0->cpu0_DTLB WRITE        ACCESS:          0 HIT:          0 MISS:          0 MSHR_MERGE:          0
cpu0->cpu0_DTLB TRANSLATION  ACCESS:          0 HIT:          0 MISS:          0 MSHR_MERGE:          0
cpu0->cpu0_DTLB PREFETCH REQUESTED:          0 ISSUED:          0 USEFUL:          0 USELESS:          0
cpu0->cpu0_DTLB AVERAGE MISS LATENCY: 269.2 cycles
cpu0->LLC TOTAL        ACCESS:   40303002 HIT:   19732318 MISS:   20570684 MSHR_MERGE:          0
cpu0->LLC LOAD         ACCESS:   23543047 HIT:    5179965 MISS:   18363082 MSHR_MERGE:          0
cpu0->LLC RFO          ACCESS:    3606143 HIT:    1446360 MISS:    2159783 MSHR_MERGE:          0
cpu0->LLC PREFETCH     ACCESS:          0 HIT:          0 MISS:          0 MSHR_MERGE:          0
cpu0->LLC WRITE        ACCESS:   13153812 HIT:   13105993 MISS:      47819 MSHR_MERGE:          0
cpu0->LLC TRANSLATION  ACCESS:          0 HIT:          0 MISS:          0 MSHR_MERGE:          0
cpu0->LLC PREFETCH REQUESTED:          0 ISSUED:          0 USEFUL:          0 USELESS:          0
cpu0->LLC AVERAGE MISS LATENCY: 105.5 cycles

DRAM Statistics

Channel 0 RQ ROW_BUFFER_HIT:     356926
  ROW_BUFFER_MISS:    9905920
  AVG DBUS CONGESTED CYCLE: 13.54
Channel 0 WQ ROW_BUFFER_HIT:     750233
  ROW_BUFFER_MISS:    3998262
  FULL:          0
Channel 0 REFRESHES ISSUED:     417867

Channel 1 RQ ROW_BUFFER_HIT:     358948
  ROW_BUFFER_MISS:    9901504
  AVG DBUS CONGESTED CYCLE: 13.53
Channel 1 WQ ROW_BUFFER_HIT:     749324
  ROW_BUFFER_MISS:    4003936
  FULL:          0
Channel 1 REFRESHES ISSUED:     417867
