
*** ChampSim Multicore Out-of-Order Simulator ***
Warmup Instructions: 0
Simulation Instructions: 9223372036854775807
Number of CPUs: 1
Page size: 1048576

Off-chip DRAM Size: 64 GiB Channels: 2 Width: 32-bit Data Rate: 4807 MT/s
[ERROR_PAGE_MANAGER] Error latency: 2459910500 
[ERROR_PAGE_MANAGER] Random seed: 54321 (fixed for preload reproducibility)
[ERROR_PAGE_MANAGER] Cycle-based error modeling enabled
[ERROR_PAGE_MANAGER] Errors per interval: 1
[ERROR_PAGE_MANAGER] Error cycle interval: 464841614 cycles

=== ERROR PAGE STATISTICS ===
Mode: CYCLE
Error Cycle Interval: 464841614 CPU cycles
Total Error Accesses: 0
==============================
Warmup finished CPU 0 instructions: 0 cycles: 1 cumulative IPC: 0 (Simulation time: 00 hr 00 min 00 sec)
Warmup complete CPU 0 instructions: 0 cycles: 1 cumulative IPC: 0 (Simulation time: 00 hr 00 min 00 sec)
Simulation CPU 0 panic: IPC 0 < 0.01
Simulation CPU 0 panic: IPC 0 < 0.01
Simulation CPU 0 panic: IPC 0 < 0.01
Simulation CPU 0 panic: IPC 5e-07 < 0.01
Simulation CPU 0 panic: IPC 1.1e-06 < 0.01
Simulation CPU 0 panic: IPC 0 < 0.01
Simulation CPU 0 panic: IPC 8e-06 < 0.01
Simulation CPU 0 panic: IPC 4.54e-05 < 0.01
Simulation CPU 0 panic: IPC 0.0001128 < 0.01
Simulation CPU 0 panic: IPC 0.0001051 < 0.01
Simulation CPU 0 panic: IPC 0.0026152 < 0.01
Simulation CPU 0 panic: IPC 3.34e-05 < 0.01
Simulation CPU 0 panic: IPC 0.0010197 < 0.01
Simulation CPU 0 panic: IPC 7e-06 < 0.01
Simulation CPU 0 panic: IPC 6.5e-06 < 0.01
Simulation CPU 0 panic: IPC 2.05e-05 < 0.01
Simulation CPU 0 panic: IPC 1.14e-05 < 0.01
Simulation CPU 0 panic: IPC 2.72e-05 < 0.01
Simulation CPU 0 panic: IPC 0.00025 < 0.01
Simulation CPU 0 panic: IPC 0.0001349 < 0.01
Simulation CPU 0 panic: IPC 0 < 0.01
Simulation CPU 0 panic: IPC 0.0004092 < 0.01
Simulation CPU 0 panic: IPC 0.000361 < 0.01
Simulation CPU 0 panic: IPC 0.0001798 < 0.01
Simulation CPU 0 panic: IPC 0.0005803 < 0.01
Simulation CPU 0 warning: IPC 0.026295 < 0.05
Simulation CPU 0 panic: IPC 4.9e-06 < 0.01
Simulation CPU 0 panic: IPC 4.4e-06 < 0.01
Simulation CPU 0 panic: IPC 1.52e-05 < 0.01
Simulation CPU 0 panic: IPC 7.6e-06 < 0.01
Simulation CPU 0 panic: IPC 7.1e-06 < 0.01
Simulation CPU 0 panic: IPC 1.75e-05 < 0.01
Simulation CPU 0 panic: IPC 1e-05 < 0.01
Simulation CPU 0 panic: IPC 4.3e-06 < 0.01
Simulation CPU 0 panic: IPC 9.6e-06 < 0.01
Simulation CPU 0 panic: IPC 2.45e-05 < 0.01
Simulation CPU 0 panic: IPC 2.87e-05 < 0.01
Simulation CPU 0 panic: IPC 1.96e-05 < 0.01
Simulation CPU 0 panic: IPC 4.6e-06 < 0.01
Simulation CPU 0 panic: IPC 1.42e-05 < 0.01
Simulation CPU 0 panic: IPC 1.24e-05 < 0.01
Simulation CPU 0 panic: IPC 3e-05 < 0.01
Simulation CPU 0 panic: IPC 5.34e-05 < 0.01
Simulation CPU 0 panic: IPC 3.88e-05 < 0.01
Simulation CPU 0 panic: IPC 2.17e-05 < 0.01
Simulation CPU 0 panic: IPC 3.42e-05 < 0.01
[ERROR_CYCLE] Error added at CPU cycle 464841614, interval 1, pending count: 1
[DRAM_CYCLE_ERROR] Cycle-based error applied! address=0x537c49888 additional_latency=2459910500 cycles
Simulation CPU 0 panic: IPC 6.8e-06 < 0.01
Simulation CPU 0 panic: IPC 2.8e-06 < 0.01
Simulation CPU 0 panic: IPC 3.96e-05 < 0.01
Simulation CPU 0 panic: IPC 5.63e-05 < 0.01
Simulation CPU 0 panic: IPC 4.17e-05 < 0.01
Simulation CPU 0 panic: IPC 1.71e-05 < 0.01
Simulation CPU 0 panic: IPC 1.43e-05 < 0.01
Simulation CPU 0 panic: IPC 5.89e-05 < 0.01
Simulation CPU 0 panic: IPC 6.6e-06 < 0.01
Simulation CPU 0 panic: IPC 1.53e-05 < 0.01
Simulation CPU 0 panic: IPC 1.18e-05 < 0.01
Simulation CPU 0 panic: IPC 0.0001261 < 0.01
Simulation CPU 0 panic: IPC 2.42e-05 < 0.01
Simulation CPU 0 panic: IPC 0.0001872 < 0.01
Simulation CPU 0 panic: IPC 7.6e-06 < 0.01
Simulation CPU 0 panic: IPC 0.0001278 < 0.01
Simulation CPU 0 panic: IPC 9.56e-05 < 0.01
Simulation CPU 0 panic: IPC 0.0001305 < 0.01
Simulation CPU 0 panic: IPC 6.93e-05 < 0.01
Simulation CPU 0 panic: IPC 8.56e-05 < 0.01
Simulation CPU 0 panic: IPC 0 < 0.01
Simulation CPU 0 panic: IPC 0.0001422 < 0.01
Simulation CPU 0 panic: IPC 0.0002701 < 0.01
Simulation CPU 0 panic: IPC 9.4e-06 < 0.01
Simulation CPU 0 panic: IPC 4.54e-05 < 0.01
Simulation CPU 0 panic: IPC 7.23e-05 < 0.01
Simulation CPU 0 panic: IPC 2.85e-05 < 0.01
Simulation CPU 0 panic: IPC 3.84e-05 < 0.01
Simulation CPU 0 panic: IPC 1.47e-05 < 0.01
Simulation CPU 0 panic: IPC 0.0002031 < 0.01
Simulation CPU 0 panic: IPC 0.0001284 < 0.01
Simulation CPU 0 panic: IPC 0.0002105 < 0.01
Simulation CPU 0 panic: IPC 0.0007568 < 0.01
Simulation CPU 0 panic: IPC 9.6e-05 < 0.01
Simulation CPU 0 panic: IPC 0.0002754 < 0.01
Simulation CPU 0 panic: IPC 9.35e-05 < 0.01
Simulation CPU 0 panic: IPC 0.0002402 < 0.01
Simulation CPU 0 panic: IPC 7.99e-05 < 0.01
Simulation CPU 0 panic: IPC 8.3e-05 < 0.01
Simulation CPU 0 panic: IPC 0.0001353 < 0.01
Simulation CPU 0 panic: IPC 0.0005871 < 0.01
Simulation CPU 0 panic: IPC 1.46e-05 < 0.01
Simulation CPU 0 panic: IPC 0.0003208 < 0.01
Simulation CPU 0 panic: IPC 0.0003422 < 0.01
Simulation CPU 0 panic: IPC 0.0001082 < 0.01
Simulation CPU 0 panic: IPC 9.6e-06 < 0.01
[ERROR_CYCLE] Error added at CPU cycle 929683228, interval 2, pending count: 1
Simulation CPU 0 panic: IPC 0.0001903 < 0.01
[DRAM_CYCLE_ERROR] Cycle-based error applied! address=0x537c80748 additional_latency=2459910500 cycles
Simulation CPU 0 panic: IPC 0 < 0.01
Simulation CPU 0 panic: IPC 0.0006171 < 0.01
Simulation CPU 0 panic: IPC 0.0001232 < 0.01
Simulation CPU 0 panic: IPC 0.0010295 < 0.01
Simulation CPU 0 panic: IPC 0.0008541 < 0.01
Simulation CPU 0 panic: IPC 0.0006314 < 0.01
Simulation CPU 0 panic: IPC 0.0001833 < 0.01
Simulation CPU 0 panic: IPC 0.0001434 < 0.01
Simulation CPU 0 panic: IPC 4.77e-05 < 0.01
Simulation CPU 0 panic: IPC 0.0008204 < 0.01
Simulation CPU 0 panic: IPC 1.22e-05 < 0.01
Simulation CPU 0 panic: IPC 0.0001603 < 0.01
Simulation CPU 0 panic: IPC 0.0004101 < 0.01
Simulation CPU 0 panic: IPC 0.0006529 < 0.01
Simulation CPU 0 panic: IPC 0.0004779 < 0.01
Simulation CPU 0 panic: IPC 0.0005578 < 0.01
Simulation CPU 0 panic: IPC 7.93e-05 < 0.01
Simulation CPU 0 panic: IPC 0.000243 < 0.01
Simulation CPU 0 panic: IPC 0.0002813 < 0.01
Simulation CPU 0 panic: IPC 5.3e-06 < 0.01
Simulation CPU 0 panic: IPC 0.0004785 < 0.01
Simulation CPU 0 panic: IPC 0.0005448 < 0.01
Simulation CPU 0 panic: IPC 0.0004207 < 0.01
Simulation CPU 0 panic: IPC 0.0004945 < 0.01
Simulation CPU 0 panic: IPC 0.0003328 < 0.01
Simulation CPU 0 panic: IPC 0.0009242 < 0.01
Simulation CPU 0 panic: IPC 0.0010043 < 0.01
Simulation CPU 0 panic: IPC 0.0001551 < 0.01
Simulation CPU 0 panic: IPC 0.0002527 < 0.01
Simulation CPU 0 panic: IPC 0.0006688 < 0.01
Simulation CPU 0 panic: IPC 4.36e-05 < 0.01
Simulation CPU 0 panic: IPC 0.0008939 < 0.01
Simulation CPU 0 panic: IPC 5.1e-06 < 0.01
Simulation CPU 0 panic: IPC 6.3e-06 < 0.01
Simulation CPU 0 panic: IPC 2.01e-05 < 0.01
Simulation CPU 0 panic: IPC 7.1e-06 < 0.01
Simulation CPU 0 panic: IPC 5.1e-06 < 0.01
Simulation CPU 0 panic: IPC 6.6e-06 < 0.01
Simulation CPU 0 panic: IPC 4.6e-06 < 0.01
Simulation CPU 0 panic: IPC 9.2e-06 < 0.01
Simulation CPU 0 panic: IPC 7.4e-06 < 0.01
Simulation CPU 0 panic: IPC 9.4e-06 < 0.01
Simulation CPU 0 panic: IPC 7.1e-06 < 0.01
Simulation CPU 0 panic: IPC 2.5e-06 < 0.01
Simulation CPU 0 panic: IPC 6.6e-06 < 0.01
[ERROR_CYCLE] Error added at CPU cycle 1394524842, interval 3, pending count: 1
[DRAM_CYCLE_ERROR] Cycle-based error applied! address=0x537cbed78 additional_latency=2459910500 cycles
Simulation CPU 0 panic: IPC 1.22e-05 < 0.01
Simulation CPU 0 panic: IPC 9.6e-06 < 0.01
Simulation CPU 0 panic: IPC 1.14e-05 < 0.01
Simulation CPU 0 panic: IPC 2.3e-06 < 0.01
Simulation CPU 0 panic: IPC 9.4e-06 < 0.01
Simulation CPU 0 panic: IPC 1.63e-05 < 0.01
Simulation CPU 0 panic: IPC 2.57e-05 < 0.01
Simulation CPU 0 panic: IPC 9.4e-06 < 0.01
Simulation CPU 0 panic: IPC 2.8e-06 < 0.01
Simulation CPU 0 panic: IPC 6.6e-06 < 0.01
Simulation CPU 0 panic: IPC 1.91e-05 < 0.01
Simulation CPU 0 panic: IPC 1.67e-05 < 0.01
Simulation CPU 0 panic: IPC 8.9e-06 < 0.01
Simulation CPU 0 panic: IPC 5.19e-05 < 0.01
Simulation CPU 0 panic: IPC 1.65e-05 < 0.01
Simulation CPU 0 panic: IPC 1.19e-05 < 0.01
Simulation CPU 0 panic: IPC 4.65e-05 < 0.01
Simulation CPU 0 panic: IPC 9.7e-06 < 0.01
Simulation CPU 0 panic: IPC 2.34e-05 < 0.01
Simulation CPU 0 panic: IPC 9.1e-06 < 0.01
Simulation CPU 0 panic: IPC 4.75e-05 < 0.01
Simulation CPU 0 panic: IPC 7.1e-06 < 0.01
Simulation CPU 0 panic: IPC 6.09e-05 < 0.01
Simulation CPU 0 panic: IPC 1.4e-05 < 0.01
Simulation CPU 0 panic: IPC 2.85e-05 < 0.01
Simulation CPU 0 panic: IPC 2.59e-05 < 0.01
Simulation CPU 0 panic: IPC 1.81e-05 < 0.01
Simulation CPU 0 panic: IPC 2.8e-06 < 0.01
Simulation CPU 0 panic: IPC 1.65e-05 < 0.01
Simulation CPU 0 panic: IPC 1.65e-05 < 0.01
Simulation CPU 0 panic: IPC 4.94e-05 < 0.01
Simulation CPU 0 panic: IPC 4.72e-05 < 0.01
Simulation CPU 0 panic: IPC 5.42e-05 < 0.01
Simulation CPU 0 panic: IPC 7e-05 < 0.01
Simulation CPU 0 panic: IPC 0.0001075 < 0.01
Simulation CPU 0 panic: IPC 4.66e-05 < 0.01
Simulation CPU 0 panic: IPC 1.2e-05 < 0.01
Simulation CPU 0 panic: IPC 5.32e-05 < 0.01
Simulation CPU 0 panic: IPC 5.39e-05 < 0.01
Simulation CPU 0 panic: IPC 5.83e-05 < 0.01
Simulation CPU 0 panic: IPC 7.4e-06 < 0.01
Simulation CPU 0 panic: IPC 9.64e-05 < 0.01
Simulation CPU 0 panic: IPC 3.93e-05 < 0.01
Simulation CPU 0 panic: IPC 4.01e-05 < 0.01
Simulation CPU 0 panic: IPC 5.43e-05 < 0.01
Simulation CPU 0 panic: IPC 3.28e-05 < 0.01
[ERROR_CYCLE] Error added at CPU cycle 1859366456, interval 4, pending count: 1
Simulation CPU 0 panic: IPC 8.15e-05 < 0.01
[DRAM_CYCLE_ERROR] Cycle-based error applied! address=0x8507f6ae8 additional_latency=2459910500 cycles
Simulation CPU 0 panic: IPC 4e-07 < 0.01
Simulation CPU 0 panic: IPC 0.000126 < 0.01
Simulation CPU 0 panic: IPC 5.18e-05 < 0.01
Simulation CPU 0 panic: IPC 0.0001083 < 0.01
Simulation CPU 0 panic: IPC 0.0001309 < 0.01
Simulation CPU 0 panic: IPC 0.0001174 < 0.01
Simulation CPU 0 panic: IPC 0.0001295 < 0.01
Simulation CPU 0 panic: IPC 1.22e-05 < 0.01
Simulation CPU 0 panic: IPC 0.0001157 < 0.01
Simulation CPU 0 panic: IPC 0.0001207 < 0.01
Simulation CPU 0 panic: IPC 8.65e-05 < 0.01
Simulation CPU 0 panic: IPC 0.0002114 < 0.01
Simulation CPU 0 panic: IPC 0.0002879 < 0.01
Simulation CPU 0 panic: IPC 3.03e-05 < 0.01
Simulation CPU 0 panic: IPC 7.25e-05 < 0.01
Simulation CPU 0 panic: IPC 7.52e-05 < 0.01
Simulation CPU 0 panic: IPC 5.14e-05 < 0.01
Simulation CPU 0 panic: IPC 3.01e-05 < 0.01
Simulation CPU 0 panic: IPC 8.75e-05 < 0.01
Simulation CPU 0 panic: IPC 0.0002192 < 0.01
Simulation CPU 0 panic: IPC 5.18e-05 < 0.01
Simulation CPU 0 panic: IPC 0.0001361 < 0.01
Simulation CPU 0 panic: IPC 9.2e-06 < 0.01
Simulation CPU 0 panic: IPC 3.28e-05 < 0.01
Simulation CPU 0 panic: IPC 3.54e-05 < 0.01
Simulation CPU 0 panic: IPC 0.0001211 < 0.01
Simulation CPU 0 panic: IPC 7.1e-06 < 0.01
Simulation CPU 0 panic: IPC 9.19e-05 < 0.01
Simulation CPU 0 panic: IPC 2.57e-05 < 0.01
Simulation CPU 0 panic: IPC 0.0001952 < 0.01
Simulation CPU 0 panic: IPC 5.38e-05 < 0.01
Simulation CPU 0 panic: IPC 0.0003188 < 0.01
Simulation CPU 0 panic: IPC 8.4e-05 < 0.01
Simulation CPU 0 panic: IPC 5.62e-05 < 0.01
Simulation CPU 0 panic: IPC 0.0001369 < 0.01
Simulation CPU 0 panic: IPC 1.35e-05 < 0.01
Simulation CPU 0 panic: IPC 9.4e-06 < 0.01
Simulation CPU 0 panic: IPC 3.56e-05 < 0.01
Simulation CPU 0 panic: IPC 0.0001177 < 0.01
Simulation CPU 0 panic: IPC 0.0001719 < 0.01
Simulation CPU 0 panic: IPC 5.91e-05 < 0.01
Simulation CPU 0 panic: IPC 0.0002348 < 0.01
Simulation CPU 0 panic: IPC 1.17e-05 < 0.01
Simulation CPU 0 panic: IPC 0.0001456 < 0.01
Simulation CPU 0 panic: IPC 7e-05 < 0.01
Simulation CPU 0 panic: IPC 7.07e-05 < 0.01
[ERROR_CYCLE] Error added at CPU cycle 2324208070, interval 5, pending count: 1
[DRAM_CYCLE_ERROR] Cycle-based error applied! address=0xbb58bad70 additional_latency=2459910500 cycles
Simulation CPU 0 panic: IPC 4e-07 < 0.01
Simulation CPU 0 panic: IPC 0.0001795 < 0.01
Simulation CPU 0 panic: IPC 0.0002571 < 0.01
Simulation CPU 0 panic: IPC 8.01e-05 < 0.01
Simulation CPU 0 panic: IPC 2.09e-05 < 0.01
Simulation CPU 0 panic: IPC 0.0001618 < 0.01
Simulation CPU 0 panic: IPC 0.0003496 < 0.01
Simulation CPU 0 panic: IPC 9.9e-06 < 0.01
Simulation CPU 0 panic: IPC 0.0001744 < 0.01
Simulation CPU 0 panic: IPC 0.0002223 < 0.01
Simulation CPU 0 panic: IPC 5.1e-06 < 0.01
Simulation CPU 0 panic: IPC 5e-05 < 0.01
Simulation CPU 0 panic: IPC 3.24e-05 < 0.01
Simulation CPU 0 panic: IPC 7.56e-05 < 0.01
Simulation CPU 0 panic: IPC 0.0001378 < 0.01
Simulation CPU 0 panic: IPC 0.0001715 < 0.01
Simulation CPU 0 panic: IPC 4.89e-05 < 0.01
Simulation CPU 0 panic: IPC 2.37e-05 < 0.01
Simulation CPU 0 panic: IPC 4.61e-05 < 0.01
Simulation CPU 0 panic: IPC 0.0001943 < 0.01
Simulation CPU 0 panic: IPC 0.0001005 < 0.01
Simulation CPU 0 panic: IPC 2.82e-05 < 0.01
Simulation CPU 0 panic: IPC 0.0003203 < 0.01
Simulation CPU 0 panic: IPC 0.0002769 < 0.01
Simulation CPU 0 panic: IPC 0.0005878 < 0.01
Simulation CPU 0 panic: IPC 0.0002437 < 0.01
Simulation CPU 0 panic: IPC 2.82e-05 < 0.01
Simulation CPU 0 panic: IPC 1.66e-05 < 0.01
Simulation CPU 0 panic: IPC 0.0002559 < 0.01
Simulation CPU 0 panic: IPC 0.0002372 < 0.01
Simulation CPU 0 panic: IPC 3.95e-05 < 0.01
Simulation CPU 0 panic: IPC 0.000163 < 0.01
Simulation CPU 0 panic: IPC 0.0001676 < 0.01
Simulation CPU 0 panic: IPC 0.0002414 < 0.01
Simulation CPU 0 panic: IPC 4.16e-05 < 0.01
Simulation CPU 0 panic: IPC 3.72e-05 < 0.01
Simulation CPU 0 panic: IPC 0.0001227 < 0.01
Simulation CPU 0 panic: IPC 0.0002476 < 0.01
Simulation CPU 0 panic: IPC 0.0001958 < 0.01
Simulation CPU 0 panic: IPC 0.0003686 < 0.01
Simulation CPU 0 panic: IPC 0.0001047 < 0.01
Simulation CPU 0 panic: IPC 0.0001047 < 0.01
Simulation CPU 0 panic: IPC 7.88e-05 < 0.01
Simulation CPU 0 panic: IPC 0.0007421 < 0.01
Simulation CPU 0 panic: IPC 7.1e-06 < 0.01
Simulation CPU 0 panic: IPC 4.22e-05 < 0.01
[ERROR_CYCLE] Error added at CPU cycle 2789049684, interval 6, pending count: 1
Simulation CPU 0 panic: IPC 3.03e-05 < 0.01
[DRAM_CYCLE_ERROR] Cycle-based error applied! address=0x7d7266090 additional_latency=2459910500 cycles
Simulation CPU 0 panic: IPC 0 < 0.01
Simulation CPU 0 panic: IPC 0.0006245 < 0.01
Simulation CPU 0 panic: IPC 3.49e-05 < 0.01
Simulation CPU 0 panic: IPC 7.48e-05 < 0.01
Simulation CPU 0 panic: IPC 0.0002813 < 0.01
Simulation CPU 0 panic: IPC 0.0002666 < 0.01
Simulation CPU 0 panic: IPC 0.0003522 < 0.01
Simulation CPU 0 panic: IPC 0.0005807 < 0.01
Simulation CPU 0 panic: IPC 0.0004421 < 0.01
Simulation CPU 0 panic: IPC 0.0003817 < 0.01
Simulation CPU 0 panic: IPC 0.0001007 < 0.01
Simulation CPU 0 panic: IPC 2.53e-05 < 0.01
Simulation CPU 0 panic: IPC 0.0003332 < 0.01
Simulation CPU 0 panic: IPC 7.25e-05 < 0.01
Simulation CPU 0 panic: IPC 2.8e-06 < 0.01
Simulation CPU 0 panic: IPC 7.21e-05 < 0.01
Simulation CPU 0 panic: IPC 0.0003807 < 0.01
Simulation CPU 0 panic: IPC 0.0004946 < 0.01
Simulation CPU 0 panic: IPC 0.0003261 < 0.01
Simulation CPU 0 panic: IPC 0.0004985 < 0.01
Simulation CPU 0 panic: IPC 0.0001152 < 0.01
Simulation CPU 0 panic: IPC 0.0019125 < 0.01
Simulation CPU 0 panic: IPC 6.69e-05 < 0.01
Simulation CPU 0 panic: IPC 1.63e-05 < 0.01
Simulation CPU 0 panic: IPC 0.0004864 < 0.01
Simulation CPU 0 panic: IPC 8.65e-05 < 0.01
Simulation CPU 0 panic: IPC 0.0007665 < 0.01
Simulation CPU 0 panic: IPC 0.0004636 < 0.01
Simulation CPU 0 panic: IPC 0.0003405 < 0.01
Simulation CPU 0 panic: IPC 0.0001647 < 0.01
Simulation CPU 0 panic: IPC 3.01e-05 < 0.01
Simulation CPU 0 panic: IPC 0.000104 < 0.01
Simulation CPU 0 panic: IPC 6.9e-06 < 0.01
Simulation CPU 0 panic: IPC 4.2e-05 < 0.01
Simulation CPU 0 panic: IPC 0.001005 < 0.01
Simulation CPU 0 panic: IPC 0.000117 < 0.01
Simulation CPU 0 panic: IPC 4.2e-05 < 0.01
Simulation CPU 0 panic: IPC 7.98e-05 < 0.01
Simulation CPU 0 panic: IPC 0.0001563 < 0.01
Simulation CPU 0 panic: IPC 0.0002212 < 0.01
Simulation CPU 0 panic: IPC 0.0002193 < 0.01
Simulation CPU 0 panic: IPC 0.0001872 < 0.01
Simulation CPU 0 panic: IPC 0.0014846 < 0.01
Simulation CPU 0 panic: IPC 0.0002043 < 0.01
Simulation CPU 0 panic: IPC 0.0003212 < 0.01
Simulation CPU 0 panic: IPC 0.0006029 < 0.01
[ERROR_CYCLE] Error added at CPU cycle 3253891298, interval 7, pending count: 1
[DRAM_CYCLE_ERROR] Cycle-based error applied! address=0x7d7297ba0 additional_latency=2459910500 cycles
Simulation CPU 0 panic: IPC 0.0002415 < 0.01
Simulation CPU 0 panic: IPC 0.0003871 < 0.01
Simulation CPU 0 panic: IPC 0.0014964 < 0.01
Simulation CPU 0 panic: IPC 0.000788 < 0.01
Simulation CPU 0 panic: IPC 6.58e-05 < 0.01
Simulation CPU 0 panic: IPC 0.000169 < 0.01
Simulation CPU 0 panic: IPC 0.0048339 < 0.01
Simulation CPU 0 panic: IPC 0.0019413 < 0.01
Simulation CPU 0 panic: IPC 7.95e-05 < 0.01
Simulation CPU 0 panic: IPC 0.000563 < 0.01
Simulation CPU 0 panic: IPC 6.52e-05 < 0.01
Simulation CPU 0 panic: IPC 0.0007563 < 0.01
Simulation CPU 0 panic: IPC 0.0006593 < 0.01
Simulation CPU 0 panic: IPC 0.0011968 < 0.01
Simulation CPU 0 panic: IPC 0.0001061 < 0.01
Simulation CPU 0 panic: IPC 0.0033912 < 0.01
Heartbeat CPU 0 instructions: 10000001 cycles: 3422700092 heartbeat IPC: 0.002922 cumulative IPC: 0.002922 (Simulation time: 04 hr 50 min 08 sec)
Simulation CPU 0 panic: IPC 7e-06 < 0.01
Simulation CPU 0 panic: IPC 4.4e-06 < 0.01
Simulation CPU 0 panic: IPC 1.3e-05 < 0.01
Simulation CPU 0 panic: IPC 1.19e-05 < 0.01
Simulation CPU 0 panic: IPC 2.3e-06 < 0.01
Simulation CPU 0 panic: IPC 5.3e-06 < 0.01
Simulation CPU 0 panic: IPC 6.8e-06 < 0.01
Simulation CPU 0 panic: IPC 2.3e-06 < 0.01
Simulation CPU 0 panic: IPC 9.2e-06 < 0.01
Simulation CPU 0 panic: IPC 2.8e-06 < 0.01
Simulation CPU 0 panic: IPC 4.3e-06 < 0.01
Simulation CPU 0 panic: IPC 5.1e-06 < 0.01
Simulation CPU 0 panic: IPC 7.1e-06 < 0.01
Simulation CPU 0 panic: IPC 9.4e-06 < 0.01
Simulation CPU 0 panic: IPC 1.42e-05 < 0.01
Simulation CPU 0 panic: IPC 8.9e-06 < 0.01
Simulation CPU 0 panic: IPC 5.1e-06 < 0.01
Simulation CPU 0 panic: IPC 7.1e-06 < 0.01
Simulation CPU 0 panic: IPC 3.32e-05 < 0.01
Simulation CPU 0 panic: IPC 2.12e-05 < 0.01
Simulation CPU 0 panic: IPC 9.6e-06 < 0.01
Simulation CPU 0 panic: IPC 1.24e-05 < 0.01
Simulation CPU 0 panic: IPC 1.14e-05 < 0.01
Simulation CPU 0 panic: IPC 6.9e-06 < 0.01
Simulation CPU 0 panic: IPC 2.8e-06 < 0.01
Simulation CPU 0 panic: IPC 7.1e-06 < 0.01
Simulation CPU 0 panic: IPC 2.5e-06 < 0.01
Simulation CPU 0 panic: IPC 2.15e-05 < 0.01
[ERROR_CYCLE] Error added at CPU cycle 3718732912, interval 8, pending count: 1
[DRAM_CYCLE_ERROR] Cycle-based error applied! address=0x4ea211868 additional_latency=2459910500 cycles
Simulation CPU 0 panic: IPC 4e-07 < 0.01
Simulation CPU 0 panic: IPC 1.35e-05 < 0.01
Simulation CPU 0 panic: IPC 2.13e-05 < 0.01
Simulation CPU 0 panic: IPC 5.3e-06 < 0.01
Simulation CPU 0 panic: IPC 9.6e-06 < 0.01
Simulation CPU 0 panic: IPC 1.25e-05 < 0.01
Simulation CPU 0 panic: IPC 9.6e-06 < 0.01
Simulation CPU 0 panic: IPC 2.37e-05 < 0.01
Simulation CPU 0 panic: IPC 5.1e-06 < 0.01
Simulation CPU 0 panic: IPC 1.85e-05 < 0.01
Simulation CPU 0 panic: IPC 2.3e-06 < 0.01
Simulation CPU 0 panic: IPC 2.3e-06 < 0.01
Simulation CPU 0 panic: IPC 3.11e-05 < 0.01
Simulation CPU 0 panic: IPC 2.18e-05 < 0.01
Simulation CPU 0 panic: IPC 2.33e-05 < 0.01
Simulation CPU 0 panic: IPC 1.93e-05 < 0.01
Simulation CPU 0 panic: IPC 1.88e-05 < 0.01
Simulation CPU 0 panic: IPC 1.42e-05 < 0.01
Simulation CPU 0 panic: IPC 2.34e-05 < 0.01
Simulation CPU 0 panic: IPC 9.6e-06 < 0.01
Simulation CPU 0 panic: IPC 9.6e-06 < 0.01
Simulation CPU 0 panic: IPC 9.4e-06 < 0.01
Simulation CPU 0 panic: IPC 1.67e-05 < 0.01
Simulation CPU 0 panic: IPC 1.64e-05 < 0.01
Simulation CPU 0 panic: IPC 5.49e-05 < 0.01
Simulation CPU 0 panic: IPC 9.9e-06 < 0.01
Simulation CPU 0 panic: IPC 2.13e-05 < 0.01
Simulation CPU 0 panic: IPC 7.1e-06 < 0.01
Simulation CPU 0 panic: IPC 2.38e-05 < 0.01
Simulation CPU 0 panic: IPC 5.25e-05 < 0.01
Simulation CPU 0 panic: IPC 2.3e-06 < 0.01
Simulation CPU 0 panic: IPC 1.7e-05 < 0.01
Simulation CPU 0 panic: IPC 3.25e-05 < 0.01
Simulation CPU 0 panic: IPC 2.91e-05 < 0.01
Simulation CPU 0 panic: IPC 4.96e-05 < 0.01
Simulation CPU 0 panic: IPC 8.05e-05 < 0.01
Simulation CPU 0 panic: IPC 3.07e-05 < 0.01
Simulation CPU 0 panic: IPC 0.0002384 < 0.01
Simulation CPU 0 panic: IPC 0.0001135 < 0.01
Simulation CPU 0 panic: IPC 2.43e-05 < 0.01
Simulation CPU 0 panic: IPC 3.09e-05 < 0.01
Simulation CPU 0 panic: IPC 1.92e-05 < 0.01
Simulation CPU 0 panic: IPC 3.12e-05 < 0.01
Simulation CPU 0 panic: IPC 0.0001283 < 0.01
Simulation CPU 0 panic: IPC 2.5e-06 < 0.01
Simulation CPU 0 panic: IPC 1.83e-05 < 0.01
Simulation CPU 0 panic: IPC 1.63e-05 < 0.01
[ERROR_CYCLE] Error added at CPU cycle 4183574526, interval 9, pending count: 1
[DRAM_CYCLE_ERROR] Cycle-based error applied! address=0xdf2d163c8 additional_latency=2459910500 cycles
Simulation CPU 0 panic: IPC 5.45e-05 < 0.01
Simulation CPU 0 panic: IPC 0 < 0.01
Simulation CPU 0 panic: IPC 1.74e-05 < 0.01
Simulation CPU 0 panic: IPC 4.67e-05 < 0.01
Simulation CPU 0 panic: IPC 9.96e-05 < 0.01
Simulation CPU 0 panic: IPC 3.51e-05 < 0.01
Simulation CPU 0 panic: IPC 9.4e-06 < 0.01
Simulation CPU 0 panic: IPC 4.29e-05 < 0.01
Simulation CPU 0 panic: IPC 0.0002013 < 0.01
Simulation CPU 0 panic: IPC 7.34e-05 < 0.01
Simulation CPU 0 panic: IPC 1.88e-05 < 0.01
Simulation CPU 0 panic: IPC 5.3e-06 < 0.01
Simulation CPU 0 panic: IPC 4.03e-05 < 0.01
Simulation CPU 0 panic: IPC 1.6e-05 < 0.01
Simulation CPU 0 panic: IPC 2.85e-05 < 0.01
Simulation CPU 0 panic: IPC 9.78e-05 < 0.01
Simulation CPU 0 panic: IPC 8.54e-05 < 0.01
Simulation CPU 0 panic: IPC 5.68e-05 < 0.01
Simulation CPU 0 panic: IPC 5.04e-05 < 0.01
Simulation CPU 0 panic: IPC 4e-05 < 0.01
Simulation CPU 0 panic: IPC 7.85e-05 < 0.01
Simulation CPU 0 panic: IPC 3.83e-05 < 0.01
Simulation CPU 0 panic: IPC 2.5e-06 < 0.01
Simulation CPU 0 panic: IPC 0.0001909 < 0.01
Simulation CPU 0 panic: IPC 9.9e-06 < 0.01
Simulation CPU 0 panic: IPC 0.0001807 < 0.01
Simulation CPU 0 panic: IPC 0.0001314 < 0.01
Simulation CPU 0 panic: IPC 0.0002158 < 0.01
Simulation CPU 0 panic: IPC 7.85e-05 < 0.01
Simulation CPU 0 panic: IPC 0.0001402 < 0.01
Simulation CPU 0 panic: IPC 0.0001561 < 0.01
Simulation CPU 0 panic: IPC 0.0001679 < 0.01
Simulation CPU 0 panic: IPC 5.89e-05 < 0.01
Simulation CPU 0 panic: IPC 0.0001449 < 0.01
Simulation CPU 0 panic: IPC 3.41e-05 < 0.01
Simulation CPU 0 panic: IPC 0.0004179 < 0.01
Simulation CPU 0 panic: IPC 0.0002767 < 0.01
Simulation CPU 0 panic: IPC 0.0002127 < 0.01
Simulation CPU 0 panic: IPC 0.0009855 < 0.01
Simulation CPU 0 panic: IPC 0.000269 < 0.01
Simulation CPU 0 panic: IPC 0.0001402 < 0.01
Simulation CPU 0 panic: IPC 1.24e-05 < 0.01
Simulation CPU 0 panic: IPC 0.0006533 < 0.01
Simulation CPU 0 panic: IPC 0.0002484 < 0.01
Simulation CPU 0 panic: IPC 0.0001168 < 0.01
Simulation CPU 0 panic: IPC 1.62e-05 < 0.01
[ERROR_CYCLE] Error added at CPU cycle 4648416140, interval 10, pending count: 1
[DRAM_CYCLE_ERROR] Cycle-based error applied! address=0xdf2d49f10 additional_latency=2459910500 cycles
Simulation CPU 0 panic: IPC 2.41e-05 < 0.01
Simulation CPU 0 panic: IPC 0 < 0.01
Simulation CPU 0 panic: IPC 3.78e-05 < 0.01
Simulation CPU 0 panic: IPC 5.17e-05 < 0.01
Simulation CPU 0 panic: IPC 4.95e-05 < 0.01
Simulation CPU 0 panic: IPC 0.0002053 < 0.01
Simulation CPU 0 panic: IPC 0.0007351 < 0.01
Simulation CPU 0 panic: IPC 0.0001455 < 0.01
Simulation CPU 0 panic: IPC 0.0001065 < 0.01
Simulation CPU 0 panic: IPC 0.0006812 < 0.01
Simulation CPU 0 panic: IPC 3.96e-05 < 0.01
Simulation CPU 0 panic: IPC 0.0001518 < 0.01
Simulation CPU 0 panic: IPC 0.0003459 < 0.01
Simulation CPU 0 panic: IPC 1.39e-05 < 0.01
Simulation CPU 0 panic: IPC 0.0004057 < 0.01
Simulation CPU 0 panic: IPC 3.12e-05 < 0.01
Simulation CPU 0 panic: IPC 1.88e-05 < 0.01
Simulation CPU 0 panic: IPC 1.14e-05 < 0.01
Simulation CPU 0 panic: IPC 0.000274 < 0.01
Simulation CPU 0 panic: IPC 0.0002413 < 0.01
Simulation CPU 0 panic: IPC 0.0001925 < 0.01
Simulation CPU 0 panic: IPC 0.0002117 < 0.01
Simulation CPU 0 panic: IPC 0.0008982 < 0.01
Simulation CPU 0 panic: IPC 0.0002563 < 0.01
Simulation CPU 0 panic: IPC 0.000161 < 0.01
Simulation CPU 0 panic: IPC 0.0001234 < 0.01
Simulation CPU 0 panic: IPC 0.0001119 < 0.01
Simulation CPU 0 panic: IPC 7.83e-05 < 0.01
Simulation CPU 0 panic: IPC 0.0006044 < 0.01
Simulation CPU 0 panic: IPC 1.49e-05 < 0.01
Simulation CPU 0 panic: IPC 0.0003012 < 0.01
Simulation CPU 0 panic: IPC 0.0002807 < 0.01
Simulation CPU 0 panic: IPC 0.0002784 < 0.01
Simulation CPU 0 panic: IPC 0.0002628 < 0.01
Simulation CPU 0 panic: IPC 0.0002292 < 0.01
Simulation CPU 0 panic: IPC 0.0006179 < 0.01
Simulation CPU 0 panic: IPC 1.62e-05 < 0.01
Simulation CPU 0 panic: IPC 0.000624 < 0.01
Simulation CPU 0 panic: IPC 0.0004406 < 0.01
Simulation CPU 0 panic: IPC 0.0002682 < 0.01
Simulation CPU 0 panic: IPC 0.0004035 < 0.01
Simulation CPU 0 panic: IPC 0.0007626 < 0.01
Simulation CPU 0 panic: IPC 0.0001954 < 0.01
Simulation CPU 0 panic: IPC 0.0003016 < 0.01
Simulation CPU 0 panic: IPC 8.73e-05 < 0.01
Simulation CPU 0 panic: IPC 0.0002975 < 0.01
Simulation CPU 0 panic: IPC 0.0001417 < 0.01
[ERROR_CYCLE] Error added at CPU cycle 5113257755, interval 11, pending count: 1
[DRAM_CYCLE_ERROR] Cycle-based error applied! address=0x3935b3240 additional_latency=2459910500 cycles
Simulation CPU 0 panic: IPC 0 < 0.01
Simulation CPU 0 panic: IPC 0.0002578 < 0.01
Simulation CPU 0 panic: IPC 0.0002692 < 0.01
Simulation CPU 0 panic: IPC 5.2e-05 < 0.01
Simulation CPU 0 panic: IPC 2.56e-05 < 0.01
Simulation CPU 0 panic: IPC 0.0006772 < 0.01
Simulation CPU 0 panic: IPC 6.41e-05 < 0.01
Simulation CPU 0 panic: IPC 7.36e-05 < 0.01
Simulation CPU 0 panic: IPC 0.0001944 < 0.01
Simulation CPU 0 panic: IPC 0.0010087 < 0.01
Simulation CPU 0 panic: IPC 0.0004862 < 0.01
Simulation CPU 0 panic: IPC 0.0010271 < 0.01
Simulation CPU 0 panic: IPC 0.0006471 < 0.01
Simulation CPU 0 panic: IPC 0.0002276 < 0.01
Simulation CPU 0 panic: IPC 0.0006109 < 0.01
Simulation CPU 0 panic: IPC 0.0003269 < 0.01
Simulation CPU 0 panic: IPC 0.0001231 < 0.01
Simulation CPU 0 panic: IPC 5.91e-05 < 0.01
Simulation CPU 0 panic: IPC 0.0001871 < 0.01
Simulation CPU 0 panic: IPC 0.0003582 < 0.01
Simulation CPU 0 panic: IPC 2.36e-05 < 0.01
Simulation CPU 0 panic: IPC 0.0008499 < 0.01
Simulation CPU 0 panic: IPC 9.8e-05 < 0.01
Simulation CPU 0 panic: IPC 0.0001566 < 0.01
Simulation CPU 0 panic: IPC 0.0006001 < 0.01
Simulation CPU 0 panic: IPC 5.69e-05 < 0.01
Simulation CPU 0 panic: IPC 9.01e-05 < 0.01
Simulation CPU 0 panic: IPC 0.0001665 < 0.01
Simulation CPU 0 panic: IPC 0.0002031 < 0.01
Simulation CPU 0 panic: IPC 0.0001226 < 0.01
Simulation CPU 0 panic: IPC 0.0004496 < 0.01
Simulation CPU 0 panic: IPC 2.38e-05 < 0.01
Simulation CPU 0 panic: IPC 0.0011129 < 0.01
Simulation CPU 0 panic: IPC 0.000271 < 0.01
Simulation CPU 0 panic: IPC 0.0004184 < 0.01
Simulation CPU 0 panic: IPC 0.0006581 < 0.01
Simulation CPU 0 panic: IPC 0.0004635 < 0.01
Simulation CPU 0 panic: IPC 1.21e-05 < 0.01
Simulation CPU 0 panic: IPC 0.0017167 < 0.01
Simulation CPU 0 panic: IPC 0.0001702 < 0.01
Simulation CPU 0 panic: IPC 0.0010633 < 0.01
Simulation CPU 0 panic: IPC 9.7e-05 < 0.01
Simulation CPU 0 panic: IPC 0.0004995 < 0.01
Simulation CPU 0 panic: IPC 4.22e-05 < 0.01
Simulation CPU 0 panic: IPC 0.0020236 < 0.01
Simulation CPU 0 panic: IPC 0.0004137 < 0.01
[ERROR_CYCLE] Error added at CPU cycle 5578099368, interval 12, pending count: 1
[DRAM_CYCLE_ERROR] Cycle-based error applied! address=0x53d602008 additional_latency=2459910500 cycles
Simulation CPU 0 panic: IPC 0.0002733 < 0.01
Simulation CPU 0 panic: IPC 0.0035209 < 0.01
Simulation CPU 0 panic: IPC 0.0005776 < 0.01
Simulation CPU 0 panic: IPC 0.0008909 < 0.01
Simulation CPU 0 panic: IPC 0.0007025 < 0.01
Simulation CPU 0 panic: IPC 0.0002011 < 0.01
Simulation CPU 0 panic: IPC 8.12e-05 < 0.01
Simulation CPU 0 panic: IPC 0.0003724 < 0.01
Simulation CPU 0 panic: IPC 0.0004801 < 0.01
Simulation CPU 0 panic: IPC 0.0005158 < 0.01
Simulation CPU 0 panic: IPC 6.88e-05 < 0.01
Simulation CPU 0 panic: IPC 0.0004272 < 0.01
Simulation CPU 0 panic: IPC 4.98e-05 < 0.01
Simulation CPU 0 panic: IPC 0.0019386 < 0.01
Simulation CPU 0 panic: IPC 0.0017789 < 0.01
Simulation CPU 0 panic: IPC 7.53e-05 < 0.01
Simulation CPU 0 panic: IPC 0.000909 < 0.01
Simulation CPU 0 panic: IPC 0.0023565 < 0.01
Simulation CPU 0 panic: IPC 2.31e-05 < 0.01
Simulation CPU 0 panic: IPC 0.0017323 < 0.01
Simulation CPU 0 panic: IPC 0.0008731 < 0.01
Simulation CPU 0 panic: IPC 0.0003639 < 0.01
Simulation CPU 0 panic: IPC 0.0002037 < 0.01
Simulation CPU 0 panic: IPC 0.0004434 < 0.01
Simulation CPU 0 panic: IPC 0.0003872 < 0.01
Simulation CPU 0 panic: IPC 0.0010376 < 0.01
Simulation CPU 0 panic: IPC 0.0005251 < 0.01
Simulation CPU 0 panic: IPC 0.001792 < 0.01
Simulation CPU 0 panic: IPC 0.0015962 < 0.01
Simulation CPU 0 panic: IPC 0.000826 < 0.01
Simulation CPU 0 panic: IPC 0.0010144 < 0.01
Simulation CPU 0 panic: IPC 0.0014461 < 0.01
Simulation CPU 0 panic: IPC 0.0032179 < 0.01
Simulation CPU 0 panic: IPC 0.0002517 < 0.01
Simulation CPU 0 panic: IPC 0.0011276 < 0.01
Simulation CPU 0 panic: IPC 0.0011061 < 0.01
Simulation CPU 0 panic: IPC 0.0001502 < 0.01
Simulation CPU 0 panic: IPC 0.0002236 < 0.01
Simulation CPU 0 panic: IPC 0.0005721 < 0.01
Simulation CPU 0 panic: IPC 0.0062764 < 0.01
Heartbeat CPU 0 instructions: 20000002 cycles: 5977804629 heartbeat IPC: 0.003914 cumulative IPC: 0.003346 (Simulation time: 08 hr 26 min 41 sec)
Simulation CPU 0 panic: IPC 1.5e-06 < 0.01
Simulation CPU 0 panic: IPC 4.3e-06 < 0.01
Simulation CPU 0 panic: IPC 2e-07 < 0.01
Simulation CPU 0 panic: IPC 1.2e-06 < 0.01
Simulation CPU 0 panic: IPC 2.5e-06 < 0.01
[ERROR_CYCLE] Error added at CPU cycle 6042940983, interval 13, pending count: 1
[DRAM_CYCLE_ERROR] Cycle-based error applied! address=0xc955d2410 additional_latency=2459910500 cycles
Simulation CPU 0 panic: IPC 6e-07 < 0.01
Simulation CPU 0 panic: IPC 1.14e-05 < 0.01
Simulation CPU 0 panic: IPC 1.1e-05 < 0.01
Simulation CPU 0 panic: IPC 4.6e-06 < 0.01
Simulation CPU 0 panic: IPC 5.1e-06 < 0.01
Simulation CPU 0 panic: IPC 6.8e-06 < 0.01
Simulation CPU 0 panic: IPC 8.7e-06 < 0.01
Simulation CPU 0 panic: IPC 1.12e-05 < 0.01
Simulation CPU 0 panic: IPC 1.84e-05 < 0.01
Simulation CPU 0 panic: IPC 6.6e-06 < 0.01
Simulation CPU 0 panic: IPC 2.1e-06 < 0.01
Simulation CPU 0 panic: IPC 4.3e-06 < 0.01
Simulation CPU 0 panic: IPC 1.51e-05 < 0.01
Simulation CPU 0 panic: IPC 1.39e-05 < 0.01
Simulation CPU 0 panic: IPC 8.9e-06 < 0.01
Simulation CPU 0 panic: IPC 1.04e-05 < 0.01
Simulation CPU 0 panic: IPC 2.33e-05 < 0.01
Simulation CPU 0 panic: IPC 7.1e-06 < 0.01
Simulation CPU 0 panic: IPC 3.09e-05 < 0.01
Simulation CPU 0 panic: IPC 3.95e-05 < 0.01
Simulation CPU 0 panic: IPC 2.39e-05 < 0.01
Simulation CPU 0 panic: IPC 3.27e-05 < 0.01
Simulation CPU 0 panic: IPC 4.3e-06 < 0.01
Simulation CPU 0 panic: IPC 2.14e-05 < 0.01
Simulation CPU 0 panic: IPC 4.3e-06 < 0.01
Simulation CPU 0 panic: IPC 2.76e-05 < 0.01
Simulation CPU 0 panic: IPC 7.9e-05 < 0.01
Simulation CPU 0 panic: IPC 4.05e-05 < 0.01
Simulation CPU 0 panic: IPC 7.17e-05 < 0.01
Simulation CPU 0 panic: IPC 3.55e-05 < 0.01
Simulation CPU 0 panic: IPC 5.04e-05 < 0.01
Simulation CPU 0 panic: IPC 3.5e-05 < 0.01
Simulation CPU 0 panic: IPC 4.04e-05 < 0.01
Simulation CPU 0 panic: IPC 3.97e-05 < 0.01
Simulation CPU 0 panic: IPC 2.45e-05 < 0.01
Simulation CPU 0 panic: IPC 0.0001005 < 0.01
Simulation CPU 0 panic: IPC 1.17e-05 < 0.01
Simulation CPU 0 panic: IPC 3.17e-05 < 0.01
Simulation CPU 0 panic: IPC 0.0001939 < 0.01
Simulation CPU 0 panic: IPC 4.3e-06 < 0.01
Simulation CPU 0 panic: IPC 0.0001068 < 0.01
Simulation CPU 0 panic: IPC 4.11e-05 < 0.01
Simulation CPU 0 panic: IPC 0.0003488 < 0.01
Simulation CPU 0 panic: IPC 4.22e-05 < 0.01
Simulation CPU 0 panic: IPC 0.000119 < 0.01
Simulation CPU 0 panic: IPC 8.14e-05 < 0.01
[ERROR_CYCLE] Error added at CPU cycle 6507782596, interval 14, pending count: 1
[DRAM_CYCLE_ERROR] Cycle-based error applied! address=0x7eea42358 additional_latency=2459910500 cycles
Simulation CPU 0 panic: IPC 0 < 0.01
Simulation CPU 0 panic: IPC 3.89e-05 < 0.01
Simulation CPU 0 panic: IPC 5.57e-05 < 0.01
Simulation CPU 0 panic: IPC 0.0001569 < 0.01
Simulation CPU 0 panic: IPC 1.96e-05 < 0.01
Simulation CPU 0 panic: IPC 0.0001126 < 0.01
Simulation CPU 0 panic: IPC 0.0001277 < 0.01
Simulation CPU 0 panic: IPC 8.51e-05 < 0.01
Simulation CPU 0 panic: IPC 0.0001768 < 0.01
Simulation CPU 0 panic: IPC 3.95e-05 < 0.01
Simulation CPU 0 panic: IPC 0.0001695 < 0.01
Simulation CPU 0 panic: IPC 0.0001589 < 0.01
Simulation CPU 0 panic: IPC 0.0001252 < 0.01
Simulation CPU 0 panic: IPC 0.0006067 < 0.01
Simulation CPU 0 panic: IPC 0.00024 < 0.01
Simulation CPU 0 panic: IPC 2.17e-05 < 0.01
Simulation CPU 0 panic: IPC 1.62e-05 < 0.01
Simulation CPU 0 panic: IPC 7.3e-05 < 0.01
Simulation CPU 0 panic: IPC 0.0002533 < 0.01
Simulation CPU 0 panic: IPC 0.0002499 < 0.01
Simulation CPU 0 panic: IPC 2.04e-05 < 0.01
Simulation CPU 0 panic: IPC 4.33e-05 < 0.01
Simulation CPU 0 panic: IPC 0.0001348 < 0.01
Simulation CPU 0 panic: IPC 7.92e-05 < 0.01
Simulation CPU 0 panic: IPC 0.0001081 < 0.01
Simulation CPU 0 panic: IPC 0.0001261 < 0.01
Simulation CPU 0 panic: IPC 2.67e-05 < 0.01
Simulation CPU 0 panic: IPC 6.01e-05 < 0.01
Simulation CPU 0 panic: IPC 1.54e-05 < 0.01
Simulation CPU 0 panic: IPC 2.63e-05 < 0.01
Simulation CPU 0 panic: IPC 5.7e-06 < 0.01
Simulation CPU 0 panic: IPC 0.0001868 < 0.01
Simulation CPU 0 panic: IPC 2.55e-05 < 0.01
Simulation CPU 0 panic: IPC 1.31e-05 < 0.01
Simulation CPU 0 panic: IPC 0.0004005 < 0.01
Simulation CPU 0 panic: IPC 0.0001294 < 0.01
Simulation CPU 0 panic: IPC 0.0004555 < 0.01
Simulation CPU 0 panic: IPC 5.57e-05 < 0.01
Simulation CPU 0 panic: IPC 0.0001482 < 0.01
Simulation CPU 0 panic: IPC 4.92e-05 < 0.01
Simulation CPU 0 panic: IPC 0.0005786 < 0.01
Simulation CPU 0 panic: IPC 9.4e-06 < 0.01
Simulation CPU 0 panic: IPC 1.19e-05 < 0.01
Simulation CPU 0 panic: IPC 0.0002427 < 0.01
Simulation CPU 0 panic: IPC 0.0002509 < 0.01
Simulation CPU 0 panic: IPC 5.56e-05 < 0.01
Simulation CPU 0 panic: IPC 0.0001706 < 0.01
[ERROR_CYCLE] Error added at CPU cycle 6972624211, interval 15, pending count: 1
[DRAM_CYCLE_ERROR] Cycle-based error applied! address=0x83b047340 additional_latency=2459910500 cycles
Simulation CPU 0 panic: IPC 4.04e-05 < 0.01
Simulation CPU 0 panic: IPC 0 < 0.01
Simulation CPU 0 panic: IPC 0.0002844 < 0.01
Simulation CPU 0 panic: IPC 6.49e-05 < 0.01
Simulation CPU 0 panic: IPC 0.0001179 < 0.01
Simulation CPU 0 panic: IPC 7.61e-05 < 0.01
Simulation CPU 0 panic: IPC 3.4e-05 < 0.01
Simulation CPU 0 panic: IPC 0.0005928 < 0.01
Simulation CPU 0 panic: IPC 0.0001694 < 0.01
Simulation CPU 0 panic: IPC 4.8e-05 < 0.01
Simulation CPU 0 panic: IPC 0.0001112 < 0.01
Simulation CPU 0 panic: IPC 6.21e-05 < 0.01
Simulation CPU 0 panic: IPC 0.0001095 < 0.01
Simulation CPU 0 panic: IPC 0.0001 < 0.01
Simulation CPU 0 panic: IPC 0.0003175 < 0.01
Simulation CPU 0 panic: IPC 0.0002772 < 0.01
Simulation CPU 0 panic: IPC 0.0006393 < 0.01
Simulation CPU 0 panic: IPC 9.4e-06 < 0.01
Simulation CPU 0 panic: IPC 8.56e-05 < 0.01
Simulation CPU 0 panic: IPC 8.57e-05 < 0.01
Simulation CPU 0 panic: IPC 8.17e-05 < 0.01
Simulation CPU 0 panic: IPC 2.9e-05 < 0.01
Simulation CPU 0 panic: IPC 0.0001897 < 0.01
Simulation CPU 0 panic: IPC 2.61e-05 < 0.01
Simulation CPU 0 panic: IPC 1.86e-05 < 0.01
Simulation CPU 0 panic: IPC 3.14e-05 < 0.01
Simulation CPU 0 panic: IPC 0.0003868 < 0.01
Simulation CPU 0 panic: IPC 4.3e-05 < 0.01
Simulation CPU 0 panic: IPC 0.000116 < 0.01
Simulation CPU 0 panic: IPC 0.0002337 < 0.01
Simulation CPU 0 panic: IPC 0.0002626 < 0.01
Simulation CPU 0 panic: IPC 0.0002498 < 0.01
Simulation CPU 0 panic: IPC 0.000109 < 0.01
Simulation CPU 0 panic: IPC 0.0005098 < 0.01
Simulation CPU 0 panic: IPC 0.0002056 < 0.01
Simulation CPU 0 panic: IPC 9.7e-06 < 0.01
Simulation CPU 0 panic: IPC 5.89e-05 < 0.01
Simulation CPU 0 panic: IPC 0.0003568 < 0.01
Simulation CPU 0 panic: IPC 0.0001968 < 0.01
Simulation CPU 0 panic: IPC 0.000462 < 0.01
Simulation CPU 0 panic: IPC 1.3e-05 < 0.01
Simulation CPU 0 panic: IPC 0.0002553 < 0.01
Simulation CPU 0 panic: IPC 0.000135 < 0.01
Simulation CPU 0 panic: IPC 8.39e-05 < 0.01
Simulation CPU 0 panic: IPC 0.0003554 < 0.01
Simulation CPU 0 panic: IPC 0.0011507 < 0.01
[ERROR_CYCLE] Error added at CPU cycle 7437465824, interval 16, pending count: 1
[DRAM_CYCLE_ERROR] Cycle-based error applied! address=0x83b079880 additional_latency=2459910500 cycles
Simulation CPU 0 panic: IPC 0.0003622 < 0.01
Simulation CPU 0 panic: IPC 0 < 0.01
Simulation CPU 0 panic: IPC 0.0001338 < 0.01
Simulation CPU 0 panic: IPC 0.0002468 < 0.01
Simulation CPU 0 panic: IPC 0.000304 < 0.01
Simulation CPU 0 panic: IPC 1.71e-05 < 0.01
Simulation CPU 0 panic: IPC 8.41e-05 < 0.01
Simulation CPU 0 panic: IPC 0.0002507 < 0.01
Simulation CPU 0 panic: IPC 0.0004052 < 0.01
Simulation CPU 0 panic: IPC 0.0001712 < 0.01
Simulation CPU 0 panic: IPC 1.04e-05 < 0.01
Simulation CPU 0 panic: IPC 3.87e-05 < 0.01
Simulation CPU 0 panic: IPC 0.00014 < 0.01
Simulation CPU 0 panic: IPC 4.4e-06 < 0.01
Simulation CPU 0 panic: IPC 0.0011559 < 0.01
Simulation CPU 0 panic: IPC 0.0002521 < 0.01
Simulation CPU 0 panic: IPC 0.0003425 < 0.01
Simulation CPU 0 panic: IPC 4.42e-05 < 0.01
Simulation CPU 0 panic: IPC 0.0001618 < 0.01
Simulation CPU 0 panic: IPC 0.0001484 < 0.01
Simulation CPU 0 panic: IPC 0.0001386 < 0.01
Simulation CPU 0 panic: IPC 0.0001403 < 0.01
Simulation CPU 0 panic: IPC 0.0001228 < 0.01
Simulation CPU 0 panic: IPC 1.46e-05 < 0.01
Simulation CPU 0 panic: IPC 0.0001518 < 0.01
Simulation CPU 0 panic: IPC 0.0001631 < 0.01
Simulation CPU 0 panic: IPC 0.0001727 < 0.01
Simulation CPU 0 panic: IPC 0.0003224 < 0.01
Simulation CPU 0 panic: IPC 9.1e-06 < 0.01
Simulation CPU 0 panic: IPC 4.28e-05 < 0.01
Simulation CPU 0 panic: IPC 0.0011703 < 0.01
Simulation CPU 0 panic: IPC 0.0001137 < 0.01
Simulation CPU 0 panic: IPC 0.0002421 < 0.01
Simulation CPU 0 panic: IPC 0.0005323 < 0.01
Simulation CPU 0 panic: IPC 1.05e-05 < 0.01
Simulation CPU 0 panic: IPC 0.0007276 < 0.01
Simulation CPU 0 panic: IPC 4.4e-06 < 0.01
Simulation CPU 0 panic: IPC 0.0005376 < 0.01
Simulation CPU 0 panic: IPC 2.88e-05 < 0.01
Simulation CPU 0 panic: IPC 0.0004702 < 0.01
Simulation CPU 0 panic: IPC 9.84e-05 < 0.01
Simulation CPU 0 panic: IPC 0.0002854 < 0.01
Simulation CPU 0 panic: IPC 0.0001352 < 0.01
Simulation CPU 0 panic: IPC 0.0003901 < 0.01
Simulation CPU 0 panic: IPC 8.5e-06 < 0.01
Simulation CPU 0 panic: IPC 0.0002053 < 0.01
Simulation CPU 0 panic: IPC 0.0001095 < 0.01
[ERROR_CYCLE] Error added at CPU cycle 7902307439, interval 17, pending count: 1
[DRAM_CYCLE_ERROR] Cycle-based error applied! address=0x76c4a3108 additional_latency=2459910500 cycles
Simulation CPU 0 panic: IPC 4e-07 < 0.01
Simulation CPU 0 panic: IPC 0.0003883 < 0.01
Simulation CPU 0 panic: IPC 0.0003474 < 0.01
Simulation CPU 0 panic: IPC 4.3e-06 < 0.01
Simulation CPU 0 panic: IPC 0.000223 < 0.01
Simulation CPU 0 panic: IPC 5.58e-05 < 0.01
Simulation CPU 0 panic: IPC 0.0001658 < 0.01
Simulation CPU 0 panic: IPC 0.0001228 < 0.01
Simulation CPU 0 panic: IPC 0.0006092 < 0.01
Simulation CPU 0 panic: IPC 0.0007179 < 0.01
Simulation CPU 0 panic: IPC 9.89e-05 < 0.01
Simulation CPU 0 panic: IPC 0.0003663 < 0.01
Simulation CPU 0 panic: IPC 0.0001168 < 0.01
Simulation CPU 0 panic: IPC 2.11e-05 < 0.01
Simulation CPU 0 panic: IPC 0.000197 < 0.01
Simulation CPU 0 panic: IPC 2.19e-05 < 0.01
Simulation CPU 0 panic: IPC 0.0008169 < 0.01
Simulation CPU 0 panic: IPC 0.0008844 < 0.01
Simulation CPU 0 panic: IPC 0.0001471 < 0.01
Simulation CPU 0 panic: IPC 8.91e-05 < 0.01
Simulation CPU 0 panic: IPC 6.78e-05 < 0.01
Simulation CPU 0 panic: IPC 0.0006073 < 0.01
Simulation CPU 0 panic: IPC 0.000229 < 0.01
Simulation CPU 0 panic: IPC 0.0001019 < 0.01
Simulation CPU 0 panic: IPC 6.2e-05 < 0.01
Simulation CPU 0 panic: IPC 1.53e-05 < 0.01
Simulation CPU 0 panic: IPC 3.57e-05 < 0.01
Simulation CPU 0 panic: IPC 5.28e-05 < 0.01
Simulation CPU 0 panic: IPC 0.0001181 < 0.01
Simulation CPU 0 panic: IPC 7.77e-05 < 0.01
Simulation CPU 0 panic: IPC 6.23e-05 < 0.01
Simulation CPU 0 panic: IPC 0.0004393 < 0.01
Simulation CPU 0 panic: IPC 5.1e-06 < 0.01
Simulation CPU 0 panic: IPC 0.0001916 < 0.01
Simulation CPU 0 panic: IPC 0.000396 < 0.01
Simulation CPU 0 panic: IPC 1.76e-05 < 0.01
Simulation CPU 0 panic: IPC 0.0002009 < 0.01
Simulation CPU 0 panic: IPC 0.0001885 < 0.01
Simulation CPU 0 panic: IPC 4.15e-05 < 0.01
Simulation CPU 0 panic: IPC 8.53e-05 < 0.01
Simulation CPU 0 panic: IPC 1.94e-05 < 0.01
Simulation CPU 0 panic: IPC 7.81e-05 < 0.01
Simulation CPU 0 panic: IPC 0.0001928 < 0.01
Simulation CPU 0 panic: IPC 4.21e-05 < 0.01
Simulation CPU 0 panic: IPC 1.76e-05 < 0.01
Simulation CPU 0 panic: IPC 1.07e-05 < 0.01
[ERROR_CYCLE] Error added at CPU cycle 8367149052, interval 18, pending count: 1
[DRAM_CYCLE_ERROR] Cycle-based error applied! address=0xb977f5f68 additional_latency=2459910500 cycles
Simulation CPU 0 panic: IPC 4.17e-05 < 0.01
Simulation CPU 0 panic: IPC 1.53e-05 < 0.01
Simulation CPU 0 panic: IPC 0.0003122 < 0.01
Simulation CPU 0 panic: IPC 0.0001441 < 0.01
Simulation CPU 0 panic: IPC 5.79e-05 < 0.01
Simulation CPU 0 panic: IPC 5.1e-06 < 0.01
Simulation CPU 0 panic: IPC 6.38e-05 < 0.01
Simulation CPU 0 panic: IPC 0.0004373 < 0.01
Simulation CPU 0 panic: IPC 0.0001486 < 0.01
Simulation CPU 0 panic: IPC 0.0002091 < 0.01
Simulation CPU 0 panic: IPC 0.0001072 < 0.01
Simulation CPU 0 panic: IPC 0.0001429 < 0.01
Simulation CPU 0 panic: IPC 8.17e-05 < 0.01
Simulation CPU 0 panic: IPC 0.0003349 < 0.01
Simulation CPU 0 panic: IPC 0.0001264 < 0.01
Simulation CPU 0 panic: IPC 0.0003599 < 0.01
Simulation CPU 0 panic: IPC 0.000285 < 0.01
Simulation CPU 0 panic: IPC 0.0001074 < 0.01
Simulation CPU 0 panic: IPC 0.0001296 < 0.01
Simulation CPU 0 panic: IPC 6.27e-05 < 0.01
Simulation CPU 0 panic: IPC 2.46e-05 < 0.01
Simulation CPU 0 panic: IPC 0.00022 < 0.01
Simulation CPU 0 panic: IPC 0.0008485 < 0.01
Simulation CPU 0 panic: IPC 0.0002906 < 0.01
Simulation CPU 0 panic: IPC 0.0001656 < 0.01
Simulation CPU 0 panic: IPC 0.0004186 < 0.01
Simulation CPU 0 panic: IPC 0.000108 < 0.01
Simulation CPU 0 panic: IPC 0.0003691 < 0.01
Simulation CPU 0 panic: IPC 0.000229 < 0.01
Simulation CPU 0 panic: IPC 7.33e-05 < 0.01
Simulation CPU 0 panic: IPC 0.0002531 < 0.01
Simulation CPU 0 panic: IPC 9.06e-05 < 0.01
Simulation CPU 0 panic: IPC 3.13e-05 < 0.01
Simulation CPU 0 panic: IPC 0.0005034 < 0.01
Simulation CPU 0 panic: IPC 3.01e-05 < 0.01
Simulation CPU 0 panic: IPC 0.0011624 < 0.01
Simulation CPU 0 panic: IPC 0.0004178 < 0.01
Simulation CPU 0 panic: IPC 0.0006173 < 0.01
Simulation CPU 0 panic: IPC 0.0007805 < 0.01
Simulation CPU 0 panic: IPC 9.49e-05 < 0.01
Simulation CPU 0 panic: IPC 0.0001581 < 0.01
Simulation CPU 0 panic: IPC 0.0001235 < 0.01
Simulation CPU 0 panic: IPC 2.1e-06 < 0.01
Simulation CPU 0 panic: IPC 0.0002647 < 0.01
Simulation CPU 0 panic: IPC 9.12e-05 < 0.01
Simulation CPU 0 panic: IPC 0.0004271 < 0.01
Simulation CPU 0 panic: IPC 6.08e-05 < 0.01
[ERROR_CYCLE] Error added at CPU cycle 8831990667, interval 19, pending count: 1
[DRAM_CYCLE_ERROR] Cycle-based error applied! address=0xfa96feca0 additional_latency=2459910500 cycles
Simulation CPU 0 panic: IPC 0 < 0.01
Simulation CPU 0 panic: IPC 0.0001186 < 0.01
Simulation CPU 0 panic: IPC 0.0001622 < 0.01
Simulation CPU 0 panic: IPC 0.000209 < 0.01
Simulation CPU 0 panic: IPC 0.000165 < 0.01
Simulation CPU 0 panic: IPC 2.24e-05 < 0.01
Simulation CPU 0 panic: IPC 8.14e-05 < 0.01
Simulation CPU 0 panic: IPC 0.0001806 < 0.01
Simulation CPU 0 panic: IPC 3.53e-05 < 0.01
Simulation CPU 0 panic: IPC 0.000102 < 0.01
Simulation CPU 0 panic: IPC 0.0001811 < 0.01
Simulation CPU 0 panic: IPC 4.36e-05 < 0.01
Simulation CPU 0 panic: IPC 0.0005 < 0.01
Simulation CPU 0 panic: IPC 0.0002208 < 0.01
Simulation CPU 0 panic: IPC 0.0006199 < 0.01
Simulation CPU 0 panic: IPC 2.53e-05 < 0.01
Simulation CPU 0 panic: IPC 0.0009636 < 0.01
Simulation CPU 0 panic: IPC 0.0002768 < 0.01
Simulation CPU 0 panic: IPC 8.6e-06 < 0.01
Simulation CPU 0 panic: IPC 6.85e-05 < 0.01
Simulation CPU 0 panic: IPC 0.0002814 < 0.01
Simulation CPU 0 panic: IPC 0.000323 < 0.01
Simulation CPU 0 panic: IPC 7.77e-05 < 0.01
Simulation CPU 0 panic: IPC 5.61e-05 < 0.01
Simulation CPU 0 panic: IPC 0.0002608 < 0.01
Simulation CPU 0 panic: IPC 7.46e-05 < 0.01
Simulation CPU 0 panic: IPC 0.0002379 < 0.01
Simulation CPU 0 panic: IPC 0.0001566 < 0.01
Simulation CPU 0 panic: IPC 0.0001908 < 0.01
Simulation CPU 0 panic: IPC 0.0003136 < 0.01
Simulation CPU 0 panic: IPC 0.0005114 < 0.01
Simulation CPU 0 panic: IPC 3.8e-05 < 0.01
Simulation CPU 0 panic: IPC 6.65e-05 < 0.01
Simulation CPU 0 panic: IPC 0.0007922 < 0.01
Simulation CPU 0 panic: IPC 0.000485 < 0.01
Simulation CPU 0 panic: IPC 0.0002233 < 0.01
Simulation CPU 0 panic: IPC 0.0002474 < 0.01
Simulation CPU 0 panic: IPC 0.0001173 < 0.01
Simulation CPU 0 panic: IPC 1.81e-05 < 0.01
Simulation CPU 0 panic: IPC 0.0002717 < 0.01
Simulation CPU 0 panic: IPC 0.0002939 < 0.01
Simulation CPU 0 panic: IPC 4.64e-05 < 0.01
Simulation CPU 0 panic: IPC 0.0012433 < 0.01
Simulation CPU 0 panic: IPC 6.13e-05 < 0.01
Simulation CPU 0 panic: IPC 6.37e-05 < 0.01
Simulation CPU 0 panic: IPC 4.38e-05 < 0.01
[ERROR_CYCLE] Error added at CPU cycle 9296832280, interval 20, pending count: 1
Simulation CPU 0 panic: IPC 0.0006427 < 0.01
[DRAM_CYCLE_ERROR] Cycle-based error applied! address=0xcceb3f848 additional_latency=2459910500 cycles
Simulation CPU 0 panic: IPC 0 < 0.01
Simulation CPU 0 panic: IPC 6.99e-05 < 0.01
Simulation CPU 0 panic: IPC 0.0002371 < 0.01
Simulation CPU 0 panic: IPC 8.97e-05 < 0.01
Simulation CPU 0 panic: IPC 0.0002711 < 0.01
Simulation CPU 0 panic: IPC 0.0005678 < 0.01
Simulation CPU 0 panic: IPC 0.0002065 < 0.01
Simulation CPU 0 panic: IPC 0.0002858 < 0.01
Simulation CPU 0 panic: IPC 3.13e-05 < 0.01
Simulation CPU 0 panic: IPC 4.35e-05 < 0.01
Simulation CPU 0 panic: IPC 0.0001248 < 0.01
Simulation CPU 0 panic: IPC 0.0001372 < 0.01
Simulation CPU 0 panic: IPC 0.000339 < 0.01
Simulation CPU 0 panic: IPC 0.0001928 < 0.01
Simulation CPU 0 panic: IPC 0.000647 < 0.01
Simulation CPU 0 panic: IPC 0.0003275 < 0.01
Simulation CPU 0 panic: IPC 7.3e-05 < 0.01
Simulation CPU 0 panic: IPC 0.0001096 < 0.01
Simulation CPU 0 panic: IPC 0.0002002 < 0.01
Simulation CPU 0 panic: IPC 0.0001404 < 0.01
Simulation CPU 0 panic: IPC 7.95e-05 < 0.01
Simulation CPU 0 panic: IPC 3.04e-05 < 0.01
Simulation CPU 0 panic: IPC 0.0002275 < 0.01
Simulation CPU 0 panic: IPC 0.0001118 < 0.01
Simulation CPU 0 panic: IPC 0.0001866 < 0.01
Simulation CPU 0 panic: IPC 0.0003179 < 0.01
Simulation CPU 0 panic: IPC 0.0002887 < 0.01
Simulation CPU 0 panic: IPC 0.000205 < 0.01
Simulation CPU 0 panic: IPC 2.87e-05 < 0.01
Simulation CPU 0 panic: IPC 6.03e-05 < 0.01
Simulation CPU 0 panic: IPC 0.0002131 < 0.01
Simulation CPU 0 panic: IPC 0.0003254 < 0.01
Simulation CPU 0 panic: IPC 3.46e-05 < 0.01
Simulation CPU 0 panic: IPC 0.0002005 < 0.01
Simulation CPU 0 panic: IPC 3.95e-05 < 0.01
Simulation CPU 0 panic: IPC 0.0005352 < 0.01
Simulation CPU 0 panic: IPC 0.0001108 < 0.01
Simulation CPU 0 panic: IPC 0.0001899 < 0.01
Simulation CPU 0 panic: IPC 0.000147 < 0.01
Simulation CPU 0 panic: IPC 0.0002102 < 0.01
Simulation CPU 0 panic: IPC 0.0002241 < 0.01
Simulation CPU 0 panic: IPC 0.0004685 < 0.01
Simulation CPU 0 panic: IPC 0.0001088 < 0.01
Simulation CPU 0 panic: IPC 0.0002746 < 0.01
Simulation CPU 0 panic: IPC 0.0001497 < 0.01
Simulation CPU 0 panic: IPC 4.41e-05 < 0.01
[ERROR_CYCLE] Error added at CPU cycle 9761673895, interval 21, pending count: 1
[DRAM_CYCLE_ERROR] Cycle-based error applied! address=0xcceb70e70 additional_latency=2459910500 cycles
Simulation CPU 0 panic: IPC 0 < 0.01
Simulation CPU 0 panic: IPC 0.0001172 < 0.01
Simulation CPU 0 panic: IPC 0.0003327 < 0.01
Simulation CPU 0 panic: IPC 0.0001355 < 0.01
Simulation CPU 0 panic: IPC 0.0003783 < 0.01
Simulation CPU 0 panic: IPC 5.91e-05 < 0.01
Simulation CPU 0 panic: IPC 0.0005729 < 0.01
Simulation CPU 0 panic: IPC 5.59e-05 < 0.01
Simulation CPU 0 panic: IPC 1.87e-05 < 0.01
Simulation CPU 0 panic: IPC 0.0001355 < 0.01
Simulation CPU 0 panic: IPC 8.82e-05 < 0.01
Simulation CPU 0 panic: IPC 0.0006287 < 0.01
Simulation CPU 0 panic: IPC 0.0002503 < 0.01
Simulation CPU 0 panic: IPC 0.0002295 < 0.01
Simulation CPU 0 panic: IPC 0.000533 < 0.01
Simulation CPU 0 panic: IPC 0.0002229 < 0.01
Simulation CPU 0 panic: IPC 0.0004173 < 0.01
Simulation CPU 0 panic: IPC 3.09e-05 < 0.01
Simulation CPU 0 panic: IPC 0.0008507 < 0.01
Simulation CPU 0 panic: IPC 0.0001961 < 0.01
Simulation CPU 0 panic: IPC 2.97e-05 < 0.01
Simulation CPU 0 panic: IPC 0.0008716 < 0.01
Simulation CPU 0 panic: IPC 0.0004794 < 0.01
Simulation CPU 0 panic: IPC 0.0003833 < 0.01
Simulation CPU 0 panic: IPC 2.44e-05 < 0.01
Simulation CPU 0 panic: IPC 0.0018517 < 0.01
Simulation CPU 0 panic: IPC 0.000683 < 0.01
Simulation CPU 0 panic: IPC 0.0005767 < 0.01
Simulation CPU 0 panic: IPC 0.0004452 < 0.01
Simulation CPU 0 panic: IPC 0.0001906 < 0.01
Simulation CPU 0 panic: IPC 0.0003783 < 0.01
Simulation CPU 0 panic: IPC 0.0004302 < 0.01
Simulation CPU 0 panic: IPC 2.3e-06 < 0.01
Simulation CPU 0 panic: IPC 0.0002825 < 0.01
Simulation CPU 0 panic: IPC 7.46e-05 < 0.01
Simulation CPU 0 panic: IPC 4.15e-05 < 0.01
Simulation CPU 0 panic: IPC 0.0004392 < 0.01
Simulation CPU 0 panic: IPC 6.17e-05 < 0.01
Simulation CPU 0 panic: IPC 0.0001894 < 0.01
Simulation CPU 0 panic: IPC 0.0001777 < 0.01
Simulation CPU 0 panic: IPC 0.0001078 < 0.01
Simulation CPU 0 panic: IPC 0.0001729 < 0.01
Simulation CPU 0 panic: IPC 0.0002951 < 0.01
Simulation CPU 0 panic: IPC 4.1e-05 < 0.01
Simulation CPU 0 panic: IPC 9.01e-05 < 0.01
Simulation CPU 0 panic: IPC 4.96e-05 < 0.01
[ERROR_CYCLE] Error added at CPU cycle 10226515508, interval 22, pending count: 1
Simulation CPU 0 panic: IPC 5.58e-05 < 0.01
[DRAM_CYCLE_ERROR] Cycle-based error applied! address=0x6e89925c0 additional_latency=2459910500 cycles
Simulation CPU 0 panic: IPC 0 < 0.01
Simulation CPU 0 panic: IPC 0.0003167 < 0.01
Simulation CPU 0 panic: IPC 0.0005556 < 0.01
Simulation CPU 0 panic: IPC 3.43e-05 < 0.01
Simulation CPU 0 panic: IPC 8.24e-05 < 0.01
Simulation CPU 0 panic: IPC 0.0001991 < 0.01
Simulation CPU 0 panic: IPC 0.0005268 < 0.01
Simulation CPU 0 panic: IPC 0.0003604 < 0.01
Simulation CPU 0 panic: IPC 1.56e-05 < 0.01
Simulation CPU 0 panic: IPC 0.0001762 < 0.01
Simulation CPU 0 panic: IPC 0.0002859 < 0.01
Simulation CPU 0 panic: IPC 0.0010916 < 0.01
Simulation CPU 0 panic: IPC 0.001065 < 0.01
Simulation CPU 0 panic: IPC 1.8e-06 < 0.01
Simulation CPU 0 panic: IPC 0.001364 < 0.01
Simulation CPU 0 panic: IPC 0.0005411 < 0.01
Simulation CPU 0 panic: IPC 0.0003029 < 0.01
Simulation CPU 0 panic: IPC 0.0001096 < 0.01
Simulation CPU 0 panic: IPC 0.000311 < 0.01
Simulation CPU 0 panic: IPC 9.13e-05 < 0.01
Simulation CPU 0 panic: IPC 0.0005972 < 0.01
Simulation CPU 0 panic: IPC 8.07e-05 < 0.01
Simulation CPU 0 panic: IPC 0.0003685 < 0.01
Simulation CPU 0 panic: IPC 0.0001653 < 0.01
Simulation CPU 0 panic: IPC 0.0008265 < 0.01
Simulation CPU 0 panic: IPC 0.001385 < 0.01
Simulation CPU 0 panic: IPC 8.43e-05 < 0.01
Simulation CPU 0 panic: IPC 0.0030954 < 0.01
Simulation CPU 0 panic: IPC 2.33e-05 < 0.01
Simulation CPU 0 panic: IPC 0.001022 < 0.01
Simulation CPU 0 panic: IPC 7.88e-05 < 0.01
Simulation CPU 0 panic: IPC 0.0008157 < 0.01
Simulation CPU 0 panic: IPC 9.55e-05 < 0.01
Simulation CPU 0 panic: IPC 0.0011197 < 0.01
Heartbeat CPU 0 instructions: 30000002 cycles: 10579093718 heartbeat IPC: 0.002173 cumulative IPC: 0.002836 (Simulation time: 14 hr 39 min 18 sec)
Heartbeat CPU 0 instructions: 40000005 cycles: 10589292483 heartbeat IPC: 0.9805 cumulative IPC: 0.003777 (Simulation time: 14 hr 40 min 34 sec)
Simulation CPU 0 panic: IPC 0.0002341 < 0.01
Simulation CPU 0 panic: IPC 0.0001449 < 0.01
Simulation CPU 0 panic: IPC 0.0005373 < 0.01
Simulation CPU 0 panic: IPC 0.000802 < 0.01
Simulation CPU 0 panic: IPC 0.0015221 < 0.01
Simulation CPU 0 panic: IPC 0.000329 < 0.01
Simulation CPU 0 panic: IPC 0.0006917 < 0.01
Simulation CPU 0 panic: IPC 0.0043945 < 0.01
Simulation CPU 0 panic: IPC 0.0001536 < 0.01
[ERROR_CYCLE] Error added at CPU cycle 10691357123, interval 23, pending count: 1
[DRAM_CYCLE_ERROR] Cycle-based error applied! address=0x9cd99e3a0 additional_latency=2459910500 cycles
Simulation CPU 0 panic: IPC 0 < 0.01
Simulation CPU 0 panic: IPC 0.0001136 < 0.01
Simulation CPU 0 panic: IPC 0.001236 < 0.01
Simulation CPU 0 panic: IPC 0.0011719 < 0.01
Simulation CPU 0 panic: IPC 0.0008616 < 0.01
Simulation CPU 0 panic: IPC 0.0008143 < 0.01
Simulation CPU 0 panic: IPC 0.0004577 < 0.01
Simulation CPU 0 panic: IPC 0.0014182 < 0.01
Simulation CPU 0 panic: IPC 0.003327 < 0.01
Simulation CPU 0 panic: IPC 0.0007901 < 0.01
Simulation CPU 0 panic: IPC 0.0034794 < 0.01
Simulation CPU 0 panic: IPC 0.0004507 < 0.01
Simulation CPU 0 panic: IPC 0.0039655 < 0.01
Simulation CPU 0 panic: IPC 0.0001885 < 0.01
Simulation CPU 0 panic: IPC 0.0010644 < 0.01
Simulation CPU 0 panic: IPC 0.0027768 < 0.01
Simulation CPU 0 panic: IPC 0.0009948 < 0.01
Simulation CPU 0 panic: IPC 0.0002379 < 0.01
Simulation CPU 0 panic: IPC 0.0038665 < 0.01
Simulation CPU 0 panic: IPC 0.0025896 < 0.01
Simulation CPU 0 panic: IPC 0.0040519 < 0.01
Simulation CPU 0 panic: IPC 0.0036955 < 0.01
Simulation CPU 0 panic: IPC 0.0023399 < 0.01
Simulation CPU 0 panic: IPC 0.003127 < 0.01
Simulation CPU 0 panic: IPC 0.003356 < 0.01
Simulation CPU 0 panic: IPC 0.000954 < 0.01
Simulation CPU 0 panic: IPC 0.0009652 < 0.01
Simulation CPU 0 panic: IPC 0.0014659 < 0.01
Simulation CPU 0 panic: IPC 0.0016552 < 0.01
Simulation CPU 0 panic: IPC 0.0012115 < 0.01
Simulation CPU 0 panic: IPC 0.0019959 < 0.01
Simulation CPU 0 panic: IPC 0.0013098 < 0.01
Simulation CPU 0 panic: IPC 0.0041551 < 0.01
Simulation CPU 0 panic: IPC 0.0043005 < 0.01
Simulation CPU 0 panic: IPC 0.0009659 < 0.01
Simulation CPU 0 critical: IPC 0.011097 < 0.02
Simulation CPU 0 panic: IPC 0.001022 < 0.01
Simulation CPU 0 panic: IPC 0.0005779 < 0.01
Simulation CPU 0 panic: IPC 0.002196 < 0.01
Simulation CPU 0 panic: IPC 0.0001616 < 0.01
Simulation CPU 0 panic: IPC 0.0058939 < 0.01
Simulation CPU 0 panic: IPC 0.0009893 < 0.01
Simulation CPU 0 panic: IPC 0.0005063 < 0.01
Simulation CPU 0 panic: IPC 0.005345 < 0.01
Simulation CPU 0 panic: IPC 0.0016333 < 0.01
Simulation CPU 0 panic: IPC 0.0038256 < 0.01
[ERROR_CYCLE] Error added at CPU cycle 11156198736, interval 24, pending count: 1
[DRAM_CYCLE_ERROR] Cycle-based error applied! address=0x2f7a01c08 additional_latency=2459910500 cycles
Simulation CPU 0 panic: IPC 0.0008069 < 0.01
Simulation CPU 0 panic: IPC 0 < 0.01
Simulation CPU 0 panic: IPC 0.0005036 < 0.01
Simulation CPU 0 panic: IPC 0.002822 < 0.01
Simulation CPU 0 panic: IPC 0.0039969 < 0.01
Simulation CPU 0 panic: IPC 0.0004757 < 0.01
Simulation CPU 0 panic: IPC 0.004217 < 0.01
Simulation CPU 0 panic: IPC 0.0032196 < 0.01
Simulation CPU 0 panic: IPC 0.0003735 < 0.01
Simulation CPU 0 panic: IPC 0.0014995 < 0.01
Simulation CPU 0 panic: IPC 0.0018213 < 0.01
Simulation CPU 0 panic: IPC 0.0002664 < 0.01
Simulation CPU 0 panic: IPC 0.0019407 < 0.01
Simulation CPU 0 panic: IPC 0.0026608 < 0.01
Simulation CPU 0 panic: IPC 0.0018177 < 0.01
Simulation CPU 0 panic: IPC 0.0039653 < 0.01
Simulation CPU 0 panic: IPC 0.0035213 < 0.01
Simulation CPU 0 panic: IPC 0.0034992 < 0.01
Simulation CPU 0 panic: IPC 0.0001925 < 0.01
Simulation CPU 0 panic: IPC 0.004238 < 0.01
Simulation CPU 0 panic: IPC 0.0004441 < 0.01
Simulation CPU 0 panic: IPC 0.0001163 < 0.01
Simulation CPU 0 panic: IPC 0.0047938 < 0.01
Simulation CPU 0 panic: IPC 0.0033325 < 0.01
Simulation CPU 0 panic: IPC 0.0013515 < 0.01
Simulation CPU 0 panic: IPC 0.0043376 < 0.01
Simulation CPU 0 panic: IPC 0.0024248 < 0.01
Simulation CPU 0 panic: IPC 0.0055995 < 0.01
Simulation CPU 0 panic: IPC 0.0002012 < 0.01
Simulation CPU 0 panic: IPC 0.0060398 < 0.01
Simulation CPU 0 panic: IPC 0.0002445 < 0.01
Simulation CPU 0 panic: IPC 0.0015487 < 0.01
Simulation CPU 0 panic: IPC 0.0006916 < 0.01
Simulation CPU 0 panic: IPC 0.0008969 < 0.01
Simulation CPU 0 panic: IPC 0.0058898 < 0.01
Simulation CPU 0 panic: IPC 0.0018609 < 0.01
Simulation CPU 0 panic: IPC 0.0039194 < 0.01
Simulation CPU 0 panic: IPC 0.000682 < 0.01
Simulation CPU 0 panic: IPC 0.0010527 < 0.01
Simulation CPU 0 panic: IPC 0.0037237 < 0.01
Simulation CPU 0 panic: IPC 0.0018712 < 0.01
Simulation CPU 0 panic: IPC 0.0001619 < 0.01
Simulation CPU 0 panic: IPC 0.0002635 < 0.01
Simulation CPU 0 panic: IPC 0.0027166 < 0.01
Simulation CPU 0 panic: IPC 0.0001772 < 0.01
Simulation CPU 0 panic: IPC 0.0016879 < 0.01
Simulation CPU 0 panic: IPC 7.05e-05 < 0.01
[ERROR_CYCLE] Error added at CPU cycle 11621040351, interval 25, pending count: 1
[DRAM_CYCLE_ERROR] Cycle-based error applied! address=0x2f7a33cc0 additional_latency=2459910500 cycles
Simulation CPU 0 panic: IPC 0 < 0.01
Simulation CPU 0 panic: IPC 0.0001396 < 0.01
Simulation CPU 0 panic: IPC 0.0016226 < 0.01
Simulation CPU 0 panic: IPC 0.0020205 < 0.01
Simulation CPU 0 panic: IPC 0.0003671 < 0.01
Simulation CPU 0 panic: IPC 9.71e-05 < 0.01
Simulation CPU 0 panic: IPC 0.0049168 < 0.01
Simulation CPU 0 critical: IPC 0.011131 < 0.02
Simulation CPU 0 panic: IPC 0.0021724 < 0.01
Simulation CPU 0 panic: IPC 0.0020781 < 0.01
Simulation CPU 0 panic: IPC 0.0003764 < 0.01
Simulation CPU 0 panic: IPC 0.0047292 < 0.01
Simulation CPU 0 panic: IPC 0.000702 < 0.01
Simulation CPU 0 panic: IPC 0.0050569 < 0.01
Simulation CPU 0 panic: IPC 0.0024955 < 0.01
Simulation CPU 0 panic: IPC 0.0006319 < 0.01
Simulation CPU 0 panic: IPC 0.0038167 < 0.01
Simulation CPU 0 panic: IPC 5.04e-05 < 0.01
Simulation CPU 0 panic: IPC 0.0037798 < 0.01
Simulation CPU 0 panic: IPC 0.0050807 < 0.01
Simulation CPU 0 panic: IPC 0.0030732 < 0.01
Simulation CPU 0 panic: IPC 0.0003776 < 0.01
Simulation CPU 0 panic: IPC 0.0033511 < 0.01
Simulation CPU 0 panic: IPC 0.0086842 < 0.01
Simulation CPU 0 panic: IPC 0.0008329 < 0.01
Simulation CPU 0 panic: IPC 0.0063675 < 0.01
Simulation CPU 0 panic: IPC 0.0010047 < 0.01
Simulation CPU 0 panic: IPC 0.0008566 < 0.01
Simulation CPU 0 panic: IPC 0.0017842 < 0.01
Simulation CPU 0 panic: IPC 0.001071 < 0.01
Simulation CPU 0 panic: IPC 0.0028446 < 0.01
Simulation CPU 0 panic: IPC 0.0017474 < 0.01
Simulation CPU 0 panic: IPC 0.0032243 < 0.01
Simulation CPU 0 panic: IPC 0.005999 < 0.01
Simulation CPU 0 panic: IPC 0.0007005 < 0.01
Simulation CPU 0 panic: IPC 0.0017838 < 0.01
Simulation CPU 0 panic: IPC 0.0018997 < 0.01
Simulation CPU 0 panic: IPC 0.0017735 < 0.01
Simulation CPU 0 panic: IPC 0.001565 < 0.01
Simulation CPU 0 panic: IPC 0.002997 < 0.01
Simulation CPU 0 panic: IPC 0.0002374 < 0.01
Simulation CPU 0 panic: IPC 0.0023981 < 0.01
Simulation CPU 0 panic: IPC 0.0036571 < 0.01
Simulation CPU 0 panic: IPC 0.0010872 < 0.01
Simulation CPU 0 panic: IPC 0.0018779 < 0.01
Simulation CPU 0 panic: IPC 0.0005511 < 0.01
[ERROR_CYCLE] Error added at CPU cycle 12085881964, interval 26, pending count: 1
[DRAM_CYCLE_ERROR] Cycle-based error applied! address=0x7f191a028 additional_latency=2459910500 cycles
Simulation CPU 0 panic: IPC 0 < 0.01
Simulation CPU 0 panic: IPC 0.0061565 < 0.01
Simulation CPU 0 panic: IPC 0.0008642 < 0.01
Simulation CPU 0 panic: IPC 0.0021942 < 0.01
Simulation CPU 0 panic: IPC 1.18e-05 < 0.01
Simulation CPU 0 panic: IPC 0.0005595 < 0.01
Simulation CPU 0 panic: IPC 0.0007938 < 0.01
Simulation CPU 0 panic: IPC 0.0009042 < 0.01
Simulation CPU 0 panic: IPC 0.0005772 < 0.01
Simulation CPU 0 panic: IPC 0.0006617 < 0.01
Simulation CPU 0 panic: IPC 0.0056233 < 0.01
Simulation CPU 0 panic: IPC 0.0034381 < 0.01
Simulation CPU 0 panic: IPC 0.0013106 < 0.01
Simulation CPU 0 panic: IPC 0.0001617 < 0.01
Simulation CPU 0 panic: IPC 0.0016575 < 0.01
Simulation CPU 0 panic: IPC 0.0028725 < 0.01
Simulation CPU 0 panic: IPC 0.0017505 < 0.01
Simulation CPU 0 panic: IPC 0.0012968 < 0.01
Simulation CPU 0 panic: IPC 0.0006322 < 0.01
Simulation CPU 0 panic: IPC 0.0006884 < 0.01
Simulation CPU 0 panic: IPC 0.001009 < 0.01
Simulation CPU 0 panic: IPC 0.0038769 < 0.01
Simulation CPU 0 panic: IPC 0.0007594 < 0.01
Simulation CPU 0 panic: IPC 0.0019421 < 0.01
Simulation CPU 0 panic: IPC 0.0018783 < 0.01
Simulation CPU 0 panic: IPC 0.0062068 < 0.01
Simulation CPU 0 panic: IPC 0.0053697 < 0.01
Simulation CPU 0 panic: IPC 2.92e-05 < 0.01
Simulation CPU 0 panic: IPC 0.00192 < 0.01
Simulation CPU 0 panic: IPC 0.0001657 < 0.01
Simulation CPU 0 panic: IPC 0.0012353 < 0.01
Simulation CPU 0 panic: IPC 0.0014887 < 0.01
Simulation CPU 0 panic: IPC 0.0036257 < 0.01
Simulation CPU 0 panic: IPC 0.0005362 < 0.01
Simulation CPU 0 panic: IPC 0.0007185 < 0.01
Simulation CPU 0 panic: IPC 0.0031278 < 0.01
Simulation CPU 0 panic: IPC 0.0001112 < 0.01
Simulation CPU 0 panic: IPC 0.0063878 < 0.01
Simulation CPU 0 panic: IPC 0.0030346 < 0.01
Simulation CPU 0 panic: IPC 0.0027472 < 0.01
Simulation CPU 0 panic: IPC 0.0023522 < 0.01
Simulation CPU 0 panic: IPC 0.0009493 < 0.01
Simulation CPU 0 panic: IPC 0.0005279 < 0.01
Simulation CPU 0 panic: IPC 0.0013248 < 0.01
Simulation CPU 0 panic: IPC 0.0021886 < 0.01
Simulation CPU 0 panic: IPC 0.0055791 < 0.01
[ERROR_CYCLE] Error added at CPU cycle 12550723579, interval 27, pending count: 1
[DRAM_CYCLE_ERROR] Cycle-based error applied! address=0x155198ff8 additional_latency=2459910500 cycles
Heartbeat CPU 0 instructions: 50000005 cycles: 12557437658 heartbeat IPC: 0.005081 cumulative IPC: 0.003982 (Simulation time: 17 hr 25 min 08 sec)
Heartbeat CPU 0 instructions: 60000005 cycles: 12572537171 heartbeat IPC: 0.6623 cumulative IPC: 0.004772 (Simulation time: 17 hr 26 min 53 sec)
Heartbeat CPU 0 instructions: 70000005 cycles: 12588286801 heartbeat IPC: 0.6349 cumulative IPC: 0.005561 (Simulation time: 17 hr 28 min 42 sec)
Heartbeat CPU 0 instructions: 80000007 cycles: 12598113977 heartbeat IPC: 1.018 cumulative IPC: 0.00635 (Simulation time: 17 hr 29 min 57 sec)
Heartbeat CPU 0 instructions: 90000007 cycles: 12608521287 heartbeat IPC: 0.9609 cumulative IPC: 0.007138 (Simulation time: 17 hr 31 min 16 sec)
Heartbeat CPU 0 instructions: 100000007 cycles: 12617819155 heartbeat IPC: 1.076 cumulative IPC: 0.007925 (Simulation time: 17 hr 32 min 27 sec)
Heartbeat CPU 0 instructions: 110000007 cycles: 12637587520 heartbeat IPC: 0.5059 cumulative IPC: 0.008704 (Simulation time: 17 hr 34 min 38 sec)
Heartbeat CPU 0 instructions: 120000009 cycles: 12651076415 heartbeat IPC: 0.7414 cumulative IPC: 0.009485 (Simulation time: 17 hr 36 min 13 sec)
Heartbeat CPU 0 instructions: 130000011 cycles: 12661700762 heartbeat IPC: 0.9412 cumulative IPC: 0.01027 (Simulation time: 17 hr 37 min 33 sec)
Simulation CPU 0 panic: IPC 0.001496 < 0.01
Simulation CPU 0 critical: IPC 0.017236 < 0.02
Simulation CPU 0 panic: IPC 0.0020877 < 0.01
Simulation CPU 0 panic: IPC 0.0002275 < 0.01
Simulation CPU 0 warning: IPC 0.03943 < 0.05
Simulation CPU 0 panic: IPC 0.0035797 < 0.01
Simulation CPU 0 panic: IPC 0.000357 < 0.01
Simulation CPU 0 panic: IPC 0.0001088 < 0.01
Simulation CPU 0 critical: IPC 0.016886 < 0.02
Simulation CPU 0 panic: IPC 0.0035105 < 0.01
Simulation CPU 0 panic: IPC 0.0028688 < 0.01
Simulation CPU 0 panic: IPC 0.0045273 < 0.01
Simulation CPU 0 panic: IPC 0.0014785 < 0.01
Simulation CPU 0 panic: IPC 0.0093019 < 0.01
Simulation CPU 0 critical: IPC 0.012603 < 0.02
Simulation CPU 0 panic: IPC 0.0019676 < 0.01
Simulation CPU 0 panic: IPC 0.0079056 < 0.01
Simulation CPU 0 panic: IPC 0.0043042 < 0.01
Simulation CPU 0 panic: IPC 0.0071251 < 0.01
Simulation CPU 0 panic: IPC 0.0034548 < 0.01
Simulation CPU 0 panic: IPC 0.0087781 < 0.01
Simulation CPU 0 critical: IPC 0.014632 < 0.02
Simulation CPU 0 panic: IPC 0.0010875 < 0.01
Simulation CPU 0 panic: IPC 0.0010083 < 0.01
Simulation CPU 0 critical: IPC 0.015786 < 0.02
Simulation CPU 0 panic: IPC 0.0051403 < 0.01
Simulation CPU 0 critical: IPC 0.016832 < 0.02
Simulation CPU 0 panic: IPC 0.0064024 < 0.01
Heartbeat CPU 0 instructions: 140000012 cycles: 12955994634 heartbeat IPC: 0.03398 cumulative IPC: 0.01081 (Simulation time: 18 hr 02 min 09 sec)
Simulation CPU 0 warning: IPC 0.029312 < 0.05
Simulation CPU 0 panic: IPC 0.0027006 < 0.01
Simulation CPU 0 panic: IPC 0.0091198 < 0.01
Simulation CPU 0 panic: IPC 0.0042005 < 0.01
Simulation CPU 0 panic: IPC 0.0039546 < 0.01
Simulation CPU 0 panic: IPC 0.0082611 < 0.01
[ERROR_CYCLE] Error added at CPU cycle 13015565192, interval 28, pending count: 1
[DRAM_CYCLE_ERROR] Cycle-based error applied! address=0x2f7ab8898 additional_latency=2459910500 cycles
Simulation CPU 0 panic: IPC 0.0066303 < 0.01
Simulation CPU 0 panic: IPC 0 < 0.01
Simulation CPU 0 panic: IPC 0.0023496 < 0.01
Simulation CPU 0 panic: IPC 0.0063523 < 0.01
Simulation CPU 0 panic: IPC 0.0023258 < 0.01
Simulation CPU 0 panic: IPC 0.0068166 < 0.01
Simulation CPU 0 warning: IPC 0.02462 < 0.05
Simulation CPU 0 critical: IPC 0.017064 < 0.02
Simulation CPU 0 panic: IPC 0.0071573 < 0.01
Simulation CPU 0 warning: IPC 0.038399 < 0.05
Simulation CPU 0 panic: IPC 0.0009689 < 0.01
Simulation CPU 0 panic: IPC 0.0029348 < 0.01
Simulation CPU 0 critical: IPC 0.01162 < 0.02
Simulation CPU 0 critical: IPC 0.011349 < 0.02
Simulation CPU 0 panic: IPC 0.0039513 < 0.01
Simulation CPU 0 panic: IPC 0.009105 < 0.01
Simulation CPU 0 panic: IPC 0.0089175 < 0.01
Simulation CPU 0 panic: IPC 0.0090605 < 0.01
Simulation CPU 0 critical: IPC 0.01369 < 0.02
Simulation CPU 0 critical: IPC 0.014311 < 0.02
Simulation CPU 0 panic: IPC 0.0062441 < 0.01
Simulation CPU 0 critical: IPC 0.013253 < 0.02
Simulation CPU 0 warning: IPC 0.044306 < 0.05
Heartbeat CPU 0 instructions: 150000014 cycles: 13250308646 heartbeat IPC: 0.03398 cumulative IPC: 0.01132 (Simulation time: 18 hr 27 min 04 sec)
Heartbeat CPU 0 instructions: 160000017 cycles: 13261307811 heartbeat IPC: 0.9092 cumulative IPC: 0.01207 (Simulation time: 18 hr 28 min 07 sec)
Heartbeat CPU 0 instructions: 170000020 cycles: 13269389582 heartbeat IPC: 1.237 cumulative IPC: 0.01281 (Simulation time: 18 hr 28 min 53 sec)
Heartbeat CPU 0 instructions: 180000022 cycles: 13298335712 heartbeat IPC: 0.3455 cumulative IPC: 0.01354 (Simulation time: 18 hr 31 min 47 sec)
Heartbeat CPU 0 instructions: 190000022 cycles: 13306842014 heartbeat IPC: 1.176 cumulative IPC: 0.01428 (Simulation time: 18 hr 32 min 45 sec)
Heartbeat CPU 0 instructions: 200000022 cycles: 13318114773 heartbeat IPC: 0.8871 cumulative IPC: 0.01502 (Simulation time: 18 hr 33 min 50 sec)
Heartbeat CPU 0 instructions: 210000023 cycles: 13334687107 heartbeat IPC: 0.6034 cumulative IPC: 0.01575 (Simulation time: 18 hr 35 min 40 sec)
Heartbeat CPU 0 instructions: 220000024 cycles: 13356692363 heartbeat IPC: 0.4544 cumulative IPC: 0.01647 (Simulation time: 18 hr 38 min 01 sec)
Heartbeat CPU 0 instructions: 230000024 cycles: 13367149167 heartbeat IPC: 0.9563 cumulative IPC: 0.01721 (Simulation time: 18 hr 39 min 20 sec)
Heartbeat CPU 0 instructions: 240000024 cycles: 13378737251 heartbeat IPC: 0.863 cumulative IPC: 0.01794 (Simulation time: 18 hr 40 min 45 sec)
Heartbeat CPU 0 instructions: 250000028 cycles: 13387330571 heartbeat IPC: 1.164 cumulative IPC: 0.01867 (Simulation time: 18 hr 41 min 52 sec)
Simulation CPU 0 panic: IPC 5.8e-06 < 0.01
Simulation CPU 0 panic: IPC 5.3e-06 < 0.01
Simulation CPU 0 panic: IPC 1.2e-06 < 0.01
Simulation CPU 0 critical: IPC 0.01587 < 0.02
[ERROR_CYCLE] Error added at CPU cycle 13480406807, interval 29, pending count: 1
[DRAM_CYCLE_ERROR] Cycle-based error applied! address=0xec390d6a8 additional_latency=2459910500 cycles
Simulation CPU 0 panic: IPC 0 < 0.01
Simulation CPU 0 warning: IPC 0.034375 < 0.05
Simulation CPU 0 warning: IPC 0.022789 < 0.05
Simulation CPU 0 critical: IPC 0.019893 < 0.02
Simulation CPU 0 warning: IPC 0.025095 < 0.05
Heartbeat CPU 0 instructions: 260000028 cycles: 13566266957 heartbeat IPC: 0.05589 cumulative IPC: 0.01917 (Simulation time: 18 hr 56 min 42 sec)
Simulation CPU 0 panic: IPC 0.0084805 < 0.01
Simulation CPU 0 warning: IPC 0.024518 < 0.05
Simulation CPU 0 warning: IPC 0.026459 < 0.05
Simulation CPU 0 warning: IPC 0.023289 < 0.05
Heartbeat CPU 0 instructions: 270000028 cycles: 13680474494 heartbeat IPC: 0.08756 cumulative IPC: 0.01974 (Simulation time: 19 hr 05 min 53 sec)
Heartbeat CPU 0 instructions: 280000028 cycles: 13697462122 heartbeat IPC: 0.5887 cumulative IPC: 0.02044 (Simulation time: 19 hr 07 min 27 sec)
Heartbeat CPU 0 instructions: 290000029 cycles: 13714355273 heartbeat IPC: 0.592 cumulative IPC: 0.02115 (Simulation time: 19 hr 08 min 59 sec)
Heartbeat CPU 0 instructions: 300000029 cycles: 13732563923 heartbeat IPC: 0.5492 cumulative IPC: 0.02185 (Simulation time: 19 hr 10 min 50 sec)
Heartbeat CPU 0 instructions: 310000030 cycles: 13743363218 heartbeat IPC: 0.926 cumulative IPC: 0.02256 (Simulation time: 19 hr 12 min 07 sec)
Heartbeat CPU 0 instructions: 320000030 cycles: 13754049949 heartbeat IPC: 0.9357 cumulative IPC: 0.02327 (Simulation time: 19 hr 13 min 10 sec)
Heartbeat CPU 0 instructions: 330000032 cycles: 13776894186 heartbeat IPC: 0.4377 cumulative IPC: 0.02395 (Simulation time: 19 hr 15 min 31 sec)
Heartbeat CPU 0 instructions: 340000032 cycles: 13787595526 heartbeat IPC: 0.9345 cumulative IPC: 0.02466 (Simulation time: 19 hr 16 min 34 sec)
Heartbeat CPU 0 instructions: 350000032 cycles: 13795714703 heartbeat IPC: 1.232 cumulative IPC: 0.02537 (Simulation time: 19 hr 17 min 39 sec)
Heartbeat CPU 0 instructions: 360000032 cycles: 13816287822 heartbeat IPC: 0.4861 cumulative IPC: 0.02606 (Simulation time: 19 hr 19 min 53 sec)
Heartbeat CPU 0 instructions: 370000034 cycles: 13828631662 heartbeat IPC: 0.8101 cumulative IPC: 0.02676 (Simulation time: 19 hr 21 min 22 sec)
Heartbeat CPU 0 instructions: 380000034 cycles: 13838023448 heartbeat IPC: 1.065 cumulative IPC: 0.02746 (Simulation time: 19 hr 22 min 33 sec)
Heartbeat CPU 0 instructions: 390000034 cycles: 13862821724 heartbeat IPC: 0.4033 cumulative IPC: 0.02813 (Simulation time: 19 hr 24 min 55 sec)
Heartbeat CPU 0 instructions: 400000034 cycles: 13887006050 heartbeat IPC: 0.4135 cumulative IPC: 0.0288 (Simulation time: 19 hr 27 min 19 sec)
Heartbeat CPU 0 instructions: 410000034 cycles: 13897556119 heartbeat IPC: 0.9479 cumulative IPC: 0.0295 (Simulation time: 19 hr 28 min 15 sec)
Heartbeat CPU 0 instructions: 420000035 cycles: 13906444999 heartbeat IPC: 1.125 cumulative IPC: 0.0302 (Simulation time: 19 hr 29 min 11 sec)
Heartbeat CPU 0 instructions: 430000038 cycles: 13920000507 heartbeat IPC: 0.7377 cumulative IPC: 0.03089 (Simulation time: 19 hr 30 min 46 sec)
[ERROR_CYCLE] Error added at CPU cycle 13945248420, interval 30, pending count: 1
[DRAM_CYCLE_ERROR] Cycle-based error applied! address=0xa6777bfc8 additional_latency=2459910500 cycles
Heartbeat CPU 0 instructions: 440000041 cycles: 13961837123 heartbeat IPC: 0.239 cumulative IPC: 0.03151 (Simulation time: 19 hr 34 min 04 sec)
Heartbeat CPU 0 instructions: 450000044 cycles: 13970290109 heartbeat IPC: 1.183 cumulative IPC: 0.03221 (Simulation time: 19 hr 34 min 55 sec)
Heartbeat CPU 0 instructions: 460000044 cycles: 13983736458 heartbeat IPC: 0.7437 cumulative IPC: 0.0329 (Simulation time: 19 hr 36 min 22 sec)
Heartbeat CPU 0 instructions: 470000044 cycles: 13992609680 heartbeat IPC: 1.127 cumulative IPC: 0.03359 (Simulation time: 19 hr 37 min 26 sec)
Heartbeat CPU 0 instructions: 480000045 cycles: 14002472773 heartbeat IPC: 1.014 cumulative IPC: 0.03428 (Simulation time: 19 hr 38 min 40 sec)
Heartbeat CPU 0 instructions: 490000046 cycles: 14027868631 heartbeat IPC: 0.3938 cumulative IPC: 0.03493 (Simulation time: 19 hr 41 min 20 sec)
Heartbeat CPU 0 instructions: 500000046 cycles: 14037910874 heartbeat IPC: 0.9958 cumulative IPC: 0.03562 (Simulation time: 19 hr 42 min 34 sec)
Heartbeat CPU 0 instructions: 510000047 cycles: 14049182856 heartbeat IPC: 0.8872 cumulative IPC: 0.0363 (Simulation time: 19 hr 43 min 41 sec)
Heartbeat CPU 0 instructions: 520000048 cycles: 14057752898 heartbeat IPC: 1.167 cumulative IPC: 0.03699 (Simulation time: 19 hr 44 min 49 sec)
Heartbeat CPU 0 instructions: 530000052 cycles: 14068042129 heartbeat IPC: 0.9719 cumulative IPC: 0.03767 (Simulation time: 19 hr 46 min 06 sec)
Simulation CPU 0 panic: IPC 3.8e-06 < 0.01
Simulation CPU 0 panic: IPC 1.3e-06 < 0.01
Simulation CPU 0 panic: IPC 4.1e-06 < 0.01
Simulation CPU 0 panic: IPC 1.2e-06 < 0.01
Simulation CPU 0 critical: IPC 0.018712 < 0.02
Simulation CPU 0 warning: IPC 0.030417 < 0.05
Simulation CPU 0 critical: IPC 0.016405 < 0.02
Simulation CPU 0 warning: IPC 0.02656 < 0.05
Simulation CPU 0 panic: IPC 0.0018624 < 0.01
Simulation CPU 0 critical: IPC 0.014784 < 0.02
Simulation CPU 0 warning: IPC 0.044701 < 0.05
Simulation CPU 0 warning: IPC 0.032263 < 0.05
Simulation CPU 0 panic: IPC 0.0068826 < 0.01
Simulation CPU 0 warning: IPC 0.047257 < 0.05
Simulation CPU 0 panic: IPC 5.81e-05 < 0.01
Simulation CPU 0 warning: IPC 0.027268 < 0.05
Simulation CPU 0 critical: IPC 0.010337 < 0.02
Simulation CPU 0 warning: IPC 0.040249 < 0.05
Simulation CPU 0 critical: IPC 0.014793 < 0.02
Simulation CPU 0 critical: IPC 0.011298 < 0.02
Simulation CPU 0 warning: IPC 0.035708 < 0.05
Simulation CPU 0 critical: IPC 0.013475 < 0.02
Heartbeat CPU 0 instructions: 540000055 cycles: 14349415562 heartbeat IPC: 0.03554 cumulative IPC: 0.03763 (Simulation time: 20 hr 06 min 38 sec)
Simulation CPU 0 warning: IPC 0.030214 < 0.05
Simulation CPU 0 critical: IPC 0.011227 < 0.02
Simulation CPU 0 warning: IPC 0.021373 < 0.05
Simulation CPU 0 critical: IPC 0.018953 < 0.02
Simulation CPU 0 warning: IPC 0.028881 < 0.05
Simulation CPU 0 warning: IPC 0.048049 < 0.05
[ERROR_CYCLE] Error added at CPU cycle 14410090035, interval 31, pending count: 1
[DRAM_CYCLE_ERROR] Cycle-based error applied! address=0xb4e05438 additional_latency=2459910500 cycles
Simulation CPU 0 panic: IPC 0 < 0.01
Simulation CPU 0 critical: IPC 0.010094 < 0.02
Simulation CPU 0 panic: IPC 0.0038699 < 0.01
Simulation CPU 0 panic: IPC 0.003213 < 0.01
Simulation CPU 0 critical: IPC 0.014776 < 0.02
Simulation CPU 0 warning: IPC 0.042481 < 0.05
Simulation CPU 0 warning: IPC 0.024948 < 0.05
Simulation CPU 0 warning: IPC 0.037395 < 0.05
Simulation CPU 0 critical: IPC 0.016918 < 0.02
Simulation CPU 0 critical: IPC 0.018568 < 0.02
Simulation CPU 0 warning: IPC 0.030843 < 0.05
Simulation CPU 0 warning: IPC 0.026509 < 0.05
Simulation CPU 0 panic: IPC 0.0010005 < 0.01
Simulation CPU 0 warning: IPC 0.044695 < 0.05
Simulation CPU 0 panic: IPC 0.0002928 < 0.01
Simulation CPU 0 critical: IPC 0.019849 < 0.02
Simulation CPU 0 warning: IPC 0.020792 < 0.05
Simulation CPU 0 warning: IPC 0.023828 < 0.05
Simulation CPU 0 critical: IPC 0.010597 < 0.02
Simulation CPU 0 critical: IPC 0.018078 < 0.02
Simulation CPU 0 critical: IPC 0.018059 < 0.02
Heartbeat CPU 0 instructions: 550000056 cycles: 14674850842 heartbeat IPC: 0.03073 cumulative IPC: 0.03748 (Simulation time: 20 hr 34 min 25 sec)
Simulation CPU 0 warning: IPC 0.032255 < 0.05
Simulation CPU 0 panic: IPC 0.0031207 < 0.01
Simulation CPU 0 panic: IPC 0.0091262 < 0.01
Simulation CPU 0 warning: IPC 0.040667 < 0.05
Simulation CPU 0 critical: IPC 0.017628 < 0.02
Simulation CPU 0 critical: IPC 0.017398 < 0.02
Simulation CPU 0 critical: IPC 0.017601 < 0.02
Simulation CPU 0 warning: IPC 0.043357 < 0.05
Simulation CPU 0 warning: IPC 0.035295 < 0.05
Simulation CPU 0 warning: IPC 0.035148 < 0.05
Simulation CPU 0 critical: IPC 0.018185 < 0.02
Simulation CPU 0 warning: IPC 0.023208 < 0.05
Simulation CPU 0 warning: IPC 0.031082 < 0.05
Simulation CPU 0 critical: IPC 0.014411 < 0.02
Simulation CPU 0 warning: IPC 0.021798 < 0.05
Simulation CPU 0 critical: IPC 0.010878 < 0.02
[ERROR_CYCLE] Error added at CPU cycle 14874931648, interval 32, pending count: 1
[DRAM_CYCLE_ERROR] Cycle-based error applied! address=0x808dffff8 additional_latency=2459910500 cycles
Simulation CPU 0 panic: IPC 0 < 0.01
Simulation CPU 0 warning: IPC 0.024586 < 0.05
Simulation CPU 0 critical: IPC 0.017296 < 0.02
Simulation CPU 0 warning: IPC 0.029996 < 0.05
Simulation CPU 0 warning: IPC 0.026737 < 0.05
Simulation CPU 0 critical: IPC 0.019242 < 0.02
Simulation CPU 0 critical: IPC 0.016679 < 0.02
Simulation CPU 0 warning: IPC 0.035373 < 0.05
Simulation CPU 0 panic: IPC 0.0001573 < 0.01
Heartbeat CPU 0 instructions: 560000056 cycles: 14995648308 heartbeat IPC: 0.03117 cumulative IPC: 0.03734 (Simulation time: 20 hr 58 min 41 sec)
Simulation CPU 0 critical: IPC 0.018188 < 0.02
Simulation CPU 0 critical: IPC 0.017274 < 0.02
Simulation CPU 0 warning: IPC 0.023553 < 0.05
Simulation CPU 0 critical: IPC 0.015364 < 0.02
Simulation CPU 0 warning: IPC 0.036629 < 0.05
Simulation CPU 0 critical: IPC 0.011111 < 0.02
Simulation CPU 0 warning: IPC 0.036228 < 0.05
Simulation CPU 0 warning: IPC 0.035095 < 0.05
Simulation CPU 0 panic: IPC 0.0002298 < 0.01
Simulation CPU 0 critical: IPC 0.010524 < 0.02
Simulation CPU 0 panic: IPC 0.0078878 < 0.01
Simulation CPU 0 warning: IPC 0.026456 < 0.05
Simulation CPU 0 critical: IPC 0.018831 < 0.02
Simulation CPU 0 warning: IPC 0.033282 < 0.05
Simulation CPU 0 warning: IPC 0.030388 < 0.05
Simulation CPU 0 critical: IPC 0.018478 < 0.02
Simulation CPU 0 warning: IPC 0.025989 < 0.05
Simulation CPU 0 panic: IPC 0.0023976 < 0.01
Simulation CPU 0 warning: IPC 0.03435 < 0.05
Simulation CPU 0 warning: IPC 0.033582 < 0.05
Simulation CPU 0 critical: IPC 0.016608 < 0.02
Heartbeat CPU 0 instructions: 570000057 cycles: 15270334494 heartbeat IPC: 0.03641 cumulative IPC: 0.03733 (Simulation time: 21 hr 22 min 14 sec)
Simulation CPU 0 warning: IPC 0.042097 < 0.05
Simulation CPU 0 warning: IPC 0.046819 < 0.05
Simulation CPU 0 panic: IPC 0.0071088 < 0.01
Simulation CPU 0 panic: IPC 0.0062214 < 0.01
[ERROR_CYCLE] Error added at CPU cycle 15339773263, interval 33, pending count: 1
Simulation CPU 0 warning: IPC 0.030995 < 0.05
[DRAM_CYCLE_ERROR] Cycle-based error applied! address=0xb4e5a1f8 additional_latency=2459910500 cycles
Simulation CPU 0 panic: IPC 0 < 0.01
Simulation CPU 0 warning: IPC 0.020398 < 0.05
Simulation CPU 0 critical: IPC 0.017856 < 0.02
Simulation CPU 0 critical: IPC 0.019513 < 0.02
Simulation CPU 0 warning: IPC 0.030946 < 0.05
Simulation CPU 0 warning: IPC 0.044658 < 0.05
Simulation CPU 0 warning: IPC 0.026924 < 0.05
Simulation CPU 0 warning: IPC 0.031409 < 0.05
Simulation CPU 0 critical: IPC 0.018697 < 0.02
Simulation CPU 0 warning: IPC 0.032509 < 0.05
Simulation CPU 0 critical: IPC 0.012886 < 0.02
Simulation CPU 0 warning: IPC 0.020668 < 0.05
Simulation CPU 0 warning: IPC 0.033197 < 0.05
Simulation CPU 0 warning: IPC 0.047668 < 0.05
Heartbeat CPU 0 instructions: 580000060 cycles: 15526318615 heartbeat IPC: 0.03906 cumulative IPC: 0.03736 (Simulation time: 21 hr 42 min 06 sec)
Simulation CPU 0 warning: IPC 0.029352 < 0.05
Simulation CPU 0 critical: IPC 0.015188 < 0.02
Simulation CPU 0 critical: IPC 0.016003 < 0.02
Simulation CPU 0 warning: IPC 0.041837 < 0.05
Simulation CPU 0 critical: IPC 0.01779 < 0.02
Simulation CPU 0 critical: IPC 0.017338 < 0.02
Simulation CPU 0 critical: IPC 0.019718 < 0.02
Simulation CPU 0 warning: IPC 0.040834 < 0.05
Simulation CPU 0 critical: IPC 0.011358 < 0.02
Simulation CPU 0 critical: IPC 0.017973 < 0.02
Simulation CPU 0 critical: IPC 0.016929 < 0.02
Simulation CPU 0 warning: IPC 0.029282 < 0.05
Simulation CPU 0 panic: IPC 0.002456 < 0.01
Simulation CPU 0 warning: IPC 0.029386 < 0.05
Simulation CPU 0 critical: IPC 0.013559 < 0.02
Simulation CPU 0 warning: IPC 0.035856 < 0.05
Simulation CPU 0 panic: IPC 0.007594 < 0.01
Simulation CPU 0 warning: IPC 0.023231 < 0.05
Heartbeat CPU 0 instructions: 590000060 cycles: 15791618133 heartbeat IPC: 0.03769 cumulative IPC: 0.03736 (Simulation time: 22 hr 04 min 02 sec)
Simulation CPU 0 warning: IPC 0.039098 < 0.05
[ERROR_CYCLE] Error added at CPU cycle 15804614876, interval 34, pending count: 1
[...]
Heartbeat CPU 0 instructions: 1130000136 cycles: 17451109847 heartbeat IPC: 1.218 cumulative IPC: 0.06475 (Simulation time: 00 hr 41 min 53 sec)
Heartbeat CPU 0 instructions: 1140000137 cycles: 17474572326 heartbeat IPC: 0.4262 cumulative IPC: 0.06524 (Simulation time: 00 hr 44 min 22 sec)
Heartbeat CPU 0 instructions: 1150000137 cycles: 17484850653 heartbeat IPC: 0.9729 cumulative IPC: 0.06577 (Simulation time: 00 hr 45 min 25 sec)
Heartbeat CPU 0 instructions: 1160000139 cycles: 17501480020 heartbeat IPC: 0.6013 cumulative IPC: 0.06628 (Simulation time: 00 hr 46 min 48 sec)
Heartbeat CPU 0 instructions: 1170000141 cycles: 17509945274 heartbeat IPC: 1.181 cumulative IPC: 0.06682 (Simulation time: 00 hr 47 min 35 sec)
Heartbeat CPU 0 instructions: 1180000142 cycles: 17519722256 heartbeat IPC: 1.023 cumulative IPC: 0.06735 (Simulation time: 00 hr 48 min 25 sec)
Heartbeat CPU 0 instructions: 1190000146 cycles: 17548951745 heartbeat IPC: 0.3421 cumulative IPC: 0.06781 (Simulation time: 00 hr 51 min 18 sec)
Heartbeat CPU 0 instructions: 1200000147 cycles: 17558673013 heartbeat IPC: 1.029 cumulative IPC: 0.06834 (Simulation time: 00 hr 52 min 33 sec)
Heartbeat CPU 0 instructions: 1210000151 cycles: 17573787037 heartbeat IPC: 0.6616 cumulative IPC: 0.06885 (Simulation time: 00 hr 54 min 21 sec)
Heartbeat CPU 0 instructions: 1220000151 cycles: 17587755853 heartbeat IPC: 0.7159 cumulative IPC: 0.06937 (Simulation time: 00 hr 56 min 01 sec)
Heartbeat CPU 0 instructions: 1230000154 cycles: 17595718144 heartbeat IPC: 1.256 cumulative IPC: 0.0699 (Simulation time: 00 hr 57 min 06 sec)
Heartbeat CPU 0 instructions: 1240000154 cycles: 17605418123 heartbeat IPC: 1.031 cumulative IPC: 0.07043 (Simulation time: 00 hr 58 min 18 sec)
Heartbeat CPU 0 instructions: 1250000157 cycles: 17626310717 heartbeat IPC: 0.4786 cumulative IPC: 0.07092 (Simulation time: 01 hr 00 min 18 sec)
Heartbeat CPU 0 instructions: 1260000157 cycles: 17635453900 heartbeat IPC: 1.094 cumulative IPC: 0.07145 (Simulation time: 01 hr 01 min 11 sec)
Heartbeat CPU 0 instructions: 1270000157 cycles: 17647617787 heartbeat IPC: 0.8221 cumulative IPC: 0.07196 (Simulation time: 01 hr 02 min 38 sec)
[ERROR_CYCLE] Error added at CPU cycle 17663981332, interval 38, pending count: 1
[DRAM_CYCLE_ERROR] Cycle-based error applied! address=0x3040fe498 additional_latency=2459910500 cycles
Heartbeat CPU 0 instructions: 1280000159 cycles: 17676068652 heartbeat IPC: 0.3515 cumulative IPC: 0.07241 (Simulation time: 01 hr 05 min 19 sec)
Heartbeat CPU 0 instructions: 1290000163 cycles: 17707730311 heartbeat IPC: 0.3158 cumulative IPC: 0.07285 (Simulation time: 01 hr 08 min 40 sec)
Heartbeat CPU 0 instructions: 1300000165 cycles: 17716853951 heartbeat IPC: 1.096 cumulative IPC: 0.07338 (Simulation time: 01 hr 09 min 52 sec)
Heartbeat CPU 0 instructions: 1310000166 cycles: 17726459692 heartbeat IPC: 1.041 cumulative IPC: 0.0739 (Simulation time: 01 hr 11 min 06 sec)
Heartbeat CPU 0 instructions: 1320000166 cycles: 17734703012 heartbeat IPC: 1.213 cumulative IPC: 0.07443 (Simulation time: 01 hr 12 min 15 sec)
Heartbeat CPU 0 instructions: 1330000167 cycles: 17755350378 heartbeat IPC: 0.4843 cumulative IPC: 0.07491 (Simulation time: 01 hr 14 min 32 sec)
Heartbeat CPU 0 instructions: 1340000168 cycles: 17791243212 heartbeat IPC: 0.2786 cumulative IPC: 0.07532 (Simulation time: 01 hr 18 min 10 sec)
Heartbeat CPU 0 instructions: 1350000171 cycles: 17813016020 heartbeat IPC: 0.4593 cumulative IPC: 0.07579 (Simulation time: 01 hr 20 min 10 sec)
Heartbeat CPU 0 instructions: 1360000171 cycles: 17822337452 heartbeat IPC: 1.073 cumulative IPC: 0.07631 (Simulation time: 01 hr 21 min 04 sec)
Heartbeat CPU 0 instructions: 1370000175 cycles: 17836895436 heartbeat IPC: 0.6869 cumulative IPC: 0.07681 (Simulation time: 01 hr 22 min 49 sec)
Heartbeat CPU 0 instructions: 1380000177 cycles: 17847068433 heartbeat IPC: 0.983 cumulative IPC: 0.07732 (Simulation time: 01 hr 23 min 40 sec)
Heartbeat CPU 0 instructions: 1390000181 cycles: 17855317796 heartbeat IPC: 1.212 cumulative IPC: 0.07785 (Simulation time: 01 hr 24 min 43 sec)
Heartbeat CPU 0 instructions: 1400000181 cycles: 17864856895 heartbeat IPC: 1.048 cumulative IPC: 0.07837 (Simulation time: 01 hr 25 min 39 sec)
Heartbeat CPU 0 instructions: 1410000183 cycles: 17880270452 heartbeat IPC: 0.6488 cumulative IPC: 0.07886 (Simulation time: 01 hr 26 min 53 sec)
Heartbeat CPU 0 instructions: 1420000187 cycles: 17889461702 heartbeat IPC: 1.088 cumulative IPC: 0.07938 (Simulation time: 01 hr 28 min 02 sec)
Heartbeat CPU 0 instructions: 1430000189 cycles: 17898034292 heartbeat IPC: 1.167 cumulative IPC: 0.0799 (Simulation time: 01 hr 29 min 11 sec)
Heartbeat CPU 0 instructions: 1440000189 cycles: 17925579920 heartbeat IPC: 0.363 cumulative IPC: 0.08033 (Simulation time: 01 hr 32 min 05 sec)
Heartbeat CPU 0 instructions: 1450000189 cycles: 17939665898 heartbeat IPC: 0.7099 cumulative IPC: 0.08083 (Simulation time: 01 hr 33 min 32 sec)
Heartbeat CPU 0 instructions: 1460000191 cycles: 17949322783 heartbeat IPC: 1.036 cumulative IPC: 0.08134 (Simulation time: 01 hr 34 min 26 sec)
Heartbeat CPU 0 instructions: 1470000194 cycles: 17958292928 heartbeat IPC: 1.115 cumulative IPC: 0.08186 (Simulation time: 01 hr 35 min 15 sec)
Heartbeat CPU 0 instructions: 1480000194 cycles: 17968207459 heartbeat IPC: 1.009 cumulative IPC: 0.08237 (Simulation time: 01 hr 36 min 08 sec)
Heartbeat CPU 0 instructions: 1490000196 cycles: 17995161506 heartbeat IPC: 0.371 cumulative IPC: 0.0828 (Simulation time: 01 hr 38 min 02 sec)
Heartbeat CPU 0 instructions: 1500000198 cycles: 18003457143 heartbeat IPC: 1.205 cumulative IPC: 0.08332 (Simulation time: 01 hr 39 min 00 sec)
Heartbeat CPU 0 instructions: 1510000201 cycles: 18012479600 heartbeat IPC: 1.108 cumulative IPC: 0.08383 (Simulation time: 01 hr 40 min 04 sec)
Heartbeat CPU 0 instructions: 1520000201 cycles: 18022723995 heartbeat IPC: 0.9761 cumulative IPC: 0.08434 (Simulation time: 01 hr 41 min 03 sec)
Heartbeat CPU 0 instructions: 1530000203 cycles: 18056515854 heartbeat IPC: 0.2959 cumulative IPC: 0.08473 (Simulation time: 01 hr 44 min 14 sec)
Heartbeat CPU 0 instructions: 1540000207 cycles: 18098343114 heartbeat IPC: 0.2391 cumulative IPC: 0.08509 (Simulation time: 01 hr 47 min 38 sec)
[ERROR_CYCLE] Error added at CPU cycle 18128822947, interval 39, pending count: 1
[DRAM_CYCLE_ERROR] Cycle-based error applied! address=0x6c823a3c8 additional_latency=2459910500 cycles
Simulation CPU 0 warning: IPC 0.032779 < 0.05
Heartbeat CPU 0 instructions: 1550000211 cycles: 18151011965 heartbeat IPC: 0.1899 cumulative IPC: 0.08539 (Simulation time: 01 hr 51 min 34 sec)
Heartbeat CPU 0 instructions: 1560000211 cycles: 18193605719 heartbeat IPC: 0.2348 cumulative IPC: 0.08574 (Simulation time: 01 hr 55 min 44 sec)
Heartbeat CPU 0 instructions: 1570000212 cycles: 18236936912 heartbeat IPC: 0.2308 cumulative IPC: 0.08609 (Simulation time: 01 hr 59 min 57 sec)
Heartbeat CPU 0 instructions: 1580000212 cycles: 18288420794 heartbeat IPC: 0.1942 cumulative IPC: 0.08639 (Simulation time: 02 hr 04 min 52 sec)
Heartbeat CPU 0 instructions: 1590000216 cycles: 18337695163 heartbeat IPC: 0.2029 cumulative IPC: 0.08671 (Simulation time: 02 hr 09 min 32 sec)
Heartbeat CPU 0 instructions: 1600000218 cycles: 18370899817 heartbeat IPC: 0.3012 cumulative IPC: 0.08709 (Simulation time: 02 hr 12 min 39 sec)
Heartbeat CPU 0 instructions: 1610000218 cycles: 18382507644 heartbeat IPC: 0.8615 cumulative IPC: 0.08758 (Simulation time: 02 hr 14 min 06 sec)
Heartbeat CPU 0 instructions: 1620000222 cycles: 18391795106 heartbeat IPC: 1.077 cumulative IPC: 0.08808 (Simulation time: 02 hr 15 min 03 sec)
Heartbeat CPU 0 instructions: 1630000223 cycles: 18409319438 heartbeat IPC: 0.5706 cumulative IPC: 0.08854 (Simulation time: 02 hr 16 min 30 sec)
Heartbeat CPU 0 instructions: 1640000224 cycles: 18419348751 heartbeat IPC: 0.9971 cumulative IPC: 0.08904 (Simulation time: 02 hr 17 min 45 sec)
Heartbeat CPU 0 instructions: 1650000228 cycles: 18429238097 heartbeat IPC: 1.011 cumulative IPC: 0.08953 (Simulation time: 02 hr 18 min 58 sec)
Heartbeat CPU 0 instructions: 1660000230 cycles: 18441424394 heartbeat IPC: 0.8206 cumulative IPC: 0.09001 (Simulation time: 02 hr 20 min 26 sec)
Heartbeat CPU 0 instructions: 1670000231 cycles: 18468558882 heartbeat IPC: 0.3685 cumulative IPC: 0.09042 (Simulation time: 02 hr 23 min 16 sec)
Heartbeat CPU 0 instructions: 1680000231 cycles: 18491399354 heartbeat IPC: 0.4378 cumulative IPC: 0.09085 (Simulation time: 02 hr 25 min 46 sec)
Heartbeat CPU 0 instructions: 1690000231 cycles: 18499832590 heartbeat IPC: 1.186 cumulative IPC: 0.09135 (Simulation time: 02 hr 26 min 51 sec)
Heartbeat CPU 0 instructions: 1700000232 cycles: 18512619036 heartbeat IPC: 0.7821 cumulative IPC: 0.09183 (Simulation time: 02 hr 28 min 20 sec)
Heartbeat CPU 0 instructions: 1710000233 cycles: 18524067744 heartbeat IPC: 0.8735 cumulative IPC: 0.09231 (Simulation time: 02 hr 29 min 43 sec)
Heartbeat CPU 0 instructions: 1720000233 cycles: 18534154449 heartbeat IPC: 0.9914 cumulative IPC: 0.0928 (Simulation time: 02 hr 30 min 53 sec)
Heartbeat CPU 0 instructions: 1730000235 cycles: 18542775759 heartbeat IPC: 1.16 cumulative IPC: 0.0933 (Simulation time: 02 hr 31 min 42 sec)
Heartbeat CPU 0 instructions: 1740000235 cycles: 18561822411 heartbeat IPC: 0.525 cumulative IPC: 0.09374 (Simulation time: 02 hr 33 min 32 sec)
Heartbeat CPU 0 instructions: 1750000236 cycles: 18570461430 heartbeat IPC: 1.158 cumulative IPC: 0.09424 (Simulation time: 02 hr 34 min 40 sec)
Heartbeat CPU 0 instructions: 1760000236 cycles: 18583718231 heartbeat IPC: 0.7543 cumulative IPC: 0.09471 (Simulation time: 02 hr 36 min 14 sec)
Heartbeat CPU 0 instructions: 1770000237 cycles: 18593576852 heartbeat IPC: 1.014 cumulative IPC: 0.09519 (Simulation time: 02 hr 37 min 29 sec)
[ERROR_CYCLE] Error added at CPU cycle 18593664560, interval 40, pending count: 1
[DRAM_CYCLE_ERROR] Cycle-based error applied! address=0x9da1f9fe0 additional_latency=2459910500 cycles
Heartbeat CPU 0 instructions: 1780000237 cycles: 18624092105 heartbeat IPC: 0.3277 cumulative IPC: 0.09558 (Simulation time: 02 hr 40 min 38 sec)
Heartbeat CPU 0 instructions: 1790000238 cycles: 18672012180 heartbeat IPC: 0.2087 cumulative IPC: 0.09587 (Simulation time: 02 hr 45 min 13 sec)
Heartbeat CPU 0 instructions: 1800000240 cycles: 18694180030 heartbeat IPC: 0.4511 cumulative IPC: 0.09629 (Simulation time: 02 hr 47 min 40 sec)
Heartbeat CPU 0 instructions: 1810000240 cycles: 18704047681 heartbeat IPC: 1.013 cumulative IPC: 0.09677 (Simulation time: 02 hr 48 min 39 sec)
Heartbeat CPU 0 instructions: 1820000242 cycles: 18724005926 heartbeat IPC: 0.501 cumulative IPC: 0.0972 (Simulation time: 02 hr 50 min 52 sec)
Heartbeat CPU 0 instructions: 1830000243 cycles: 18733725737 heartbeat IPC: 1.029 cumulative IPC: 0.09768 (Simulation time: 02 hr 52 min 01 sec)
Heartbeat CPU 0 instructions: 1840000243 cycles: 18741562989 heartbeat IPC: 1.276 cumulative IPC: 0.09818 (Simulation time: 02 hr 52 min 59 sec)
Heartbeat CPU 0 instructions: 1850000243 cycles: 18751472361 heartbeat IPC: 1.009 cumulative IPC: 0.09866 (Simulation time: 02 hr 54 min 05 sec)
Heartbeat CPU 0 instructions: 1860000245 cycles: 18766547387 heartbeat IPC: 0.6633 cumulative IPC: 0.09911 (Simulation time: 02 hr 55 min 21 sec)
Heartbeat CPU 0 instructions: 1870000249 cycles: 18782165961 heartbeat IPC: 0.6403 cumulative IPC: 0.09956 (Simulation time: 02 hr 56 min 53 sec)
Heartbeat CPU 0 instructions: 1880000253 cycles: 18790964076 heartbeat IPC: 1.137 cumulative IPC: 0.1 (Simulation time: 02 hr 57 min 57 sec)
Heartbeat CPU 0 instructions: 1890000255 cycles: 18807719381 heartbeat IPC: 0.5968 cumulative IPC: 0.1005 (Simulation time: 02 hr 59 min 26 sec)
Heartbeat CPU 0 instructions: 1900000258 cycles: 18816225124 heartbeat IPC: 1.176 cumulative IPC: 0.101 (Simulation time: 03 hr 00 min 13 sec)
Heartbeat CPU 0 instructions: 1910000258 cycles: 18827136093 heartbeat IPC: 0.9165 cumulative IPC: 0.1014 (Simulation time: 03 hr 01 min 26 sec)
Heartbeat CPU 0 instructions: 1920000259 cycles: 18836582880 heartbeat IPC: 1.059 cumulative IPC: 0.1019 (Simulation time: 03 hr 02 min 30 sec)
Heartbeat CPU 0 instructions: 1930000261 cycles: 18852493042 heartbeat IPC: 0.6285 cumulative IPC: 0.1024 (Simulation time: 03 hr 04 min 11 sec)
Heartbeat CPU 0 instructions: 1940000262 cycles: 18861307379 heartbeat IPC: 1.135 cumulative IPC: 0.1029 (Simulation time: 03 hr 05 min 20 sec)
Heartbeat CPU 0 instructions: 1950000265 cycles: 18873382068 heartbeat IPC: 0.8282 cumulative IPC: 0.1033 (Simulation time: 03 hr 06 min 46 sec)
Heartbeat CPU 0 instructions: 1960000268 cycles: 18883576369 heartbeat IPC: 0.9809 cumulative IPC: 0.1038 (Simulation time: 03 hr 08 min 00 sec)
Heartbeat CPU 0 instructions: 1970000270 cycles: 18909324227 heartbeat IPC: 0.3884 cumulative IPC: 0.1042 (Simulation time: 03 hr 10 min 39 sec)
Heartbeat CPU 0 instructions: 1980000271 cycles: 18956947574 heartbeat IPC: 0.21 cumulative IPC: 0.1044 (Simulation time: 03 hr 15 min 06 sec)
Heartbeat CPU 0 instructions: 1990000271 cycles: 19005092395 heartbeat IPC: 0.2077 cumulative IPC: 0.1047 (Simulation time: 03 hr 19 min 40 sec)

=== ERROR PAGE STATISTICS ===
Mode: CYCLE
Error Cycle Interval: 464841614 CPU cycles
Total Error Accesses: 40
==============================
Simulation finished CPU 0 instructions: 1999999938 cycles: 19049447211 cumulative IPC: 0.105 (Simulation time: 03 hr 22 min 50 sec)
Simulation complete CPU 0 instructions: 1999999938 cycles: 19049447211 cumulative IPC: 0.105 (Simulation time: 03 hr 22 min 50 sec)

ChampSim completed all CPUs

=== Simulation ===
CPU 0 runs test_traces/605.mcf_s-994B.champsimtrace.xz

Region of Interest Statistics

CPU 0 cumulative IPC: 0.105 instructions: 1999999938 cycles: 19049447211
CPU 0 Branch Prediction Accuracy: 92.62% MPKI: 18.99 Average ROB Occupancy at Mispredict: 32.67
Branch type MPKI
BRANCH_DIRECT_JUMP: 0.123
BRANCH_INDIRECT: 0
BRANCH_CONDITIONAL: 18.86
BRANCH_DIRECT_CALL: 6.5e-06
BRANCH_INDIRECT_CALL: 0.0004185
BRANCH_RETURN: 1e-05

cpu0->cpu0_STLB TOTAL        ACCESS:    6367227 HIT:    6361275 MISS:       5952 MSHR_MERGE:          0
cpu0->cpu0_STLB LOAD         ACCESS:    6367227 HIT:    6361275 MISS:       5952 MSHR_MERGE:          0
cpu0->cpu0_STLB RFO          ACCESS:          0 HIT:          0 MISS:          0 MSHR_MERGE:          0
cpu0->cpu0_STLB PREFETCH     ACCESS:          0 HIT:          0 MISS:          0 MSHR_MERGE:          0
cpu0->cpu0_STLB WRITE        ACCESS:          0 HIT:          0 MISS:          0 MSHR_MERGE:          0
cpu0->cpu0_STLB TRANSLATION  ACCESS:          0 HIT:          0 MISS:          0 MSHR_MERGE:          0
cpu0->cpu0_STLB PREFETCH REQUESTED:          0 ISSUED:          0 USEFUL:          0 USELESS:          0
cpu0->cpu0_STLB AVERAGE MISS LATENCY: 2.69e+06 cycles
cpu0->cpu0_L2C TOTAL        ACCESS:   81180912 HIT:   27540107 MISS:   53640805 MSHR_MERGE:          0
cpu0->cpu0_L2C LOAD         ACCESS:   75043352 HIT:   21467003 MISS:   53576349 MSHR_MERGE:          0
cpu0->cpu0_L2C RFO          ACCESS:     492569 HIT:     432399 MISS:      60170 MSHR_MERGE:          0
cpu0->cpu0_L2C PREFETCH     ACCESS:          0 HIT:          0 MISS:          0 MSHR_MERGE:          0
cpu0->cpu0_L2C WRITE        ACCESS:    5644991 HIT:    5640705 MISS:       4286 MSHR_MERGE:          0
cpu0->cpu0_L2C TRANSLATION  ACCESS:          0 HIT:          0 MISS:          0 MSHR_MERGE:          0
cpu0->cpu0_L2C PREFETCH REQUESTED:          0 ISSUED:          0 USEFUL:          0 USELESS:          0
cpu0->cpu0_L2C AVERAGE MISS LATENCY: 98.44 cycles
cpu0->cpu0_L1I TOTAL        ACCESS:    2879417 HIT:    2879326 MISS:         91 MSHR_MERGE:         25
cpu0->cpu0_L1I LOAD         ACCESS:    2879417 HIT:    2879326 MISS:         91 MSHR_MERGE:         25
cpu0->cpu0_L1I RFO          ACCESS:          0 HIT:          0 MISS:          0 MSHR_MERGE:          0
cpu0->cpu0_L1I PREFETCH     ACCESS:          0 HIT:          0 MISS:          0 MSHR_MERGE:          0
cpu0->cpu0_L1I WRITE        ACCESS:          0 HIT:          0 MISS:          0 MSHR_MERGE:          0
cpu0->cpu0_L1I TRANSLATION  ACCESS:          0 HIT:          0 MISS:          0 MSHR_MERGE:          0
cpu0->cpu0_L1I PREFETCH REQUESTED:          0 ISSUED:          0 USEFUL:          0 USELESS:          0
cpu0->cpu0_L1I AVERAGE MISS LATENCY: 103.9 cycles
cpu0->cpu0_L1D TOTAL        ACCESS:  810616244 HIT:  728261637 MISS:   82354607 MSHR_MERGE:    6817647
cpu0->cpu0_L1D LOAD         ACCESS:  610032601 HIT:  529054513 MISS:   80978088 MSHR_MERGE:    5934781
cpu0->cpu0_L1D RFO          ACCESS:          0 HIT:          0 MISS:          0 MSHR_MERGE:          0
cpu0->cpu0_L1D PREFETCH     ACCESS:          0 HIT:          0 MISS:          0 MSHR_MERGE:          0
cpu0->cpu0_L1D WRITE        ACCESS:  200583643 HIT:  199207124 MISS:    1376519 MSHR_MERGE:     882866
cpu0->cpu0_L1D TRANSLATION  ACCESS:          0 HIT:          0 MISS:          0 MSHR_MERGE:          0
cpu0->cpu0_L1D PREFETCH REQUESTED:          0 ISSUED:          0 USEFUL:          0 USELESS:          0
cpu0->cpu0_L1D AVERAGE MISS LATENCY: 78.75 cycles
cpu0->cpu0_ITLB TOTAL        ACCESS:    2728838 HIT:    2728837 MISS:          1 MSHR_MERGE:          0
cpu0->cpu0_ITLB LOAD         ACCESS:    2728838 HIT:    2728837 MISS:          1 MSHR_MERGE:          0
cpu0->cpu0_ITLB RFO          ACCESS:          0 HIT:          0 MISS:          0 MSHR_MERGE:          0
cpu0->cpu0_ITLB PREFETCH     ACCESS:          0 HIT:          0 MISS:          0 MSHR_MERGE:          0
cpu0->cpu0_ITLB WRITE        ACCESS:          0 HIT:          0 MISS:          0 MSHR_MERGE:          0
cpu0->cpu0_ITLB TRANSLATION  ACCESS:          0 HIT:          0 MISS:          0 MSHR_MERGE:          0
cpu0->cpu0_ITLB PREFETCH REQUESTED:          0 ISSUED:          0 USEFUL:          0 USELESS:          0
cpu0->cpu0_ITLB AVERAGE MISS LATENCY: 1.848e+07 cycles
cpu0->cpu0_DTLB TOTAL        ACCESS:  706560029 HIT:  699648386 MISS:    6911643 MSHR_MERGE:     544417
cpu0->cpu0_DTLB LOAD         ACCESS:  706560029 HIT:  699648386 MISS:    6911643 MSHR_MERGE:     544417
cpu0->cpu0_DTLB RFO          ACCESS:          0 HIT:          0 MISS:          0 MSHR_MERGE:          0
cpu0->cpu0_DTLB PREFETCH     ACCESS:          0 HIT:          0 MISS:          0 MSHR_MERGE:          0
cpu0->cpu0_DTLB WRITE        ACCESS:          0 HIT:          0 MISS:          0 MSHR_MERGE:          0
cpu0->cpu0_DTLB TRANSLATION  ACCESS:          0 HIT:          0 MISS:          0 MSHR_MERGE:          0
cpu0->cpu0_DTLB PREFETCH REQUESTED:          0 ISSUED:          0 USEFUL:          0 USELESS:          0
cpu0->cpu0_DTLB AVERAGE MISS LATENCY: 2516 cycles
cpu0->LLC TOTAL        ACCESS:   57571113 HIT:   16528557 MISS:   41042556 MSHR_MERGE:          0
cpu0->LLC LOAD         ACCESS:   53576349 HIT:   12553503 MISS:   41022846 MSHR_MERGE:          0
cpu0->LLC RFO          ACCESS:      60170 HIT:      41694 MISS:      18476 MSHR_MERGE:          0
cpu0->LLC PREFETCH     ACCESS:          0 HIT:          0 MISS:          0 MSHR_MERGE:          0
cpu0->LLC WRITE        ACCESS:    3934594 HIT:    3933360 MISS:       1234 MSHR_MERGE:          0
cpu0->LLC TRANSLATION  ACCESS:          0 HIT:          0 MISS:          0 MSHR_MERGE:          0
cpu0->LLC PREFETCH REQUESTED:          0 ISSUED:          0 USEFUL:          0 USELESS:          0
cpu0->LLC AVERAGE MISS LATENCY: 108.1 cycles

DRAM Statistics

Channel 0 RQ ROW_BUFFER_HIT:     274261
  ROW_BUFFER_MISS:   20251378
  AVG DBUS CONGESTED CYCLE: 9.313
Channel 0 WQ ROW_BUFFER_HIT:     330711
  ROW_BUFFER_MISS:    1236928
  FULL:          0
Channel 0 REFRESHES ISSUED:    1587352

Channel 1 RQ ROW_BUFFER_HIT:     274491
  ROW_BUFFER_MISS:   20253051
  AVG DBUS CONGESTED CYCLE: 9.311
Channel 1 WQ ROW_BUFFER_HIT:     330176
  ROW_BUFFER_MISS:    1237826
  FULL:          0
Channel 1 REFRESHES ISSUED:    1587352
