
*** ChampSim Multicore Out-of-Order Simulator ***
Warmup Instructions: 0
Simulation Instructions: 9223372036854775807
Number of CPUs: 1
Page size: 1048576

Off-chip DRAM Size: 64 GiB Channels: 2 Width: 32-bit Data Rate: 4807 MT/s
[ERROR_PAGE_MANAGER] Error latency: 2459910500 
[ERROR_PAGE_MANAGER] Random seed: 54321 (fixed for preload reproducibility)
[ERROR_PAGE_MANAGER] Cycle-based error modeling enabled
[ERROR_PAGE_MANAGER] Errors per interval: 1
[ERROR_PAGE_MANAGER] Error cycle interval: 464841614 cycles

=== ERROR PAGE STATISTICS ===
Mode: CYCLE
Error Cycle Interval: 464841614 CPU cycles
Total Error Accesses: 0
==============================
Warmup finished CPU 0 instructions: 0 cycles: 1 cumulative IPC: 0 (Simulation time: 00 hr 00 min 00 sec)
Warmup complete CPU 0 instructions: 0 cycles: 1 cumulative IPC: 0 (Simulation time: 00 hr 00 min 00 sec)
Simulation CPU 0 panic: IPC 0 < 0.01
Simulation CPU 0 panic: IPC 0 < 0.01
Simulation CPU 0 panic: IPC 1e-07 < 0.01
Simulation CPU 0 panic: IPC 4e-07 < 0.01
Simulation CPU 0 panic: IPC 8.5e-06 < 0.01
Simulation CPU 0 critical: IPC 0.011513 < 0.02
Simulation CPU 0 warning: IPC 0.026709 < 0.05
Simulation CPU 0 panic: IPC 0.0036166 < 0.01
Simulation CPU 0 panic: IPC 0.0037479 < 0.01
Simulation CPU 0 panic: IPC 0.0029552 < 0.01
Simulation CPU 0 panic: IPC 0.0082779 < 0.01
Simulation CPU 0 panic: IPC 0.0009996 < 0.01
Simulation CPU 0 panic: IPC 0.0022451 < 0.01
Simulation CPU 0 critical: IPC 0.012983 < 0.02
Simulation CPU 0 warning: IPC 0.025955 < 0.05
Simulation CPU 0 panic: IPC 0.0046206 < 0.01
Simulation CPU 0 panic: IPC 0.0031239 < 0.01
Simulation CPU 0 critical: IPC 0.012724 < 0.02
Simulation CPU 0 panic: IPC 0.0022451 < 0.01
Simulation CPU 0 critical: IPC 0.012859 < 0.02
Simulation CPU 0 warning: IPC 0.031074 < 0.05
Simulation CPU 0 panic: IPC 0.0023751 < 0.01
Simulation CPU 0 critical: IPC 0.013106 < 0.02
Simulation CPU 0 panic: IPC 0.0023699 < 0.01
Simulation CPU 0 critical: IPC 0.012484 < 0.02
Simulation CPU 0 warning: IPC 0.02583 < 0.05
Simulation CPU 0 panic: IPC 0.005619 < 0.01
Simulation CPU 0 panic: IPC 0.0017511 < 0.01
Simulation CPU 0 critical: IPC 0.013722 < 0.02
Simulation CPU 0 panic: IPC 0.0022451 < 0.01
Simulation CPU 0 critical: IPC 0.012359 < 0.02
Simulation CPU 0 warning: IPC 0.02583 < 0.05
Simulation CPU 0 panic: IPC 0.0061182 < 0.01
Simulation CPU 0 panic: IPC 0.0010023 < 0.01
Simulation CPU 0 critical: IPC 0.016475 < 0.02
Simulation CPU 0 critical: IPC 0.01211 < 0.02
Simulation CPU 0 warning: IPC 0.025705 < 0.05
Simulation CPU 0 panic: IPC 0.0064926 < 0.01
Simulation CPU 0 panic: IPC 0.0003783 < 0.01
Simulation CPU 0 critical: IPC 0.014596 < 0.02
Simulation CPU 0 panic: IPC 0.0024947 < 0.01
Simulation CPU 0 critical: IPC 0.01186 < 0.02
Simulation CPU 0 warning: IPC 0.025705 < 0.05
Simulation CPU 0 panic: IPC 0.0066021 < 0.01
Simulation CPU 0 panic: IPC 0.0003897 < 0.01
Simulation CPU 0 critical: IPC 0.014579 < 0.02
[ERROR_CYCLE] Error added at CPU cycle 464841614, interval 1, pending count: 1
[DRAM_CYCLE_ERROR] Cycle-based error applied! address=0x537c483a0 additional_latency=2459910500 cycles
Simulation CPU 0 panic: IPC 0.0025235 < 0.01
Simulation CPU 0 panic: IPC 0 < 0.01
Simulation CPU 0 critical: IPC 0.011611 < 0.02
Simulation CPU 0 warning: IPC 0.031952 < 0.05
Simulation CPU 0 panic: IPC 0.0011193 < 0.01
Simulation CPU 0 critical: IPC 0.014475 < 0.02
Simulation CPU 0 panic: IPC 0.0026195 < 0.01
Simulation CPU 0 critical: IPC 0.011361 < 0.02
Simulation CPU 0 warning: IPC 0.02558 < 0.05
Simulation CPU 0 panic: IPC 0.0061221 < 0.01
Simulation CPU 0 panic: IPC 0.0018681 < 0.01
Simulation CPU 0 critical: IPC 0.014109 < 0.02
Simulation CPU 0 panic: IPC 0.0026195 < 0.01
Simulation CPU 0 critical: IPC 0.011236 < 0.02
Simulation CPU 0 warning: IPC 0.025455 < 0.05
Simulation CPU 0 panic: IPC 0.0058725 < 0.01
Simulation CPU 0 panic: IPC 0.0024921 < 0.01
Simulation CPU 0 critical: IPC 0.01672 < 0.02
Simulation CPU 0 critical: IPC 0.010987 < 0.02
Simulation CPU 0 warning: IPC 0.025455 < 0.05
Simulation CPU 0 panic: IPC 0.0056229 < 0.01
Simulation CPU 0 panic: IPC 0.0030572 < 0.01
Simulation CPU 0 critical: IPC 0.013793 < 0.02
Simulation CPU 0 panic: IPC 0.0028691 < 0.01
Simulation CPU 0 critical: IPC 0.010612 < 0.02
Simulation CPU 0 panic: IPC 0.0094131 < 0.01
Simulation CPU 0 critical: IPC 0.015918 < 0.02
Simulation CPU 0 panic: IPC 0.0054981 < 0.01
Simulation CPU 0 panic: IPC 0.0038649 < 0.01
Simulation CPU 0 critical: IPC 0.013601 < 0.02
Simulation CPU 0 panic: IPC 0.0027443 < 0.01
Simulation CPU 0 critical: IPC 0.014413 < 0.02
Simulation CPU 0 warning: IPC 0.026537 < 0.05
Simulation CPU 0 panic: IPC 0.0044889 < 0.01
Simulation CPU 0 critical: IPC 0.013352 < 0.02
Simulation CPU 0 panic: IPC 0.0029939 < 0.01
Simulation CPU 0 critical: IPC 0.010238 < 0.02
Simulation CPU 0 warning: IPC 0.025206 < 0.05
Simulation CPU 0 panic: IPC 0.0049989 < 0.01
Simulation CPU 0 panic: IPC 0.0052377 < 0.01
Simulation CPU 0 critical: IPC 0.013102 < 0.02
Simulation CPU 0 panic: IPC 0.0028691 < 0.01
Simulation CPU 0 critical: IPC 0.010113 < 0.02
Simulation CPU 0 warning: IPC 0.025206 < 0.05
Simulation CPU 0 panic: IPC 0.0046328 < 0.01
Simulation CPU 0 panic: IPC 0.0058617 < 0.01
[ERROR_CYCLE] Error added at CPU cycle 929683228, interval 2, pending count: 1
Simulation CPU 0 critical: IPC 0.015971 < 0.02
[DRAM_CYCLE_ERROR] Cycle-based error applied! address=0x537c793e0 additional_latency=2459910500 cycles
Simulation CPU 0 panic: IPC 0 < 0.01
Simulation CPU 0 panic: IPC 0.0097386 < 0.01
Simulation CPU 0 warning: IPC 0.025081 < 0.05
Simulation CPU 0 panic: IPC 0.0046245 < 0.01
Simulation CPU 0 panic: IPC 0.0066105 < 0.01
Simulation CPU 0 critical: IPC 0.012603 < 0.02
Simulation CPU 0 panic: IPC 0.0031187 < 0.01
Simulation CPU 0 panic: IPC 0.009489 < 0.01
Heartbeat CPU 0 instructions: 10000001 cycles: 1014210237 heartbeat IPC: 0.00986 cumulative IPC: 0.00986 (Simulation time: 01 hr 47 min 06 sec)
Simulation CPU 0 panic: IPC 0.0066513 < 0.01
Simulation CPU 0 critical: IPC 0.018313 < 0.02
Simulation CPU 0 panic: IPC 0.0043749 < 0.01
Simulation CPU 0 panic: IPC 0.0072345 < 0.01
Simulation CPU 0 critical: IPC 0.012478 < 0.02
Simulation CPU 0 panic: IPC 0.0031187 < 0.01
Simulation CPU 0 warning: IPC 0.03432 < 0.05
Simulation CPU 0 panic: IPC 0.0040293 < 0.01
Simulation CPU 0 panic: IPC 0.0080793 < 0.01
Simulation CPU 0 critical: IPC 0.012103 < 0.02
Simulation CPU 0 panic: IPC 0.0032435 < 0.01
Simulation CPU 0 panic: IPC 0.0091146 < 0.01
Simulation CPU 0 warning: IPC 0.02484 < 0.05
Simulation CPU 0 panic: IPC 0.0037509 < 0.01
Simulation CPU 0 panic: IPC 0.0087321 < 0.01
Simulation CPU 0 critical: IPC 0.011979 < 0.02
Simulation CPU 0 panic: IPC 0.0033683 < 0.01
Simulation CPU 0 panic: IPC 0.0087402 < 0.01
Simulation CPU 0 warning: IPC 0.024831 < 0.05
Simulation CPU 0 panic: IPC 0.0036261 < 0.01
Simulation CPU 0 warning: IPC 0.021085 < 0.05
Simulation CPU 0 panic: IPC 0.0033683 < 0.01
Simulation CPU 0 panic: IPC 0.0086154 < 0.01
Simulation CPU 0 warning: IPC 0.024715 < 0.05
Simulation CPU 0 panic: IPC 0.0033765 < 0.01
Simulation CPU 0 critical: IPC 0.010105 < 0.02
Simulation CPU 0 critical: IPC 0.01148 < 0.02
Simulation CPU 0 panic: IPC 0.0034931 < 0.01
Simulation CPU 0 panic: IPC 0.0083658 < 0.01
Simulation CPU 0 panic: IPC 0.0038895 < 0.01
Simulation CPU 0 warning: IPC 0.020817 < 0.05
Simulation CPU 0 panic: IPC 0.0031269 < 0.01
Simulation CPU 0 critical: IPC 0.010854 < 0.02
Simulation CPU 0 critical: IPC 0.01123 < 0.02
Simulation CPU 0 critical: IPC 0.010719 < 0.02
Simulation CPU 0 warning: IPC 0.025481 < 0.05
Simulation CPU 0 panic: IPC 0.0028773 < 0.01
Simulation CPU 0 critical: IPC 0.011478 < 0.02
[ERROR_CYCLE] Error added at CPU cycle 1394524842, interval 3, pending count: 1
[DRAM_CYCLE_ERROR] Cycle-based error applied! address=0x69400150 additional_latency=2459910500 cycles
Simulation CPU 0 panic: IPC 0 < 0.01
Simulation CPU 0 critical: IPC 0.01098 < 0.02
Simulation CPU 0 panic: IPC 0.0036179 < 0.01
Simulation CPU 0 panic: IPC 0.0078666 < 0.01
Simulation CPU 0 warning: IPC 0.024582 < 0.05
Simulation CPU 0 panic: IPC 0.0027525 < 0.01
Simulation CPU 0 critical: IPC 0.012226 < 0.02
Simulation CPU 0 critical: IPC 0.010731 < 0.02
Simulation CPU 0 panic: IPC 0.0036179 < 0.01
Simulation CPU 0 panic: IPC 0.007617 < 0.01
Simulation CPU 0 warning: IPC 0.024465 < 0.05
Simulation CPU 0 panic: IPC 0.0025029 < 0.01
Simulation CPU 0 warning: IPC 0.023437 < 0.05
Simulation CPU 0 panic: IPC 0.0036371 < 0.01
Simulation CPU 0 panic: IPC 0.0074922 < 0.01
Simulation CPU 0 warning: IPC 0.024457 < 0.05
Simulation CPU 0 panic: IPC 0.0022533 < 0.01
Simulation CPU 0 critical: IPC 0.013599 < 0.02
Simulation CPU 0 critical: IPC 0.010231 < 0.02
Simulation CPU 0 panic: IPC 0.0037427 < 0.01
Simulation CPU 0 panic: IPC 0.0072426 < 0.01
Simulation CPU 0 warning: IPC 0.024341 < 0.05
Simulation CPU 0 panic: IPC 0.0020037 < 0.01
Simulation CPU 0 critical: IPC 0.014223 < 0.02
Simulation CPU 0 critical: IPC 0.010107 < 0.02
Simulation CPU 0 panic: IPC 0.0037427 < 0.01
Simulation CPU 0 warning: IPC 0.031325 < 0.05
Simulation CPU 0 panic: IPC 0.0018789 < 0.01
Simulation CPU 0 critical: IPC 0.014972 < 0.02
Simulation CPU 0 panic: IPC 0.0097323 < 0.01
Simulation CPU 0 panic: IPC 0.0038675 < 0.01
Simulation CPU 0 panic: IPC 0.0067434 < 0.01
Simulation CPU 0 warning: IPC 0.024216 < 0.05
Simulation CPU 0 panic: IPC 0.0015045 < 0.01
Simulation CPU 0 critical: IPC 0.015721 < 0.02
Simulation CPU 0 panic: IPC 0.0096075 < 0.01
Simulation CPU 0 panic: IPC 0.0039923 < 0.01
Simulation CPU 0 panic: IPC 0.0064938 < 0.01
Simulation CPU 0 warning: IPC 0.024207 < 0.05
Simulation CPU 0 panic: IPC 0.0012549 < 0.01
Simulation CPU 0 warning: IPC 0.025828 < 0.05
Simulation CPU 0 panic: IPC 0.0038675 < 0.01
Simulation CPU 0 panic: IPC 0.006369 < 0.01
Simulation CPU 0 warning: IPC 0.024091 < 0.05
Simulation CPU 0 panic: IPC 0.0010053 < 0.01
Simulation CPU 0 critical: IPC 0.017094 < 0.02
[ERROR_CYCLE] Error added at CPU cycle 1859366456, interval 4, pending count: 1
Simulation CPU 0 panic: IPC 0.0091083 < 0.01
[DRAM_CYCLE_ERROR] Cycle-based error applied! address=0x537cda410 additional_latency=2459910500 cycles
Simulation CPU 0 panic: IPC 0 < 0.01
Simulation CPU 0 panic: IPC 0.0041171 < 0.01
Simulation CPU 0 panic: IPC 0.0059946 < 0.01
Simulation CPU 0 warning: IPC 0.024083 < 0.05
Simulation CPU 0 panic: IPC 0.0008805 < 0.01
Simulation CPU 0 critical: IPC 0.012847 < 0.02
Simulation CPU 0 panic: IPC 0.0049957 < 0.01
Simulation CPU 0 panic: IPC 0.0088587 < 0.01
Simulation CPU 0 panic: IPC 0.0098621 < 0.01
Heartbeat CPU 0 instructions: 20000004 cycles: 1959211099 heartbeat IPC: 0.01058 cumulative IPC: 0.01021 (Simulation time: 03 hr 26 min 36 sec)
Simulation CPU 0 warning: IPC 0.023966 < 0.05
Simulation CPU 0 panic: IPC 0.0006309 < 0.01
Simulation CPU 0 critical: IPC 0.018467 < 0.02
Simulation CPU 0 panic: IPC 0.0086091 < 0.01
Simulation CPU 0 panic: IPC 0.0042419 < 0.01
Simulation CPU 0 panic: IPC 0.0056202 < 0.01
Simulation CPU 0 warning: IPC 0.023958 < 0.05
Simulation CPU 0 panic: IPC 0.0003813 < 0.01
Simulation CPU 0 critical: IPC 0.019215 < 0.02
Simulation CPU 0 panic: IPC 0.0083595 < 0.01
Simulation CPU 0 panic: IPC 0.0042419 < 0.01
Simulation CPU 0 panic: IPC 0.0053789 < 0.01
Simulation CPU 0 warning: IPC 0.023833 < 0.05
Simulation CPU 0 critical: IPC 0.011112 < 0.02
Simulation CPU 0 critical: IPC 0.017094 < 0.02
Simulation CPU 0 panic: IPC 0.0042419 < 0.01
Simulation CPU 0 panic: IPC 0.005121 < 0.01
Simulation CPU 0 warning: IPC 0.023833 < 0.05
Simulation CPU 0 warning: IPC 0.020595 < 0.05
Simulation CPU 0 panic: IPC 0.0078603 < 0.01
Simulation CPU 0 panic: IPC 0.0043667 < 0.01
Simulation CPU 0 panic: IPC 0.0048797 < 0.01
Simulation CPU 0 warning: IPC 0.023466 < 0.05
Simulation CPU 0 panic: IPC 0.0002427 < 0.01
Simulation CPU 0 critical: IPC 0.01133 < 0.02
Simulation CPU 0 panic: IPC 0.0096391 < 0.01
Simulation CPU 0 panic: IPC 0.0077355 < 0.01
Simulation CPU 0 panic: IPC 0.0044915 < 0.01
Simulation CPU 0 warning: IPC 0.027838 < 0.05
Simulation CPU 0 panic: IPC 0.0004923 < 0.01
Simulation CPU 0 warning: IPC 0.021469 < 0.05
Simulation CPU 0 panic: IPC 0.0073611 < 0.01
Simulation CPU 0 panic: IPC 0.0044998 < 0.01
Simulation CPU 0 panic: IPC 0.004497 < 0.01
Simulation CPU 0 warning: IPC 0.022842 < 0.05
Simulation CPU 0 panic: IPC 0.0007419 < 0.01
Simulation CPU 0 warning: IPC 0.021843 < 0.05
[ERROR_CYCLE] Error added at CPU cycle 2324208070, interval 5, pending count: 1
[DRAM_CYCLE_ERROR] Cycle-based error applied! address=0x14f50c450 additional_latency=2459910500 cycles
Simulation CPU 0 panic: IPC 0.0072363 < 0.01
Simulation CPU 0 panic: IPC 0 < 0.01
Simulation CPU 0 panic: IPC 0.0046163 < 0.01
Simulation CPU 0 panic: IPC 0.0041226 < 0.01
Simulation CPU 0 warning: IPC 0.022592 < 0.05
Simulation CPU 0 panic: IPC 0.0010011 < 0.01
Simulation CPU 0 warning: IPC 0.029444 < 0.05
Simulation CPU 0 panic: IPC 0.0044998 < 0.01
Simulation CPU 0 panic: IPC 0.0039978 < 0.01
Simulation CPU 0 warning: IPC 0.022218 < 0.05
Simulation CPU 0 panic: IPC 0.0012411 < 0.01
Simulation CPU 0 warning: IPC 0.022841 < 0.05
Simulation CPU 0 panic: IPC 0.0067371 < 0.01
Simulation CPU 0 panic: IPC 0.0047411 < 0.01
Simulation CPU 0 panic: IPC 0.0037482 < 0.01
Simulation CPU 0 warning: IPC 0.021968 < 0.05
Simulation CPU 0 panic: IPC 0.0014907 < 0.01
Simulation CPU 0 panic: IPC 0.0088181 < 0.01
Simulation CPU 0 critical: IPC 0.014523 < 0.02
Simulation CPU 0 panic: IPC 0.006371 < 0.01
Simulation CPU 0 panic: IPC 0.0083645 < 0.01
Simulation CPU 0 warning: IPC 0.021594 < 0.05
Simulation CPU 0 panic: IPC 0.0017403 < 0.01
Simulation CPU 0 warning: IPC 0.023715 < 0.05
Simulation CPU 0 panic: IPC 0.0063627 < 0.01
Simulation CPU 0 panic: IPC 0.0047411 < 0.01
Simulation CPU 0 panic: IPC 0.003249 < 0.01
Simulation CPU 0 warning: IPC 0.021469 < 0.05
Simulation CPU 0 panic: IPC 0.0018939 < 0.01
Simulation CPU 0 warning: IPC 0.024243 < 0.05
Simulation CPU 0 panic: IPC 0.005939 < 0.01
Simulation CPU 0 panic: IPC 0.0049907 < 0.01
Simulation CPU 0 panic: IPC 0.0029994 < 0.01
Simulation CPU 0 warning: IPC 0.021094 < 0.05
Simulation CPU 0 warning: IPC 0.025951 < 0.05
Simulation CPU 0 panic: IPC 0.0067408 < 0.01
Simulation CPU 0 panic: IPC 0.0048659 < 0.01
Simulation CPU 0 panic: IPC 0.0028746 < 0.01
Simulation CPU 0 warning: IPC 0.020845 < 0.05
Simulation CPU 0 panic: IPC 0.0023643 < 0.01
Simulation CPU 0 warning: IPC 0.024971 < 0.05
Simulation CPU 0 panic: IPC 0.0056139 < 0.01
Simulation CPU 0 panic: IPC 0.0051155 < 0.01
Simulation CPU 0 panic: IPC 0.002625 < 0.01
Simulation CPU 0 warning: IPC 0.02047 < 0.05
Simulation CPU 0 panic: IPC 0.0026139 < 0.01
[ERROR_CYCLE] Error added at CPU cycle 2789049684, interval 6, pending count: 1
Simulation CPU 0 warning: IPC 0.025587 < 0.05
[DRAM_CYCLE_ERROR] Cycle-based error applied! address=0xab2b00450 additional_latency=2459910500 cycles
Simulation CPU 0 panic: IPC 0 < 0.01
Simulation CPU 0 panic: IPC 0.0053643 < 0.01
Simulation CPU 0 panic: IPC 0.0073661 < 0.01
Simulation CPU 0 warning: IPC 0.020345 < 0.05
Simulation CPU 0 panic: IPC 0.0027867 < 0.01
Simulation CPU 0 warning: IPC 0.025922 < 0.05
Simulation CPU 0 panic: IPC 0.0052395 < 0.01
Simulation CPU 0 panic: IPC 0.0051155 < 0.01
Simulation CPU 0 panic: IPC 0.0021258 < 0.01
Simulation CPU 0 critical: IPC 0.019971 < 0.02
Simulation CPU 0 panic: IPC 0.0029883 < 0.01
Heartbeat CPU 0 instructions: 30000005 cycles: 2904087351 heartbeat IPC: 0.01058 cumulative IPC: 0.01033 (Simulation time: 05 hr 06 min 54 sec)
Simulation CPU 0 warning: IPC 0.026585 < 0.05
Simulation CPU 0 panic: IPC 0.0048651 < 0.01
Simulation CPU 0 panic: IPC 0.0052403 < 0.01
Simulation CPU 0 panic: IPC 0.0018762 < 0.01
Simulation CPU 0 critical: IPC 0.019635 < 0.02
Simulation CPU 0 panic: IPC 0.0033243 < 0.01
Simulation CPU 0 warning: IPC 0.031584 < 0.05
Simulation CPU 0 panic: IPC 0.0052499 < 0.01
Simulation CPU 0 panic: IPC 0.0017418 < 0.01
Simulation CPU 0 critical: IPC 0.019222 < 0.02
Simulation CPU 0 panic: IPC 0.0036123 < 0.01
Simulation CPU 0 warning: IPC 0.027459 < 0.05
Simulation CPU 0 panic: IPC 0.0043659 < 0.01
Simulation CPU 0 panic: IPC 0.0053651 < 0.01
Simulation CPU 0 panic: IPC 0.001377 < 0.01
Simulation CPU 0 critical: IPC 0.019097 < 0.02
Simulation CPU 0 panic: IPC 0.0038043 < 0.01
Simulation CPU 0 warning: IPC 0.027775 < 0.05
Simulation CPU 0 panic: IPC 0.0042411 < 0.01
Simulation CPU 0 panic: IPC 0.0054899 < 0.01
Simulation CPU 0 panic: IPC 0.0057885 < 0.01
Simulation CPU 0 critical: IPC 0.014062 < 0.02
Simulation CPU 0 panic: IPC 0.0039867 < 0.01
Simulation CPU 0 warning: IPC 0.028457 < 0.05
Simulation CPU 0 panic: IPC 0.0039915 < 0.01
Simulation CPU 0 panic: IPC 0.0053651 < 0.01
Simulation CPU 0 panic: IPC 0.0010026 < 0.01
Simulation CPU 0 critical: IPC 0.018474 < 0.02
Simulation CPU 0 panic: IPC 0.0042363 < 0.01
Simulation CPU 0 warning: IPC 0.028715 < 0.05
Simulation CPU 0 panic: IPC 0.0037419 < 0.01
Simulation CPU 0 panic: IPC 0.0056147 < 0.01
Simulation CPU 0 panic: IPC 0.000753 < 0.01
Simulation CPU 0 critical: IPC 0.018099 < 0.02
Simulation CPU 0 warning: IPC 0.033817 < 0.05
[ERROR_CYCLE] Error added at CPU cycle 3253891298, interval 7, pending count: 1
[DRAM_CYCLE_ERROR] Cycle-based error applied! address=0x14f56d540 additional_latency=2459910500 cycles
Simulation CPU 0 panic: IPC 0 < 0.01
Simulation CPU 0 panic: IPC 0.0034923 < 0.01
Simulation CPU 0 panic: IPC 0.0056147 < 0.01
Simulation CPU 0 panic: IPC 0.0003786 < 0.01
Simulation CPU 0 critical: IPC 0.017974 < 0.02
Simulation CPU 0 panic: IPC 0.0046971 < 0.01
Simulation CPU 0 warning: IPC 0.029627 < 0.05
Simulation CPU 0 panic: IPC 0.0032427 < 0.01
Simulation CPU 0 panic: IPC 0.0057395 < 0.01
Simulation CPU 0 panic: IPC 0.0002538 < 0.01
Simulation CPU 0 critical: IPC 0.0176 < 0.02
Simulation CPU 0 panic: IPC 0.0048603 < 0.01
Simulation CPU 0 warning: IPC 0.030329 < 0.05
Simulation CPU 0 panic: IPC 0.0029931 < 0.01
Simulation CPU 0 panic: IPC 0.007643 < 0.01
Simulation CPU 0 critical: IPC 0.015451 < 0.02
Simulation CPU 0 panic: IPC 0.0051099 < 0.01
Simulation CPU 0 warning: IPC 0.030587 < 0.05
Simulation CPU 0 panic: IPC 0.0028683 < 0.01
Simulation CPU 0 panic: IPC 0.0056189 < 0.01
Simulation CPU 0 panic: IPC 0.0001206 < 0.01
Simulation CPU 0 critical: IPC 0.016855 < 0.02
Simulation CPU 0 panic: IPC 0.0053595 < 0.01
Simulation CPU 0 warning: IPC 0.031203 < 0.05
Simulation CPU 0 panic: IPC 0.0024939 < 0.01
Simulation CPU 0 panic: IPC 0.0053693 < 0.01
Simulation CPU 0 panic: IPC 0.000495 < 0.01
Simulation CPU 0 critical: IPC 0.016356 < 0.02
Simulation CPU 0 critical: IPC 0.017658 < 0.02
Simulation CPU 0 warning: IPC 0.021781 < 0.05
Simulation CPU 0 panic: IPC 0.0052445 < 0.01
Simulation CPU 0 panic: IPC 0.0007446 < 0.01
Simulation CPU 0 critical: IPC 0.015607 < 0.02
Simulation CPU 0 panic: IPC 0.0058587 < 0.01
Simulation CPU 0 warning: IPC 0.032201 < 0.05
Simulation CPU 0 panic: IPC 0.0021195 < 0.01
Simulation CPU 0 panic: IPC 0.0049949 < 0.01
Simulation CPU 0 panic: IPC 0.0008694 < 0.01
Simulation CPU 0 critical: IPC 0.015233 < 0.02
Simulation CPU 0 panic: IPC 0.0061083 < 0.01
Simulation CPU 0 warning: IPC 0.032459 < 0.05
Simulation CPU 0 panic: IPC 0.0018699 < 0.01
Simulation CPU 0 panic: IPC 0.0041324 < 0.01
Simulation CPU 0 panic: IPC 0.0019815 < 0.01
Simulation CPU 0 critical: IPC 0.014609 < 0.02
Simulation CPU 0 panic: IPC 0.0063579 < 0.01
[ERROR_CYCLE] Error added at CPU cycle 3718732912, interval 8, pending count: 1
Simulation CPU 0 warning: IPC 0.033075 < 0.05
[DRAM_CYCLE_ERROR] Cycle-based error applied! address=0x14f59f580 additional_latency=2459910500 cycles
Simulation CPU 0 panic: IPC 0 < 0.01
Simulation CPU 0 panic: IPC 0.0016203 < 0.01
Simulation CPU 0 panic: IPC 0.0046205 < 0.01
Simulation CPU 0 panic: IPC 0.0013686 < 0.01
Simulation CPU 0 critical: IPC 0.014235 < 0.02
Simulation CPU 0 panic: IPC 0.006491 < 0.01
Simulation CPU 0 warning: IPC 0.033449 < 0.05
Simulation CPU 0 panic: IPC 0.0013707 < 0.01
Simulation CPU 0 panic: IPC 0.0046205 < 0.01
Simulation CPU 0 panic: IPC 0.0016182 < 0.01
Simulation CPU 0 critical: IPC 0.01361 < 0.02
Heartbeat CPU 0 instructions: 40000005 cycles: 3839713373 heartbeat IPC: 0.01069 cumulative IPC: 0.01042 (Simulation time: 06 hr 49 min 33 sec)
Simulation CPU 0 warning: IPC 0.040806 < 0.05
Simulation CPU 0 panic: IPC 0.0011211 < 0.01
Simulation CPU 0 panic: IPC 0.0043709 < 0.01
Simulation CPU 0 panic: IPC 0.0018678 < 0.01
Simulation CPU 0 critical: IPC 0.013111 < 0.02
Simulation CPU 0 panic: IPC 0.0068654 < 0.01
Simulation CPU 0 warning: IPC 0.034448 < 0.05
Simulation CPU 0 panic: IPC 0.0009963 < 0.01
Simulation CPU 0 panic: IPC 0.0042461 < 0.01
Simulation CPU 0 panic: IPC 0.0019926 < 0.01
Simulation CPU 0 critical: IPC 0.012612 < 0.02
Simulation CPU 0 panic: IPC 0.0072315 < 0.01
Simulation CPU 0 warning: IPC 0.034947 < 0.05
Simulation CPU 0 panic: IPC 0.0006219 < 0.01
Simulation CPU 0 panic: IPC 0.0063635 < 0.01
Simulation CPU 0 critical: IPC 0.012113 < 0.02
Simulation CPU 0 panic: IPC 0.0073646 < 0.01
Simulation CPU 0 warning: IPC 0.035321 < 0.05
Simulation CPU 0 panic: IPC 0.0004971 < 0.01
Simulation CPU 0 panic: IPC 0.0038717 < 0.01
Simulation CPU 0 panic: IPC 0.002511 < 0.01
Simulation CPU 0 critical: IPC 0.011595 < 0.02
Simulation CPU 0 panic: IPC 0.0076059 < 0.01
Simulation CPU 0 warning: IPC 0.035945 < 0.05
Simulation CPU 0 panic: IPC 0.0001227 < 0.01
Simulation CPU 0 panic: IPC 0.0037469 < 0.01
Simulation CPU 0 panic: IPC 0.0027414 < 0.01
Simulation CPU 0 critical: IPC 0.010998 < 0.02
Simulation CPU 0 warning: IPC 0.029532 < 0.05
Simulation CPU 0 critical: IPC 0.018263 < 0.02
Simulation CPU 0 panic: IPC 0.002991 < 0.01
Simulation CPU 0 critical: IPC 0.01049 < 0.02
Simulation CPU 0 panic: IPC 0.0081051 < 0.01
Simulation CPU 0 warning: IPC 0.036567 < 0.05
Simulation CPU 0 panic: IPC 0.0002517 < 0.01
[ERROR_CYCLE] Error added at CPU cycle 4183574526, interval 9, pending count: 1
[DRAM_CYCLE_ERROR] Cycle-based error applied! address=0xa95300750 additional_latency=2459910500 cycles
Simulation CPU 0 panic: IPC 0 < 0.01
Simulation CPU 0 panic: IPC 0.002996 < 0.01
Simulation CPU 0 panic: IPC 0.0032406 < 0.01
Simulation CPU 0 panic: IPC 0.0098748 < 0.01
Simulation CPU 0 panic: IPC 0.0084795 < 0.01
Simulation CPU 0 warning: IPC 0.036692 < 0.05
Simulation CPU 0 panic: IPC 0.0005013 < 0.01
Simulation CPU 0 panic: IPC 0.0027464 < 0.01
Simulation CPU 0 panic: IPC 0.0090424 < 0.01
Simulation CPU 0 critical: IPC 0.012419 < 0.02
Simulation CPU 0 critical: IPC 0.011586 < 0.02
Simulation CPU 0 warning: IPC 0.02548 < 0.05
Simulation CPU 0 panic: IPC 0.0007509 < 0.01
Simulation CPU 0 panic: IPC 0.0022472 < 0.01
Simulation CPU 0 panic: IPC 0.0037398 < 0.01
Simulation CPU 0 panic: IPC 0.0087516 < 0.01
Simulation CPU 0 panic: IPC 0.0088539 < 0.01
Simulation CPU 0 warning: IPC 0.037191 < 0.05
Simulation CPU 0 panic: IPC 0.0010005 < 0.01
Simulation CPU 0 panic: IPC 0.0019976 < 0.01
Simulation CPU 0 panic: IPC 0.0038646 < 0.01
Simulation CPU 0 panic: IPC 0.0083689 < 0.01
Simulation CPU 0 panic: IPC 0.0092567 < 0.01
Simulation CPU 0 warning: IPC 0.038538 < 0.05
Simulation CPU 0 panic: IPC 0.0013736 < 0.01
Simulation CPU 0 panic: IPC 0.004239 < 0.01
Simulation CPU 0 panic: IPC 0.0077532 < 0.01
Simulation CPU 0 panic: IPC 0.0093531 < 0.01
Simulation CPU 0 warning: IPC 0.037691 < 0.05
Simulation CPU 0 panic: IPC 0.0013749 < 0.01
Simulation CPU 0 panic: IPC 0.001124 < 0.01
Simulation CPU 0 panic: IPC 0.0043638 < 0.01
Simulation CPU 0 panic: IPC 0.0073705 < 0.01
Simulation CPU 0 panic: IPC 0.0094779 < 0.01
Simulation CPU 0 warning: IPC 0.03794 < 0.05
Simulation CPU 0 panic: IPC 0.0016821 < 0.01
Simulation CPU 0 panic: IPC 0.000692 < 0.01
Simulation CPU 0 critical: IPC 0.011368 < 0.02
Simulation CPU 0 panic: IPC 0.0097275 < 0.01
Simulation CPU 0 panic: IPC 0.0091991 < 0.01
Simulation CPU 0 warning: IPC 0.028991 < 0.05
Simulation CPU 0 panic: IPC 0.0018741 < 0.01
Simulation CPU 0 panic: IPC 0.0003752 < 0.01
Simulation CPU 0 panic: IPC 0.004863 < 0.01
Simulation CPU 0 panic: IPC 0.0062473 < 0.01
Simulation CPU 0 panic: IPC 0.0099771 < 0.01
[ERROR_CYCLE] Error added at CPU cycle 4648416140, interval 10, pending count: 1
[DRAM_CYCLE_ERROR] Cycle-based error applied! address=0x331501590 additional_latency=2459910500 cycles
Simulation CPU 0 warning: IPC 0.038439 < 0.05
Simulation CPU 0 panic: IPC 0 < 0.01
Simulation CPU 0 panic: IPC 0.0018824 < 0.01
Simulation CPU 0 panic: IPC 0.0051134 < 0.01
Simulation CPU 0 panic: IPC 0.0057481 < 0.01
Simulation CPU 0 critical: IPC 0.010227 < 0.02
Simulation CPU 0 warning: IPC 0.040439 < 0.05
Simulation CPU 0 panic: IPC 0.0004984 < 0.01
Simulation CPU 0 panic: IPC 0.0048638 < 0.01
Simulation CPU 0 panic: IPC 0.0052489 < 0.01
Simulation CPU 0 critical: IPC 0.010351 < 0.02
Simulation CPU 0 warning: IPC 0.038822 < 0.05
Simulation CPU 0 panic: IPC 0.0017501 < 0.01
Simulation CPU 0 panic: IPC 0.000748 < 0.01
Simulation CPU 0 panic: IPC 0.004739 < 0.01
Heartbeat CPU 0 instructions: 50000005 cycles: 4793819132 heartbeat IPC: 0.01048 cumulative IPC: 0.01043 (Simulation time: 08 hr 31 min 09 sec)
Simulation CPU 0 panic: IPC 0.0046729 < 0.01
Simulation CPU 0 critical: IPC 0.010678 < 0.02
Simulation CPU 0 warning: IPC 0.039063 < 0.05
Simulation CPU 0 panic: IPC 0.0016253 < 0.01
Simulation CPU 0 panic: IPC 0.0012472 < 0.01
Simulation CPU 0 panic: IPC 0.0086151 < 0.01
Simulation CPU 0 critical: IPC 0.010975 < 0.02
Simulation CPU 0 panic: IPC 0.0066869 < 0.01
Simulation CPU 0 warning: IPC 0.032509 < 0.05
Simulation CPU 0 panic: IPC 0.0013757 < 0.01
Simulation CPU 0 panic: IPC 0.0016216 < 0.01
Simulation CPU 0 panic: IPC 0.0044894 < 0.01
Simulation CPU 0 panic: IPC 0.0035017 < 0.01
Simulation CPU 0 critical: IPC 0.011225 < 0.02
Simulation CPU 0 warning: IPC 0.039563 < 0.05
Simulation CPU 0 panic: IPC 0.0011261 < 0.01
Simulation CPU 0 panic: IPC 0.0021208 < 0.01
Simulation CPU 0 panic: IPC 0.004115 < 0.01
Simulation CPU 0 panic: IPC 0.0031273 < 0.01
Simulation CPU 0 critical: IPC 0.019814 < 0.02
Simulation CPU 0 warning: IPC 0.032357 < 0.05
Simulation CPU 0 panic: IPC 0.0023704 < 0.01
Simulation CPU 0 panic: IPC 0.004115 < 0.01
Simulation CPU 0 panic: IPC 0.0025033 < 0.01
Simulation CPU 0 critical: IPC 0.0116 < 0.02
Simulation CPU 0 warning: IPC 0.040062 < 0.05
Simulation CPU 0 panic: IPC 0.0008765 < 0.01
Simulation CPU 0 panic: IPC 0.0028696 < 0.01
Simulation CPU 0 panic: IPC 0.0037694 < 0.01
Simulation CPU 0 panic: IPC 0.0021001 < 0.01
Simulation CPU 0 critical: IPC 0.011849 < 0.02
Simulation CPU 0 warning: IPC 0.04007 < 0.05
[ERROR_CYCLE] Error added at CPU cycle 5113257755, interval 11, pending count: 1
[DRAM_CYCLE_ERROR] Cycle-based error applied! address=0x3315335a0 additional_latency=2459910500 cycles
Simulation CPU 0 panic: IPC 0.0007517 < 0.01
Simulation CPU 0 panic: IPC 0 < 0.01
Simulation CPU 0 panic: IPC 0.003244 < 0.01
Simulation CPU 0 panic: IPC 0.0052455 < 0.01
Simulation CPU 0 critical: IPC 0.012099 < 0.02
Simulation CPU 0 warning: IPC 0.040436 < 0.05
Simulation CPU 0 panic: IPC 0.0005021 < 0.01
Simulation CPU 0 panic: IPC 0.0037432 < 0.01
Simulation CPU 0 panic: IPC 0.003491 < 0.01
Simulation CPU 0 panic: IPC 0.0010057 < 0.01
Simulation CPU 0 critical: IPC 0.012223 < 0.02
Simulation CPU 0 warning: IPC 0.040694 < 0.05
Simulation CPU 0 panic: IPC 0.0003773 < 0.01
Simulation CPU 0 panic: IPC 0.0039928 < 0.01
Simulation CPU 0 panic: IPC 0.0033662 < 0.01
Simulation CPU 0 panic: IPC 0.0005065 < 0.01
Simulation CPU 0 critical: IPC 0.012473 < 0.02
Simulation CPU 0 warning: IPC 0.041188 < 0.05
Simulation CPU 0 panic: IPC 0.004492 < 0.01
Simulation CPU 0 panic: IPC 0.0031166 < 0.01
Simulation CPU 0 critical: IPC 0.01273 < 0.02
Simulation CPU 0 warning: IPC 0.041068 < 0.05
Simulation CPU 0 panic: IPC 0.0048693 < 0.01
Simulation CPU 0 panic: IPC 0.0024999 < 0.01
Simulation CPU 0 panic: IPC 0.0006167 < 0.01
Simulation CPU 0 critical: IPC 0.012356 < 0.02
Simulation CPU 0 warning: IPC 0.041188 < 0.05
Simulation CPU 0 panic: IPC 0.0001219 < 0.01
Simulation CPU 0 panic: IPC 0.0052437 < 0.01
Simulation CPU 0 panic: IPC 0.0016263 < 0.01
Simulation CPU 0 panic: IPC 0.0011159 < 0.01
Simulation CPU 0 warning: IPC 0.021703 < 0.05
Simulation CPU 0 warning: IPC 0.031724 < 0.05
Simulation CPU 0 panic: IPC 0.0002467 < 0.01
Simulation CPU 0 panic: IPC 0.0053685 < 0.01
Simulation CPU 0 panic: IPC 0.0010023 < 0.01
Simulation CPU 0 panic: IPC 0.0017399 < 0.01
Simulation CPU 0 critical: IPC 0.011732 < 0.02
Simulation CPU 0 warning: IPC 0.041437 < 0.05
Simulation CPU 0 panic: IPC 0.0004963 < 0.01
Simulation CPU 0 panic: IPC 0.0056181 < 0.01
Simulation CPU 0 panic: IPC 0.0002535 < 0.01
Simulation CPU 0 panic: IPC 0.0021143 < 0.01
Simulation CPU 0 critical: IPC 0.011607 < 0.02
Simulation CPU 0 warning: IPC 0.041321 < 0.05
Simulation CPU 0 panic: IPC 0.0006211 < 0.01
[ERROR_CYCLE] Error added at CPU cycle 5578099368, interval 12, pending count: 1
[DRAM_CYCLE_ERROR] Cycle-based error applied! address=0x42f700270 additional_latency=2459910500 cycles
Simulation CPU 0 panic: IPC 0.0054972 < 0.01
Simulation CPU 0 panic: IPC 0.0003705 < 0.01
Simulation CPU 0 panic: IPC 0.0023678 < 0.01
Simulation CPU 0 critical: IPC 0.011232 < 0.02
Simulation CPU 0 warning: IPC 0.041437 < 0.05
Simulation CPU 0 panic: IPC 0.0008707 < 0.01
Simulation CPU 0 panic: IPC 0.004998 < 0.01
Simulation CPU 0 panic: IPC 0.0011193 < 0.01
Simulation CPU 0 panic: IPC 0.0021182 < 0.01
Simulation CPU 0 critical: IPC 0.010858 < 0.02
Simulation CPU 0 warning: IPC 0.041571 < 0.05
Simulation CPU 0 panic: IPC 0.0009955 < 0.01
Simulation CPU 0 panic: IPC 0.0044988 < 0.01
Simulation CPU 0 panic: IPC 0.0017433 < 0.01
Simulation CPU 0 panic: IPC 0.0019934 < 0.01
Heartbeat CPU 0 instructions: 60000005 cycles: 5729488867 heartbeat IPC: 0.01069 cumulative IPC: 0.01047 (Simulation time: 10 hr 12 min 33 sec)
Simulation CPU 0 warning: IPC 0.049443 < 0.05
Simulation CPU 0 panic: IPC 0.0028527 < 0.01
Simulation CPU 0 panic: IPC 0.0011203 < 0.01
Simulation CPU 0 panic: IPC 0.0041244 < 0.01
Simulation CPU 0 panic: IPC 0.0024921 < 0.01
Simulation CPU 0 panic: IPC 0.0017438 < 0.01
Simulation CPU 0 critical: IPC 0.010359 < 0.02
Simulation CPU 0 warning: IPC 0.041571 < 0.05
Simulation CPU 0 panic: IPC 0.0013699 < 0.01
Simulation CPU 0 panic: IPC 0.0036252 < 0.01
Simulation CPU 0 panic: IPC 0.0031161 < 0.01
Simulation CPU 0 panic: IPC 0.001619 < 0.01
Simulation CPU 0 critical: IPC 0.010109 < 0.02
Simulation CPU 0 warning: IPC 0.041687 < 0.05
Simulation CPU 0 panic: IPC 0.0047455 < 0.01
Simulation CPU 0 panic: IPC 0.0038649 < 0.01
Simulation CPU 0 panic: IPC 0.0013694 < 0.01
Simulation CPU 0 panic: IPC 0.0097348 < 0.01
Simulation CPU 0 warning: IPC 0.04182 < 0.05
Simulation CPU 0 panic: IPC 0.0016195 < 0.01
Simulation CPU 0 panic: IPC 0.0027516 < 0.01
Simulation CPU 0 panic: IPC 0.0044889 < 0.01
Simulation CPU 0 panic: IPC 0.0013694 < 0.01
Simulation CPU 0 panic: IPC 0.0093604 < 0.01
Simulation CPU 0 warning: IPC 0.041937 < 0.05
Simulation CPU 0 panic: IPC 0.0018691 < 0.01
Simulation CPU 0 panic: IPC 0.0022524 < 0.01
Simulation CPU 0 panic: IPC 0.0052377 < 0.01
Simulation CPU 0 critical: IPC 0.010231 < 0.02
Simulation CPU 0 warning: IPC 0.03633 < 0.05
Simulation CPU 0 panic: IPC 0.0054993 < 0.01
Simulation CPU 0 panic: IPC 0.0019843 < 0.01
[ERROR_CYCLE] Error added at CPU cycle 6042940983, interval 13, pending count: 1
[DRAM_CYCLE_ERROR] Cycle-based error applied! address=0x8ed200248 additional_latency=2459910500 cycles
Simulation CPU 0 panic: IPC 0 < 0.01
Simulation CPU 0 panic: IPC 0.0017532 < 0.01
Simulation CPU 0 panic: IPC 0.0059865 < 0.01
Simulation CPU 0 panic: IPC 0.000995 < 0.01
Simulation CPU 0 panic: IPC 0.0088612 < 0.01
Simulation CPU 0 warning: IPC 0.041937 < 0.05
Simulation CPU 0 panic: IPC 0.0022435 < 0.01
Simulation CPU 0 panic: IPC 0.001254 < 0.01
Simulation CPU 0 panic: IPC 0.0067353 < 0.01
Simulation CPU 0 panic: IPC 0.000659 < 0.01
Simulation CPU 0 panic: IPC 0.0085732 < 0.01
Simulation CPU 0 warning: IPC 0.04207 < 0.05
Simulation CPU 0 panic: IPC 0.0031231 < 0.01
Simulation CPU 0 panic: IPC 0.0073593 < 0.01
Simulation CPU 0 panic: IPC 0.0006206 < 0.01
Simulation CPU 0 panic: IPC 0.0082372 < 0.01
Simulation CPU 0 warning: IPC 0.042186 < 0.05
Simulation CPU 0 panic: IPC 0.0024931 < 0.01
Simulation CPU 0 panic: IPC 0.0003804 < 0.01
Simulation CPU 0 panic: IPC 0.0081081 < 0.01
Simulation CPU 0 panic: IPC 0.000371 < 0.01
Simulation CPU 0 panic: IPC 0.0079876 < 0.01
Simulation CPU 0 warning: IPC 0.042098 < 0.05
Simulation CPU 0 panic: IPC 0.0025951 < 0.01
Simulation CPU 0 panic: IPC 0.0001188 < 0.01
Simulation CPU 0 panic: IPC 0.0086133 < 0.01
Simulation CPU 0 panic: IPC 0.0079842 < 0.01
Simulation CPU 0 warning: IPC 0.042186 < 0.05
Simulation CPU 0 panic: IPC 0.0023743 < 0.01
Simulation CPU 0 panic: IPC 0.0004932 < 0.01
Simulation CPU 0 panic: IPC 0.0089843 < 0.01
Simulation CPU 0 panic: IPC 0.0073636 < 0.01
Simulation CPU 0 warning: IPC 0.042319 < 0.05
Simulation CPU 0 panic: IPC 0.0019999 < 0.01
Simulation CPU 0 panic: IPC 0.0009924 < 0.01
Simulation CPU 0 panic: IPC 0.0091091 < 0.01
Simulation CPU 0 panic: IPC 0.0069892 < 0.01
Simulation CPU 0 warning: IPC 0.042436 < 0.05
Simulation CPU 0 panic: IPC 0.0017503 < 0.01
Simulation CPU 0 panic: IPC 0.0013764 < 0.01
Simulation CPU 0 panic: IPC 0.0094101 < 0.01
Simulation CPU 0 panic: IPC 0.0064373 < 0.01
Simulation CPU 0 warning: IPC 0.042484 < 0.05
Simulation CPU 0 panic: IPC 0.0014527 < 0.01
Simulation CPU 0 panic: IPC 0.001866 < 0.01
Simulation CPU 0 panic: IPC 0.0092339 < 0.01
[ERROR_CYCLE] Error added at CPU cycle 6507782596, interval 14, pending count: 1
Simulation CPU 0 panic: IPC 0.0003778 < 0.01
[DRAM_CYCLE_ERROR] Cycle-based error applied! address=0x3315c9700 additional_latency=2459910500 cycles
Simulation CPU 0 panic: IPC 0 < 0.01
Simulation CPU 0 panic: IPC 0.0061122 < 0.01
Simulation CPU 0 warning: IPC 0.042436 < 0.05
Simulation CPU 0 panic: IPC 0.0012511 < 0.01
Simulation CPU 0 panic: IPC 0.0023652 < 0.01
Simulation CPU 0 panic: IPC 0.0091091 < 0.01
Simulation CPU 0 panic: IPC 0.0006274 < 0.01
Simulation CPU 0 panic: IPC 0.0054965 < 0.01
Simulation CPU 0 warning: IPC 0.042685 < 0.05
Simulation CPU 0 panic: IPC 0.0036163 < 0.01
Simulation CPU 0 panic: IPC 0.0093587 < 0.01
Simulation CPU 0 panic: IPC 0.0007522 < 0.01
Simulation CPU 0 panic: IPC 0.0051138 < 0.01
Simulation CPU 0 panic: IPC 0.0094553 < 0.01
Heartbeat CPU 0 instructions: 70000005 cycles: 6655919893 heartbeat IPC: 0.01079 cumulative IPC: 0.01052 (Simulation time: 11 hr 54 min 08 sec)
Simulation CPU 0 warning: IPC 0.03323 < 0.05
Simulation CPU 0 panic: IPC 0.0005023 < 0.01
Simulation CPU 0 panic: IPC 0.0033636 < 0.01
Simulation CPU 0 panic: IPC 0.009367 < 0.01
Simulation CPU 0 panic: IPC 0.0007522 < 0.01
Simulation CPU 0 panic: IPC 0.0047394 < 0.01
Simulation CPU 0 warning: IPC 0.042753 < 0.05
Simulation CPU 0 panic: IPC 0.0001855 < 0.01
Simulation CPU 0 panic: IPC 0.0046212 < 0.01
Simulation CPU 0 panic: IPC 0.0097269 < 0.01
Simulation CPU 0 panic: IPC 0.0042402 < 0.01
Simulation CPU 0 warning: IPC 0.042685 < 0.05
Simulation CPU 0 panic: IPC 0.0042403 < 0.01
Simulation CPU 0 panic: IPC 0.0094918 < 0.01
Simulation CPU 0 panic: IPC 0.0011266 < 0.01
Simulation CPU 0 panic: IPC 0.003741 < 0.01
Simulation CPU 0 warning: IPC 0.042564 < 0.05
Simulation CPU 0 panic: IPC 0.0003713 < 0.01
Simulation CPU 0 panic: IPC 0.0043651 < 0.01
Simulation CPU 0 panic: IPC 0.0094835 < 0.01
Simulation CPU 0 panic: IPC 0.001501 < 0.01
Simulation CPU 0 panic: IPC 0.0032418 < 0.01
Simulation CPU 0 warning: IPC 0.042314 < 0.05
Simulation CPU 0 panic: IPC 0.0051108 < 0.01
Simulation CPU 0 panic: IPC 0.0096166 < 0.01
Simulation CPU 0 panic: IPC 0.001501 < 0.01
Simulation CPU 0 panic: IPC 0.0028674 < 0.01
Simulation CPU 0 panic: IPC 0.0070679 < 0.01
Simulation CPU 0 warning: IPC 0.034997 < 0.05
Simulation CPU 0 panic: IPC 0.0009569 < 0.01
Simulation CPU 0 panic: IPC 0.0046531 < 0.01
Simulation CPU 0 panic: IPC 0.0097331 < 0.01
[ERROR_CYCLE] Error added at CPU cycle 6972624211, interval 15, pending count: 1
[DRAM_CYCLE_ERROR] Cycle-based error applied! address=0x94a5006c0 additional_latency=2459910500 cycles
Simulation CPU 0 panic: IPC 0 < 0.01
Simulation CPU 0 panic: IPC 0.0017506 < 0.01
Simulation CPU 0 panic: IPC 0.0023682 < 0.01
Simulation CPU 0 warning: IPC 0.041815 < 0.05
Simulation CPU 0 panic: IPC 0.0011201 < 0.01
Simulation CPU 0 panic: IPC 0.0048726 < 0.01
Simulation CPU 0 critical: IPC 0.011609 < 0.02
Simulation CPU 0 panic: IPC 0.001869 < 0.01
Simulation CPU 0 warning: IPC 0.04169 < 0.05
Simulation CPU 0 panic: IPC 0.0014945 < 0.01
Simulation CPU 0 panic: IPC 0.0049891 < 0.01
Simulation CPU 0 panic: IPC 0.0098579 < 0.01
Simulation CPU 0 panic: IPC 0.002125 < 0.01
Simulation CPU 0 panic: IPC 0.0013698 < 0.01
Simulation CPU 0 warning: IPC 0.04144 < 0.05
Simulation CPU 0 panic: IPC 0.0017441 < 0.01
Simulation CPU 0 panic: IPC 0.0051222 < 0.01
Simulation CPU 0 panic: IPC 0.0099059 < 0.01
Simulation CPU 0 panic: IPC 0.0022018 < 0.01
Simulation CPU 0 panic: IPC 0.0009954 < 0.01
Simulation CPU 0 warning: IPC 0.041191 < 0.05
Simulation CPU 0 panic: IPC 0.0073572 < 0.01
Simulation CPU 0 panic: IPC 0.0099827 < 0.01
Simulation CPU 0 panic: IPC 0.0024994 < 0.01
Simulation CPU 0 panic: IPC 0.0004962 < 0.01
Simulation CPU 0 panic: IPC 0.0045557 < 0.01
Simulation CPU 0 warning: IPC 0.036261 < 0.05
Simulation CPU 0 panic: IPC 0.0023764 < 0.01
Simulation CPU 0 panic: IPC 0.0054883 < 0.01
Simulation CPU 0 critical: IPC 0.010108 < 0.02
Simulation CPU 0 panic: IPC 0.0024964 < 0.01
Simulation CPU 0 warning: IPC 0.040692 < 0.05
Simulation CPU 0 panic: IPC 0.0027425 < 0.01
Simulation CPU 0 panic: IPC 0.0057379 < 0.01
Simulation CPU 0 panic: IPC 0.0099827 < 0.01
Simulation CPU 0 panic: IPC 0.0028738 < 0.01
Simulation CPU 0 warning: IPC 0.039823 < 0.05
Simulation CPU 0 panic: IPC 0.0031169 < 0.01
Simulation CPU 0 panic: IPC 0.0057379 < 0.01
Simulation CPU 0 critical: IPC 0.010232 < 0.02
Simulation CPU 0 panic: IPC 0.0019972 < 0.01
Simulation CPU 0 panic: IPC 0.0008766 < 0.01
Simulation CPU 0 warning: IPC 0.039316 < 0.05
Simulation CPU 0 panic: IPC 0.0033665 < 0.01
Simulation CPU 0 panic: IPC 0.0059875 < 0.01
Simulation CPU 0 critical: IPC 0.010232 < 0.02
[ERROR_CYCLE] Error added at CPU cycle 7437465824, interval 16, pending count: 1
Simulation CPU 0 panic: IPC 0.0017476 < 0.01
[DRAM_CYCLE_ERROR] Cycle-based error applied! address=0xa6d6006e8 additional_latency=2459910500 cycles
Simulation CPU 0 panic: IPC 0 < 0.01
Simulation CPU 0 panic: IPC 0.0013758 < 0.01
Simulation CPU 0 warning: IPC 0.038451 < 0.05
Simulation CPU 0 panic: IPC 0.0097476 < 0.01
Simulation CPU 0 critical: IPC 0.010338 < 0.02
Simulation CPU 0 panic: IPC 0.0013732 < 0.01
Simulation CPU 0 panic: IPC 0.001875 < 0.01
Simulation CPU 0 warning: IPC 0.037943 < 0.05
Simulation CPU 0 panic: IPC 0.0038657 < 0.01
Simulation CPU 0 panic: IPC 0.0063619 < 0.01
Simulation CPU 0 critical: IPC 0.010357 < 0.02
Simulation CPU 0 panic: IPC 0.0011236 < 0.01
Simulation CPU 0 panic: IPC 0.0023742 < 0.01
Heartbeat CPU 0 instructions: 80000008 cycles: 7573227535 heartbeat IPC: 0.0109 cumulative IPC: 0.01056 (Simulation time: 13 hr 35 min 15 sec)
Simulation CPU 0 warning: IPC 0.037078 < 0.05
Simulation CPU 0 panic: IPC 0.0042401 < 0.01
Simulation CPU 0 panic: IPC 0.0064867 < 0.01
Simulation CPU 0 critical: IPC 0.010357 < 0.02
Simulation CPU 0 panic: IPC 0.0036226 < 0.01
Simulation CPU 0 warning: IPC 0.03657 < 0.05
Simulation CPU 0 panic: IPC 0.0044897 < 0.01
Simulation CPU 0 panic: IPC 0.0066115 < 0.01
Simulation CPU 0 critical: IPC 0.010482 < 0.02
Simulation CPU 0 panic: IPC 0.0006244 < 0.01
Simulation CPU 0 panic: IPC 0.0032478 < 0.01
Simulation CPU 0 warning: IPC 0.035705 < 0.05
Simulation CPU 0 panic: IPC 0.0047393 < 0.01
Simulation CPU 0 panic: IPC 0.0068611 < 0.01
Simulation CPU 0 critical: IPC 0.010607 < 0.02
Simulation CPU 0 panic: IPC 0.0001252 < 0.01
Simulation CPU 0 panic: IPC 0.003747 < 0.01
Simulation CPU 0 warning: IPC 0.035197 < 0.05
Simulation CPU 0 panic: IPC 0.0049889 < 0.01
Simulation CPU 0 critical: IPC 0.017593 < 0.02
Simulation CPU 0 panic: IPC 0.0042466 < 0.01
Simulation CPU 0 warning: IPC 0.034332 < 0.05
Simulation CPU 0 panic: IPC 0.0005204 < 0.01
Simulation CPU 0 panic: IPC 0.0048429 < 0.01
Simulation CPU 0 panic: IPC 0.0071107 < 0.01
Simulation CPU 0 critical: IPC 0.010358 < 0.02
Simulation CPU 0 panic: IPC 0.000374 < 0.01
Simulation CPU 0 panic: IPC 0.0042466 < 0.01
Simulation CPU 0 warning: IPC 0.0337 < 0.05
Simulation CPU 0 panic: IPC 0.0057377 < 0.01
Simulation CPU 0 panic: IPC 0.0073603 < 0.01
Simulation CPU 0 critical: IPC 0.010108 < 0.02
Simulation CPU 0 panic: IPC 0.0004988 < 0.01
[ERROR_CYCLE] Error added at CPU cycle 7902307439, interval 17, pending count: 1
[DRAM_CYCLE_ERROR] Cycle-based error applied! address=0x25465e7c0 additional_latency=2459910500 cycles
Simulation CPU 0 panic: IPC 0.004621 < 0.01
Simulation CPU 0 warning: IPC 0.032835 < 0.05
Simulation CPU 0 panic: IPC 0.0059873 < 0.01
Simulation CPU 0 panic: IPC 0.0074851 < 0.01
Simulation CPU 0 panic: IPC 0.0098583 < 0.01
Simulation CPU 0 panic: IPC 0.000998 < 0.01
Simulation CPU 0 panic: IPC 0.004621 < 0.01
Simulation CPU 0 warning: IPC 0.032327 < 0.05
Simulation CPU 0 panic: IPC 0.0062369 < 0.01
Simulation CPU 0 panic: IPC 0.0077347 < 0.01
Simulation CPU 0 panic: IPC 0.0096087 < 0.01
Simulation CPU 0 panic: IPC 0.0012476 < 0.01
Simulation CPU 0 panic: IPC 0.0048706 < 0.01
Simulation CPU 0 warning: IPC 0.031462 < 0.05
Simulation CPU 0 panic: IPC 0.0066113 < 0.01
Simulation CPU 0 critical: IPC 0.017219 < 0.02
Simulation CPU 0 panic: IPC 0.0014972 < 0.01
Simulation CPU 0 panic: IPC 0.0049954 < 0.01
Simulation CPU 0 warning: IPC 0.030211 < 0.05
Simulation CPU 0 panic: IPC 0.0007438 < 0.01
Simulation CPU 0 panic: IPC 0.0068609 < 0.01
Simulation CPU 0 panic: IPC 0.0079843 < 0.01
Simulation CPU 0 panic: IPC 0.0092343 < 0.01
Simulation CPU 0 panic: IPC 0.0017468 < 0.01
Simulation CPU 0 panic: IPC 0.005245 < 0.01
Simulation CPU 0 warning: IPC 0.030089 < 0.05
Simulation CPU 0 panic: IPC 0.0071105 < 0.01
Simulation CPU 0 panic: IPC 0.0082339 < 0.01
Simulation CPU 0 panic: IPC 0.0088599 < 0.01
Simulation CPU 0 panic: IPC 0.007491 < 0.01
Simulation CPU 0 warning: IPC 0.029582 < 0.05
Simulation CPU 0 panic: IPC 0.0073601 < 0.01
Simulation CPU 0 panic: IPC 0.0083587 < 0.01
Simulation CPU 0 panic: IPC 0.0087351 < 0.01
Simulation CPU 0 panic: IPC 0.0023708 < 0.01
Simulation CPU 0 panic: IPC 0.0056194 < 0.01
Simulation CPU 0 warning: IPC 0.028716 < 0.05
Simulation CPU 0 panic: IPC 0.0077345 < 0.01
Simulation CPU 0 panic: IPC 0.0084835 < 0.01
Simulation CPU 0 panic: IPC 0.0084855 < 0.01
Simulation CPU 0 panic: IPC 0.0027452 < 0.01
Simulation CPU 0 panic: IPC 0.0056194 < 0.01
Simulation CPU 0 warning: IPC 0.028209 < 0.05
Simulation CPU 0 panic: IPC 0.0079841 < 0.01
Simulation CPU 0 critical: IPC 0.016969 < 0.02
Simulation CPU 0 panic: IPC 0.00287 < 0.01
[ERROR_CYCLE] Error added at CPU cycle 8367149052, interval 18, pending count: 1
[DRAM_CYCLE_ERROR] Cycle-based error applied! address=0xd6ea00130 additional_latency=2459910500 cycles
Simulation CPU 0 panic: IPC 0 < 0.01
Simulation CPU 0 panic: IPC 0.0059266 < 0.01
Simulation CPU 0 warning: IPC 0.025412 < 0.05
Simulation CPU 0 panic: IPC 0.0019984 < 0.01
Simulation CPU 0 panic: IPC 0.0082337 < 0.01
Simulation CPU 0 panic: IPC 0.0088579 < 0.01
Simulation CPU 0 panic: IPC 0.0079863 < 0.01
Simulation CPU 0 panic: IPC 0.0033692 < 0.01
Simulation CPU 0 panic: IPC 0.0059938 < 0.01
Simulation CPU 0 warning: IPC 0.026778 < 0.05
Simulation CPU 0 panic: IPC 0.0085409 < 0.01
Simulation CPU 0 panic: IPC 0.0091075 < 0.01
Simulation CPU 0 panic: IPC 0.0077367 < 0.01
Simulation CPU 0 panic: IPC 0.0097374 < 0.01
Simulation CPU 0 warning: IPC 0.025971 < 0.05
Simulation CPU 0 panic: IPC 0.0089825 < 0.01
Simulation CPU 0 panic: IPC 0.0091363 < 0.01
Heartbeat CPU 0 instructions: 90000009 cycles: 8536786878 heartbeat IPC: 0.01038 cumulative IPC: 0.01054 (Simulation time: 15 hr 16 min 36 sec)
Simulation CPU 0 panic: IPC 0.0075831 < 0.01
Simulation CPU 0 panic: IPC 0.0038684 < 0.01
Simulation CPU 0 panic: IPC 0.0063682 < 0.01
Simulation CPU 0 warning: IPC 0.025338 < 0.05
Simulation CPU 0 panic: IPC 0.0092321 < 0.01
Simulation CPU 0 panic: IPC 0.0093571 < 0.01
Simulation CPU 0 panic: IPC 0.0073623 < 0.01
Simulation CPU 0 panic: IPC 0.004118 < 0.01
Simulation CPU 0 panic: IPC 0.006493 < 0.01
Simulation CPU 0 warning: IPC 0.024598 < 0.05
Simulation CPU 0 critical: IPC 0.019088 < 0.02
Simulation CPU 0 panic: IPC 0.0069879 < 0.01
Simulation CPU 0 panic: IPC 0.0044924 < 0.01
Simulation CPU 0 panic: IPC 0.0067426 < 0.01
Simulation CPU 0 warning: IPC 0.023966 < 0.05
Simulation CPU 0 panic: IPC 0.0097313 < 0.01
Simulation CPU 0 panic: IPC 0.0097315 < 0.01
Simulation CPU 0 panic: IPC 0.0068631 < 0.01
Simulation CPU 0 panic: IPC 0.004742 < 0.01
Simulation CPU 0 panic: IPC 0.0067509 < 0.01
Simulation CPU 0 warning: IPC 0.023342 < 0.05
Simulation CPU 0 critical: IPC 0.010106 < 0.02
Simulation CPU 0 panic: IPC 0.0098563 < 0.01
Simulation CPU 0 panic: IPC 0.0066135 < 0.01
Simulation CPU 0 critical: IPC 0.012109 < 0.02
Simulation CPU 0 warning: IPC 0.022593 < 0.05
Simulation CPU 0 critical: IPC 0.010355 < 0.02
Simulation CPU 0 critical: IPC 0.010106 < 0.02
Simulation CPU 0 panic: IPC 0.0063639 < 0.01
Simulation CPU 0 panic: IPC 0.0052412 < 0.01
[ERROR_CYCLE] Error added at CPU cycle 8831990667, interval 19, pending count: 1
[DRAM_CYCLE_ERROR] Cycle-based error applied! address=0x45ea00218 additional_latency=2459910500 cycles
Simulation CPU 0 panic: IPC 0 < 0.01
Simulation CPU 0 panic: IPC 0.0071253 < 0.01
Simulation CPU 0 warning: IPC 0.021969 < 0.05
Simulation CPU 0 critical: IPC 0.010605 < 0.02
Simulation CPU 0 critical: IPC 0.010231 < 0.02
Simulation CPU 0 panic: IPC 0.0061143 < 0.01
Simulation CPU 0 panic: IPC 0.0057404 < 0.01
Simulation CPU 0 panic: IPC 0.0073666 < 0.01
Simulation CPU 0 warning: IPC 0.02122 < 0.05
Simulation CPU 0 critical: IPC 0.017287 < 0.02
Simulation CPU 0 panic: IPC 0.0099129 < 0.01
Simulation CPU 0 panic: IPC 0.0058735 < 0.01
Simulation CPU 0 panic: IPC 0.0074914 < 0.01
Simulation CPU 0 warning: IPC 0.020596 < 0.05
Simulation CPU 0 critical: IPC 0.011229 < 0.02
Simulation CPU 0 critical: IPC 0.01048 < 0.02
Simulation CPU 0 panic: IPC 0.0057399 < 0.01
Simulation CPU 0 panic: IPC 0.0062396 < 0.01
Simulation CPU 0 panic: IPC 0.0010845 < 0.01
Simulation CPU 0 panic: IPC 0.0066565 < 0.01
Simulation CPU 0 critical: IPC 0.019847 < 0.02
Simulation CPU 0 critical: IPC 0.011479 < 0.02
Simulation CPU 0 critical: IPC 0.01073 < 0.02
Simulation CPU 0 panic: IPC 0.0054903 < 0.01
Simulation CPU 0 critical: IPC 0.014238 < 0.02
Simulation CPU 0 critical: IPC 0.019098 < 0.02
Simulation CPU 0 critical: IPC 0.011853 < 0.02
Simulation CPU 0 critical: IPC 0.010979 < 0.02
Simulation CPU 0 panic: IPC 0.0051159 < 0.01
Simulation CPU 0 panic: IPC 0.0068636 < 0.01
Simulation CPU 0 panic: IPC 0.0081154 < 0.01
Simulation CPU 0 critical: IPC 0.01835 < 0.02
Simulation CPU 0 critical: IPC 0.012103 < 0.02
Simulation CPU 0 critical: IPC 0.011104 < 0.02
Simulation CPU 0 panic: IPC 0.0048746 < 0.01
Simulation CPU 0 panic: IPC 0.007238 < 0.01
Simulation CPU 0 panic: IPC 0.0081154 < 0.01
Simulation CPU 0 critical: IPC 0.017726 < 0.02
Simulation CPU 0 warning: IPC 0.023706 < 0.05
Simulation CPU 0 panic: IPC 0.0047415 < 0.01
Simulation CPU 0 panic: IPC 0.00743 < 0.01
Simulation CPU 0 panic: IPC 0.0084226 < 0.01
Simulation CPU 0 critical: IPC 0.016977 < 0.02
Simulation CPU 0 critical: IPC 0.012726 < 0.02
Simulation CPU 0 critical: IPC 0.011354 < 0.02
Simulation CPU 0 panic: IPC 0.0045002 < 0.01
[ERROR_CYCLE] Error added at CPU cycle 9296832280, interval 20, pending count: 1
[DRAM_CYCLE_ERROR] Cycle-based error applied! address=0x2546f0920 additional_latency=2459910500 cycles
Simulation CPU 0 panic: IPC 0.0049367 < 0.01
Simulation CPU 0 panic: IPC 0 < 0.01
Simulation CPU 0 panic: IPC 0.0028005 < 0.01
Simulation CPU 0 panic: IPC 0.0084898 < 0.01
Simulation CPU 0 critical: IPC 0.016353 < 0.02
Simulation CPU 0 critical: IPC 0.012976 < 0.02
Simulation CPU 0 critical: IPC 0.011603 < 0.02
Simulation CPU 0 critical: IPC 0.012354 < 0.02
Simulation CPU 0 panic: IPC 0.0087394 < 0.01
Simulation CPU 0 critical: IPC 0.015604 < 0.02
Simulation CPU 0 critical: IPC 0.013226 < 0.02
Simulation CPU 0 critical: IPC 0.011737 < 0.02
Simulation CPU 0 panic: IPC 0.0039927 < 0.01
Simulation CPU 0 panic: IPC 0.0083612 < 0.01
Simulation CPU 0 panic: IPC 0.0088642 < 0.01
Simulation CPU 0 critical: IPC 0.01498 < 0.02
Simulation CPU 0 critical: IPC 0.0136 < 0.02
Simulation CPU 0 critical: IPC 0.011853 < 0.02
Simulation CPU 0 panic: IPC 0.0038679 < 0.01
Simulation CPU 0 panic: IPC 0.0086108 < 0.01
Heartbeat CPU 0 instructions: 100000013 cycles: 9491022135 heartbeat IPC: 0.01048 cumulative IPC: 0.01054 (Simulation time: 16 hr 55 min 39 sec)
Simulation CPU 0 panic: IPC 0.0091138 < 0.01
Simulation CPU 0 warning: IPC 0.028081 < 0.05
Simulation CPU 0 critical: IPC 0.011986 < 0.02
Simulation CPU 0 panic: IPC 0.0036183 < 0.01
Simulation CPU 0 panic: IPC 0.0089852 < 0.01
Simulation CPU 0 panic: IPC 0.0091138 < 0.01
Simulation CPU 0 critical: IPC 0.013607 < 0.02
Simulation CPU 0 critical: IPC 0.014099 < 0.02
Simulation CPU 0 critical: IPC 0.012266 < 0.02
Simulation CPU 0 panic: IPC 0.0033303 < 0.01
Simulation CPU 0 panic: IPC 0.0025493 < 0.01
Simulation CPU 0 panic: IPC 0.0066855 < 0.01
Simulation CPU 0 panic: IPC 0.0094882 < 0.01
Simulation CPU 0 critical: IPC 0.012858 < 0.02
Simulation CPU 0 critical: IPC 0.014349 < 0.02
Simulation CPU 0 critical: IPC 0.01548 < 0.02
Simulation CPU 0 panic: IPC 0.0096092 < 0.01
Simulation CPU 0 panic: IPC 0.0094882 < 0.01
Simulation CPU 0 critical: IPC 0.012234 < 0.02
Simulation CPU 0 critical: IPC 0.014723 < 0.02
Simulation CPU 0 critical: IPC 0.012602 < 0.02
Simulation CPU 0 panic: IPC 0.0028695 < 0.01
Simulation CPU 0 panic: IPC 0.009734 < 0.01
Simulation CPU 0 panic: IPC 0.0098626 < 0.01
Simulation CPU 0 critical: IPC 0.011361 < 0.02
Simulation CPU 0 critical: IPC 0.015098 < 0.02
Simulation CPU 0 critical: IPC 0.01261 < 0.02
[ERROR_CYCLE] Error added at CPU cycle 9761673895, interval 21, pending count: 1
[DRAM_CYCLE_ERROR] Cycle-based error applied! address=0xf0ae00140 additional_latency=2459910500 cycles
Simulation CPU 0 panic: IPC 0 < 0.01
Simulation CPU 0 panic: IPC 0.0027447 < 0.01
Simulation CPU 0 critical: IPC 0.010108 < 0.02
Simulation CPU 0 warning: IPC 0.020599 < 0.05
Simulation CPU 0 critical: IPC 0.015347 < 0.02
Simulation CPU 0 critical: IPC 0.012976 < 0.02
Simulation CPU 0 panic: IPC 0.0023703 < 0.01
Simulation CPU 0 critical: IPC 0.010483 < 0.02
Simulation CPU 0 critical: IPC 0.010112 < 0.02
Simulation CPU 0 panic: IPC 0.0099879 < 0.01
Simulation CPU 0 critical: IPC 0.015605 < 0.02
Simulation CPU 0 critical: IPC 0.013101 < 0.02
Simulation CPU 0 panic: IPC 0.0021207 < 0.01
Simulation CPU 0 critical: IPC 0.010732 < 0.02
Simulation CPU 0 critical: IPC 0.010237 < 0.02
Simulation CPU 0 panic: IPC 0.0093639 < 0.01
Simulation CPU 0 critical: IPC 0.015971 < 0.02
Simulation CPU 0 critical: IPC 0.013226 < 0.02
Simulation CPU 0 critical: IPC 0.012978 < 0.02
Simulation CPU 0 critical: IPC 0.010487 < 0.02
Simulation CPU 0 panic: IPC 0.0086151 < 0.01
Simulation CPU 0 critical: IPC 0.016229 < 0.02
Simulation CPU 0 critical: IPC 0.013351 < 0.02
Simulation CPU 0 panic: IPC 0.0017463 < 0.01
Simulation CPU 0 critical: IPC 0.011232 < 0.02
Simulation CPU 0 critical: IPC 0.010611 < 0.02
Simulation CPU 0 panic: IPC 0.0079911 < 0.01
Simulation CPU 0 critical: IPC 0.01647 < 0.02
Simulation CPU 0 critical: IPC 0.0136 < 0.02
Simulation CPU 0 panic: IPC 0.0015063 < 0.01
Simulation CPU 0 critical: IPC 0.011596 < 0.02
Simulation CPU 0 critical: IPC 0.010861 < 0.02
Simulation CPU 0 warning: IPC 0.023971 < 0.05
Simulation CPU 0 critical: IPC 0.013725 < 0.02
Simulation CPU 0 panic: IPC 0.0012471 < 0.01
Simulation CPU 0 critical: IPC 0.01198 < 0.02
Simulation CPU 0 critical: IPC 0.010861 < 0.02
Simulation CPU 0 panic: IPC 0.0066183 < 0.01
Simulation CPU 0 critical: IPC 0.017094 < 0.02
Simulation CPU 0 critical: IPC 0.013975 < 0.02
Simulation CPU 0 panic: IPC 0.0009975 < 0.01
Simulation CPU 0 critical: IPC 0.012105 < 0.02
Simulation CPU 0 critical: IPC 0.011235 < 0.02
Simulation CPU 0 panic: IPC 0.0058695 < 0.01
Simulation CPU 0 panic: IPC 0.0077492 < 0.01
Simulation CPU 0 panic: IPC 0.0096032 < 0.01
[ERROR_CYCLE] Error added at CPU cycle 10226515508, interval 22, pending count: 1
[DRAM_CYCLE_ERROR] Cycle-based error applied! address=0x3dc600228 additional_latency=2459910500 cycles
Simulation CPU 0 critical: IPC 0.013975 < 0.02
Simulation CPU 0 panic: IPC 0.0008727 < 0.01
Simulation CPU 0 critical: IPC 0.01248 < 0.02
Simulation CPU 0 critical: IPC 0.011235 < 0.02
Simulation CPU 0 panic: IPC 0.0052455 < 0.01
Simulation CPU 0 critical: IPC 0.017594 < 0.02
Simulation CPU 0 critical: IPC 0.014349 < 0.02
Simulation CPU 0 panic: IPC 0.0005271 < 0.01
Simulation CPU 0 critical: IPC 0.012777 < 0.02
Simulation CPU 0 critical: IPC 0.011466 < 0.02
Simulation CPU 0 panic: IPC 0.0045159 < 0.01
Simulation CPU 0 critical: IPC 0.0179 < 0.02
Simulation CPU 0 critical: IPC 0.014349 < 0.02
Simulation CPU 0 panic: IPC 0.0003735 < 0.01
Simulation CPU 0 critical: IPC 0.013104 < 0.02
Simulation CPU 0 critical: IPC 0.015358 < 0.02
Simulation CPU 0 critical: IPC 0.018343 < 0.02
Simulation CPU 0 critical: IPC 0.014599 < 0.02
Simulation CPU 0 panic: IPC 0.0001239 < 0.01
Simulation CPU 0 critical: IPC 0.013353 < 0.02
Simulation CPU 0 critical: IPC 0.011735 < 0.02
Heartbeat CPU 0 instructions: 110000017 cycles: 10435880798 heartbeat IPC: 0.01058 cumulative IPC: 0.01054 (Simulation time: 18 hr 34 min 55 sec)
Simulation CPU 0 panic: IPC 0.0031239 < 0.01
Simulation CPU 0 critical: IPC 0.0186 < 0.02
Simulation CPU 0 critical: IPC 0.014598 < 0.02
Simulation CPU 0 panic: IPC 0.0001257 < 0.01
Simulation CPU 0 critical: IPC 0.013477 < 0.02
Simulation CPU 0 critical: IPC 0.011984 < 0.02
Simulation CPU 0 panic: IPC 0.0023751 < 0.01
Simulation CPU 0 panic: IPC 0.0066098 < 0.01
Simulation CPU 0 warning: IPC 0.022673 < 0.05
Simulation CPU 0 panic: IPC 0.0045321 < 0.01
Simulation CPU 0 critical: IPC 0.013602 < 0.02
Simulation CPU 0 critical: IPC 0.012109 < 0.02
Simulation CPU 0 panic: IPC 0.0017511 < 0.01
Simulation CPU 0 critical: IPC 0.0191 < 0.02
Simulation CPU 0 critical: IPC 0.014473 < 0.02
Simulation CPU 0 panic: IPC 0.0006249 < 0.01
Simulation CPU 0 critical: IPC 0.013727 < 0.02
Simulation CPU 0 critical: IPC 0.012234 < 0.02
Simulation CPU 0 panic: IPC 0.0010023 < 0.01
Simulation CPU 0 critical: IPC 0.019466 < 0.02
Simulation CPU 0 critical: IPC 0.014473 < 0.02
Simulation CPU 0 panic: IPC 0.0007977 < 0.01
Simulation CPU 0 critical: IPC 0.013679 < 0.02
Simulation CPU 0 critical: IPC 0.012745 < 0.02
Simulation CPU 0 critical: IPC 0.01984 < 0.02
Simulation CPU 0 critical: IPC 0.014348 < 0.02
[ERROR_CYCLE] Error added at CPU cycle 10691357123, interval 23, pending count: 1
[DRAM_CYCLE_ERROR] Cycle-based error applied! address=0xc791828f0 additional_latency=2459910500 cycles
Simulation CPU 0 panic: IPC 0 < 0.01
Simulation CPU 0 panic: IPC 0.0009993 < 0.01
Simulation CPU 0 critical: IPC 0.013851 < 0.02
Simulation CPU 0 critical: IPC 0.012238 < 0.02
Simulation CPU 0 panic: IPC 0.0003705 < 0.01
Simulation CPU 0 critical: IPC 0.019594 < 0.02
Simulation CPU 0 critical: IPC 0.014415 < 0.02
Simulation CPU 0 panic: IPC 0.0013065 < 0.01
Simulation CPU 0 critical: IPC 0.013727 < 0.02
Simulation CPU 0 critical: IPC 0.011747 < 0.02
Simulation CPU 0 panic: IPC 0.0009945 < 0.01
Simulation CPU 0 panic: IPC 0.008733 < 0.01
Simulation CPU 0 warning: IPC 0.024835 < 0.05
Simulation CPU 0 panic: IPC 0.0014985 < 0.01
Simulation CPU 0 critical: IPC 0.013976 < 0.02
Simulation CPU 0 critical: IPC 0.011239 < 0.02
Simulation CPU 0 panic: IPC 0.0017433 < 0.01
Simulation CPU 0 critical: IPC 0.018846 < 0.02
Simulation CPU 0 critical: IPC 0.014223 < 0.02
Simulation CPU 0 panic: IPC 0.0017481 < 0.01
Simulation CPU 0 critical: IPC 0.013976 < 0.02
Simulation CPU 0 critical: IPC 0.010624 < 0.02
Simulation CPU 0 panic: IPC 0.0023673 < 0.01
Simulation CPU 0 critical: IPC 0.018596 < 0.02
Simulation CPU 0 critical: IPC 0.014099 < 0.02
Simulation CPU 0 panic: IPC 0.0019977 < 0.01
Simulation CPU 0 warning: IPC 0.024092 < 0.05
Simulation CPU 0 panic: IPC 0.0032409 < 0.01
Simulation CPU 0 critical: IPC 0.017972 < 0.02
Simulation CPU 0 critical: IPC 0.014185 < 0.02
Simulation CPU 0 panic: IPC 0.0021609 < 0.01
Simulation CPU 0 critical: IPC 0.014101 < 0.02
Simulation CPU 0 panic: IPC 0.0095004 < 0.01
Simulation CPU 0 panic: IPC 0.0038649 < 0.01
Simulation CPU 0 critical: IPC 0.017722 < 0.02
Simulation CPU 0 critical: IPC 0.013974 < 0.02
Simulation CPU 0 panic: IPC 0.0024969 < 0.01
Simulation CPU 0 critical: IPC 0.014101 < 0.02
Simulation CPU 0 panic: IPC 0.0091177 < 0.01
Simulation CPU 0 panic: IPC 0.0046137 < 0.01
Simulation CPU 0 warning: IPC 0.031197 < 0.05
Simulation CPU 0 panic: IPC 0.0026217 < 0.01
Simulation CPU 0 critical: IPC 0.014226 < 0.02
Simulation CPU 0 panic: IPC 0.008502 < 0.01
Simulation CPU 0 panic: IPC 0.0052377 < 0.01
Simulation CPU 0 critical: IPC 0.016974 < 0.02
[ERROR_CYCLE] Error added at CPU cycle 11156198736, interval 24, pending count: 1
Simulation CPU 0 critical: IPC 0.013849 < 0.02
[DRAM_CYCLE_ERROR] Cycle-based error applied! address=0xc791b3930 additional_latency=2459910500 cycles
Simulation CPU 0 panic: IPC 0 < 0.01
Simulation CPU 0 panic: IPC 0.0028713 < 0.01
Simulation CPU 0 critical: IPC 0.014351 < 0.02
Simulation CPU 0 panic: IPC 0.0079945 < 0.01
Simulation CPU 0 panic: IPC 0.0059865 < 0.01
Simulation CPU 0 critical: IPC 0.01635 < 0.02
Simulation CPU 0 critical: IPC 0.013955 < 0.02
Simulation CPU 0 panic: IPC 0.0031401 < 0.01
Simulation CPU 0 warning: IPC 0.021729 < 0.05
Simulation CPU 0 panic: IPC 0.0066105 < 0.01
Simulation CPU 0 critical: IPC 0.0161 < 0.02
Simulation CPU 0 critical: IPC 0.013724 < 0.02
Simulation CPU 0 panic: IPC 0.0033705 < 0.01
Simulation CPU 0 critical: IPC 0.014476 < 0.02
Simulation CPU 0 panic: IPC 0.0069961 < 0.01
Simulation CPU 0 panic: IPC 0.0073593 < 0.01
Simulation CPU 0 critical: IPC 0.015601 < 0.02
Simulation CPU 0 critical: IPC 0.013724 < 0.02
Simulation CPU 0 panic: IPC 0.0036201 < 0.01
Simulation CPU 0 critical: IPC 0.014445 < 0.02
Simulation CPU 0 panic: IPC 0.0064105 < 0.01
Simulation CPU 0 panic: IPC 0.0079833 < 0.01
Heartbeat CPU 0 instructions: 120000020 cycles: 11380737931 heartbeat IPC: 0.01058 cumulative IPC: 0.01054 (Simulation time: 20 hr 15 min 16 sec)
Simulation CPU 0 critical: IPC 0.015351 < 0.02
Simulation CPU 0 critical: IPC 0.017344 < 0.02
Simulation CPU 0 panic: IPC 0.001448 < 0.01
Simulation CPU 0 critical: IPC 0.013152 < 0.02
Simulation CPU 0 panic: IPC 0.0059977 < 0.01
Simulation CPU 0 panic: IPC 0.0087321 < 0.01
Simulation CPU 0 critical: IPC 0.014727 < 0.02
Simulation CPU 0 critical: IPC 0.013724 < 0.02
Simulation CPU 0 panic: IPC 0.0039945 < 0.01
Simulation CPU 0 critical: IPC 0.014609 < 0.02
Simulation CPU 0 panic: IPC 0.0053737 < 0.01
Simulation CPU 0 panic: IPC 0.0093561 < 0.01
Simulation CPU 0 critical: IPC 0.014478 < 0.02
Simulation CPU 0 critical: IPC 0.013475 < 0.02
Simulation CPU 0 panic: IPC 0.0043689 < 0.01
Simulation CPU 0 critical: IPC 0.0196 < 0.02
Simulation CPU 0 critical: IPC 0.010105 < 0.02
Simulation CPU 0 critical: IPC 0.013978 < 0.02
Simulation CPU 0 critical: IPC 0.013475 < 0.02
Simulation CPU 0 panic: IPC 0.0044937 < 0.01
Simulation CPU 0 critical: IPC 0.014733 < 0.02
Simulation CPU 0 panic: IPC 0.0042505 < 0.01
Simulation CPU 0 critical: IPC 0.010854 < 0.02
Simulation CPU 0 critical: IPC 0.013729 < 0.02
[ERROR_CYCLE] Error added at CPU cycle 11621040351, interval 25, pending count: 1
[DRAM_CYCLE_ERROR] Cycle-based error applied! address=0x3d22006c8 additional_latency=2459910500 cycles
Simulation CPU 0 panic: IPC 0 < 0.01
Simulation CPU 0 critical: IPC 0.01335 < 0.02
Simulation CPU 0 panic: IPC 0.0047433 < 0.01
Simulation CPU 0 critical: IPC 0.01485 < 0.02
Simulation CPU 0 panic: IPC 0.0037513 < 0.01
Simulation CPU 0 critical: IPC 0.011602 < 0.02
Simulation CPU 0 warning: IPC 0.026579 < 0.05
Simulation CPU 0 panic: IPC 0.0026807 < 0.01
Simulation CPU 0 panic: IPC 0.0021285 < 0.01
Simulation CPU 0 critical: IPC 0.014917 < 0.02
Simulation CPU 0 panic: IPC 0.0032521 < 0.01
Simulation CPU 0 critical: IPC 0.012226 < 0.02
Simulation CPU 0 critical: IPC 0.012855 < 0.02
Simulation CPU 0 critical: IPC 0.013225 < 0.02
Simulation CPU 0 panic: IPC 0.0052425 < 0.01
Simulation CPU 0 critical: IPC 0.014975 < 0.02
Simulation CPU 0 panic: IPC 0.0027529 < 0.01
Simulation CPU 0 critical: IPC 0.012975 < 0.02
Simulation CPU 0 critical: IPC 0.012356 < 0.02
Simulation CPU 0 critical: IPC 0.013225 < 0.02
Simulation CPU 0 warning: IPC 0.02035 < 0.05
Simulation CPU 0 panic: IPC 0.0022537 < 0.01
Simulation CPU 0 critical: IPC 0.013599 < 0.02
Simulation CPU 0 critical: IPC 0.012106 < 0.02
Simulation CPU 0 critical: IPC 0.0131 < 0.02
Simulation CPU 0 panic: IPC 0.0056169 < 0.01
Simulation CPU 0 critical: IPC 0.0151 < 0.02
Simulation CPU 0 panic: IPC 0.0017545 < 0.01
Simulation CPU 0 critical: IPC 0.014348 < 0.02
Simulation CPU 0 critical: IPC 0.011482 < 0.02
Simulation CPU 0 critical: IPC 0.013109 < 0.02
Simulation CPU 0 panic: IPC 0.0058665 < 0.01
Simulation CPU 0 critical: IPC 0.015224 < 0.02
Simulation CPU 0 panic: IPC 0.0011305 < 0.01
Simulation CPU 0 warning: IPC 0.026205 < 0.05
Simulation CPU 0 critical: IPC 0.012975 < 0.02
Simulation CPU 0 panic: IPC 0.0004181 < 0.01
Simulation CPU 0 panic: IPC 0.0058228 < 0.01
Simulation CPU 0 critical: IPC 0.0151 < 0.02
Simulation CPU 0 panic: IPC 0.0007561 < 0.01
Simulation CPU 0 critical: IPC 0.015721 < 0.02
Simulation CPU 0 critical: IPC 0.010734 < 0.02
Simulation CPU 0 critical: IPC 0.012859 < 0.02
Simulation CPU 0 panic: IPC 0.0063657 < 0.01
Simulation CPU 0 critical: IPC 0.015349 < 0.02
Simulation CPU 0 panic: IPC 0.0001321 < 0.01
[ERROR_CYCLE] Error added at CPU cycle 12085881964, interval 26, pending count: 1
[DRAM_CYCLE_ERROR] Cycle-based error applied! address=0x7a9b149f8 additional_latency=2459910500 cycles
Simulation CPU 0 critical: IPC 0.016345 < 0.02
Simulation CPU 0 panic: IPC 0 < 0.01
Simulation CPU 0 critical: IPC 0.010484 < 0.02
Simulation CPU 0 critical: IPC 0.019466 < 0.02
Simulation CPU 0 critical: IPC 0.014982 < 0.02
Simulation CPU 0 panic: IPC 0.0002423 < 0.01
Simulation CPU 0 critical: IPC 0.016851 < 0.02
Simulation CPU 0 panic: IPC 0.00986 < 0.01
Simulation CPU 0 critical: IPC 0.012859 < 0.02
Simulation CPU 0 panic: IPC 0.0067401 < 0.01
Simulation CPU 0 critical: IPC 0.014569 < 0.02
Simulation CPU 0 panic: IPC 0.0009047 < 0.01
Simulation CPU 0 critical: IPC 0.016851 < 0.02
Simulation CPU 0 panic: IPC 0.0096104 < 0.01
Simulation CPU 0 critical: IPC 0.012726 < 0.02
Simulation CPU 0 panic: IPC 0.0071145 < 0.01
Simulation CPU 0 critical: IPC 0.013984 < 0.02
Simulation CPU 0 critical: IPC 0.012674 < 0.02
Simulation CPU 0 critical: IPC 0.015029 < 0.02
Simulation CPU 0 critical: IPC 0.012609 < 0.02
Simulation CPU 0 panic: IPC 0.0073641 < 0.01
Simulation CPU 0 critical: IPC 0.013484 < 0.02
Simulation CPU 0 panic: IPC 0.0019895 < 0.01
Simulation CPU 0 critical: IPC 0.017226 < 0.02
Simulation CPU 0 panic: IPC 0.0088616 < 0.01
Heartbeat CPU 0 instructions: 130000024 cycles: 12334842384 heartbeat IPC: 0.01048 cumulative IPC: 0.01054 (Simulation time: 22 hr 01 min 40 sec)
Simulation CPU 0 critical: IPC 0.012601 < 0.02
Simulation CPU 0 panic: IPC 0.0074889 < 0.01
Simulation CPU 0 critical: IPC 0.01311 < 0.02
Simulation CPU 0 panic: IPC 0.0024887 < 0.01
Simulation CPU 0 critical: IPC 0.017351 < 0.02
Simulation CPU 0 panic: IPC 0.0083624 < 0.01
Simulation CPU 0 critical: IPC 0.012609 < 0.02
Simulation CPU 0 warning: IPC 0.020349 < 0.05
Simulation CPU 0 panic: IPC 0.0030839 < 0.01
Simulation CPU 0 critical: IPC 0.017504 < 0.02
Simulation CPU 0 panic: IPC 0.007988 < 0.01
Simulation CPU 0 critical: IPC 0.012476 < 0.02
Simulation CPU 0 panic: IPC 0.0079881 < 0.01
Simulation CPU 0 critical: IPC 0.012236 < 0.02
Simulation CPU 0 panic: IPC 0.0034871 < 0.01
Simulation CPU 0 critical: IPC 0.017725 < 0.02
Simulation CPU 0 panic: IPC 0.0076219 < 0.01
Simulation CPU 0 critical: IPC 0.012351 < 0.02
Simulation CPU 0 panic: IPC 0.0082377 < 0.01
Simulation CPU 0 critical: IPC 0.011737 < 0.02
Simulation CPU 0 panic: IPC 0.0041111 < 0.01
Simulation CPU 0 warning: IPC 0.025089 < 0.05
[ERROR_CYCLE] Error added at CPU cycle 12550723579, interval 27, pending count: 1
[DRAM_CYCLE_ERROR] Cycle-based error applied! address=0x7a9b459a0 additional_latency=2459910500 cycles
Simulation CPU 0 panic: IPC 0 < 0.01
Simulation CPU 0 critical: IPC 0.012351 < 0.02
Simulation CPU 0 panic: IPC 0.0084873 < 0.01
Simulation CPU 0 critical: IPC 0.011238 < 0.02
Simulation CPU 0 panic: IPC 0.0044855 < 0.01
Simulation CPU 0 critical: IPC 0.010617 < 0.02
Simulation CPU 0 panic: IPC 0.0074821 < 0.01
Simulation CPU 0 panic: IPC 0.0067483 < 0.01
Simulation CPU 0 critical: IPC 0.012351 < 0.02
Simulation CPU 0 panic: IPC 0.0086121 < 0.01
Simulation CPU 0 critical: IPC 0.010864 < 0.02
Simulation CPU 0 panic: IPC 0.0051095 < 0.01
Simulation CPU 0 critical: IPC 0.018224 < 0.02
Simulation CPU 0 panic: IPC 0.0063656 < 0.01
Simulation CPU 0 warning: IPC 0.021213 < 0.05
Simulation CPU 0 critical: IPC 0.010364 < 0.02
Simulation CPU 0 panic: IPC 0.0056087 < 0.01
Simulation CPU 0 critical: IPC 0.018232 < 0.02
Simulation CPU 0 panic: IPC 0.006116 < 0.01
Simulation CPU 0 critical: IPC 0.012102 < 0.02
Simulation CPU 0 panic: IPC 0.0091785 < 0.01
Simulation CPU 0 panic: IPC 0.0099228 < 0.01
Simulation CPU 0 panic: IPC 0.0061079 < 0.01
Simulation CPU 0 critical: IPC 0.018599 < 0.02
Simulation CPU 0 panic: IPC 0.0056168 < 0.01
Simulation CPU 0 critical: IPC 0.012102 < 0.02
Simulation CPU 0 panic: IPC 0.0093609 < 0.01
Simulation CPU 0 panic: IPC 0.0093756 < 0.01
Simulation CPU 0 warning: IPC 0.025262 < 0.05
Simulation CPU 0 panic: IPC 0.0053096 < 0.01
Simulation CPU 0 critical: IPC 0.012102 < 0.02
Simulation CPU 0 panic: IPC 0.0096105 < 0.01
Simulation CPU 0 panic: IPC 0.0088668 < 0.01
Simulation CPU 0 panic: IPC 0.0072311 < 0.01
Simulation CPU 0 panic: IPC 0.0067419 < 0.01
Simulation CPU 0 critical: IPC 0.012231 < 0.02
Simulation CPU 0 panic: IPC 0.0047432 < 0.01
Simulation CPU 0 critical: IPC 0.011977 < 0.02
Simulation CPU 0 panic: IPC 0.0098601 < 0.01
Simulation CPU 0 panic: IPC 0.0084924 < 0.01
Simulation CPU 0 panic: IPC 0.0077303 < 0.01
Simulation CPU 0 critical: IPC 0.018981 < 0.02
Simulation CPU 0 critical: IPC 0.01073 < 0.02
Simulation CPU 0 critical: IPC 0.015726 < 0.02
Simulation CPU 0 panic: IPC 0.0079932 < 0.01
Simulation CPU 0 panic: IPC 0.0083543 < 0.01
[ERROR_CYCLE] Error added at CPU cycle 13015565192, interval 28, pending count: 1
[DRAM_CYCLE_ERROR] Cycle-based error applied! address=0xf80800708 additional_latency=2459910500 cycles
Simulation CPU 0 panic: IPC 0 < 0.01
Simulation CPU 0 critical: IPC 0.019223 < 0.02
Simulation CPU 0 panic: IPC 0.0039944 < 0.01
Simulation CPU 0 critical: IPC 0.011852 < 0.02
Simulation CPU 0 critical: IPC 0.010359 < 0.02
Simulation CPU 0 panic: IPC 0.007494 < 0.01
Simulation CPU 0 panic: IPC 0.0087287 < 0.01
Simulation CPU 0 critical: IPC 0.019356 < 0.02
Simulation CPU 0 panic: IPC 0.00362 < 0.01
Simulation CPU 0 critical: IPC 0.011852 < 0.02
Simulation CPU 0 critical: IPC 0.010484 < 0.02
Simulation CPU 0 critical: IPC 0.011854 < 0.02
Simulation CPU 0 warning: IPC 0.024215 < 0.05
Simulation CPU 0 panic: IPC 0.0031208 < 0.01
Simulation CPU 0 critical: IPC 0.011727 < 0.02
Simulation CPU 0 critical: IPC 0.010859 < 0.02
Simulation CPU 0 panic: IPC 0.0066204 < 0.01
Simulation CPU 0 panic: IPC 0.0097271 < 0.01
Simulation CPU 0 panic: IPC 0.0028473 < 0.01
Simulation CPU 0 critical: IPC 0.016883 < 0.02
Simulation CPU 0 panic: IPC 0.0028712 < 0.01
Simulation CPU 0 critical: IPC 0.011603 < 0.02
Simulation CPU 0 critical: IPC 0.010983 < 0.02
Simulation CPU 0 panic: IPC 0.006246 < 0.01
Simulation CPU 0 critical: IPC 0.010351 < 0.02
Simulation CPU 0 critical: IPC 0.019971 < 0.02
Simulation CPU 0 critical: IPC 0.013975 < 0.02
Simulation CPU 0 critical: IPC 0.011233 < 0.02
Heartbeat CPU 0 instructions: 140000025 cycles: 13298186467 heartbeat IPC: 0.01038 cumulative IPC: 0.01053 (Simulation time: 23 hr 45 min 56 sec)
Simulation CPU 0 panic: IPC 0.0057468 < 0.01
Simulation CPU 0 critical: IPC 0.01085 < 0.02
Simulation CPU 0 critical: IPC 0.01998 < 0.02
Simulation CPU 0 panic: IPC 0.0019976 < 0.01
Simulation CPU 0 critical: IPC 0.011603 < 0.02
Simulation CPU 0 critical: IPC 0.011482 < 0.02
Simulation CPU 0 panic: IPC 0.0052476 < 0.01
Simulation CPU 0 critical: IPC 0.01135 < 0.02
Simulation CPU 0 warning: IPC 0.020346 < 0.05
Simulation CPU 0 panic: IPC 0.0014984 < 0.01
Simulation CPU 0 critical: IPC 0.011478 < 0.02
Simulation CPU 0 critical: IPC 0.011732 < 0.02
Simulation CPU 0 critical: IPC 0.01673 < 0.02
Simulation CPU 0 warning: IPC 0.020346 < 0.05
Simulation CPU 0 panic: IPC 0.0012488 < 0.01
Simulation CPU 0 critical: IPC 0.011353 < 0.02
Simulation CPU 0 critical: IPC 0.011982 < 0.02
Simulation CPU 0 panic: IPC 0.0042492 < 0.01
Simulation CPU 0 critical: IPC 0.012578 < 0.02
[ERROR_CYCLE] Error added at CPU cycle 13480406807, interval 29, pending count: 1
[DRAM_CYCLE_ERROR] Cycle-based error applied! address=0x77fe00000 additional_latency=2459910500 cycles
Simulation CPU 0 panic: IPC 0 < 0.01
Simulation CPU 0 warning: IPC 0.020615 < 0.05
Simulation CPU 0 panic: IPC 0.0007496 < 0.01
Simulation CPU 0 critical: IPC 0.011353 < 0.02
Simulation CPU 0 critical: IPC 0.012106 < 0.02
Simulation CPU 0 panic: IPC 0.0038748 < 0.01
Simulation CPU 0 critical: IPC 0.01298 < 0.02
Simulation CPU 0 warning: IPC 0.02072 < 0.05
Simulation CPU 0 critical: IPC 0.011728 < 0.02
Simulation CPU 0 critical: IPC 0.012356 < 0.02
Simulation CPU 0 panic: IPC 0.0033756 < 0.01
Simulation CPU 0 critical: IPC 0.013596 < 0.02
Simulation CPU 0 warning: IPC 0.020846 < 0.05
Simulation CPU 0 panic: IPC 0.000124 < 0.01
Simulation CPU 0 critical: IPC 0.011104 < 0.02
Simulation CPU 0 critical: IPC 0.012731 < 0.02
Simulation CPU 0 panic: IPC 0.0028764 < 0.01
Simulation CPU 0 critical: IPC 0.013979 < 0.02
Simulation CPU 0 warning: IPC 0.020721 < 0.05
Simulation CPU 0 panic: IPC 0.0003736 < 0.01
Simulation CPU 0 critical: IPC 0.01073 < 0.02
Simulation CPU 0 critical: IPC 0.012855 < 0.02
Simulation CPU 0 critical: IPC 0.017096 < 0.02
Simulation CPU 0 warning: IPC 0.020471 < 0.05
Simulation CPU 0 panic: IPC 0.0008728 < 0.01
Simulation CPU 0 critical: IPC 0.010231 < 0.02
Simulation CPU 0 critical: IPC 0.013105 < 0.02
Simulation CPU 0 panic: IPC 0.0020028 < 0.01
Simulation CPU 0 critical: IPC 0.015102 < 0.02
Simulation CPU 0 warning: IPC 0.020107 < 0.05
Simulation CPU 0 panic: IPC 0.0012376 < 0.01
Simulation CPU 0 panic: IPC 0.0098562 < 0.01
Simulation CPU 0 panic: IPC 0.0030617 < 0.01
Simulation CPU 0 critical: IPC 0.010245 < 0.02
Simulation CPU 0 panic: IPC 0.0015516 < 0.01
Simulation CPU 0 critical: IPC 0.015593 < 0.02
Simulation CPU 0 critical: IPC 0.019972 < 0.02
Simulation CPU 0 critical: IPC 0.010979 < 0.02
Simulation CPU 0 critical: IPC 0.013604 < 0.02
Simulation CPU 0 panic: IPC 0.0011292 < 0.01
Simulation CPU 0 critical: IPC 0.0161 < 0.02
Simulation CPU 0 critical: IPC 0.019723 < 0.02
Simulation CPU 0 panic: IPC 0.001996 < 0.01
Simulation CPU 0 panic: IPC 0.0088578 < 0.01
Simulation CPU 0 critical: IPC 0.013854 < 0.02
Simulation CPU 0 panic: IPC 0.00063 < 0.01
[ERROR_CYCLE] Error added at CPU cycle 13945248420, interval 30, pending count: 1
[DRAM_CYCLE_ERROR] Cycle-based error applied! address=0x7a9bd7ad8 additional_latency=2459910500 cycles
Simulation CPU 0 critical: IPC 0.016591 < 0.02
Simulation CPU 0 panic: IPC 0 < 0.01
Simulation CPU 0 critical: IPC 0.019598 < 0.02
Simulation CPU 0 panic: IPC 0.0024952 < 0.01
Simulation CPU 0 panic: IPC 0.0083586 < 0.01
Simulation CPU 0 critical: IPC 0.013978 < 0.02
Simulation CPU 0 critical: IPC 0.017354 < 0.02
Simulation CPU 0 critical: IPC 0.019252 < 0.02
Simulation CPU 0 panic: IPC 0.0028408 < 0.01
Simulation CPU 0 panic: IPC 0.0079842 < 0.01
Simulation CPU 0 critical: IPC 0.013956 < 0.02
Simulation CPU 0 panic: IPC 0.0002724 < 0.01
Simulation CPU 0 critical: IPC 0.017471 < 0.02
Simulation CPU 0 critical: IPC 0.018974 < 0.02
Simulation CPU 0 panic: IPC 0.0033688 < 0.01
Simulation CPU 0 panic: IPC 0.0073602 < 0.01
Simulation CPU 0 panic: IPC 0.0006743 < 0.01
Simulation CPU 0 critical: IPC 0.012944 < 0.02
Simulation CPU 0 panic: IPC 0.0008676 < 0.01
Simulation CPU 0 critical: IPC 0.017471 < 0.02
Simulation CPU 0 warning: IPC 0.022467 < 0.05
Simulation CPU 0 panic: IPC 0.0069858 < 0.01
Simulation CPU 0 critical: IPC 0.013485 < 0.02
Simulation CPU 0 panic: IPC 0.001242 < 0.01
Simulation CPU 0 critical: IPC 0.017596 < 0.02
Simulation CPU 0 critical: IPC 0.018599 < 0.02
Simulation CPU 0 panic: IPC 0.0040504 < 0.01
Simulation CPU 0 panic: IPC 0.0065538 < 0.01
Simulation CPU 0 critical: IPC 0.013119 < 0.02
Simulation CPU 0 panic: IPC 0.0017412 < 0.01
Simulation CPU 0 critical: IPC 0.017596 < 0.02
Heartbeat CPU 0 instructions: 150000029 cycles: 14252335498 heartbeat IPC: 0.01048 cumulative IPC: 0.01052 (Simulation time: 01 hr 28 min 13 sec)
Simulation CPU 0 critical: IPC 0.018398 < 0.02
Simulation CPU 0 panic: IPC 0.004444 < 0.01
Simulation CPU 0 panic: IPC 0.0061122 < 0.01
Simulation CPU 0 critical: IPC 0.015102 < 0.02
Simulation CPU 0 critical: IPC 0.01772 < 0.02
Simulation CPU 0 critical: IPC 0.0181 < 0.02
Simulation CPU 0 panic: IPC 0.0048664 < 0.01
Simulation CPU 0 panic: IPC 0.005613 < 0.01
Simulation CPU 0 critical: IPC 0.012745 < 0.02
Simulation CPU 0 panic: IPC 0.0026148 < 0.01
Simulation CPU 0 critical: IPC 0.017845 < 0.02
Simulation CPU 0 critical: IPC 0.017851 < 0.02
Simulation CPU 0 panic: IPC 0.0052408 < 0.01
Simulation CPU 0 panic: IPC 0.0034007 < 0.01
Simulation CPU 0 panic: IPC 0.0017131 < 0.01
Simulation CPU 0 critical: IPC 0.012612 < 0.02
[ERROR_CYCLE] Error added at CPU cycle 14410090035, interval 31, pending count: 1
[DRAM_CYCLE_ERROR] Cycle-based error applied! address=0xa20100460 additional_latency=2459910500 cycles
Simulation CPU 0 panic: IPC 0 < 0.01
Simulation CPU 0 panic: IPC 0.003114 < 0.01
Simulation CPU 0 warning: IPC 0.035446 < 0.05
Simulation CPU 0 panic: IPC 0.0056152 < 0.01
Simulation CPU 0 panic: IPC 0.0047394 < 0.01
Simulation CPU 0 critical: IPC 0.012246 < 0.02
Simulation CPU 0 panic: IPC 0.0034884 < 0.01
Simulation CPU 0 critical: IPC 0.01797 < 0.02
Simulation CPU 0 critical: IPC 0.017419 < 0.02
Simulation CPU 0 panic: IPC 0.0060472 < 0.01
Simulation CPU 0 panic: IPC 0.0042402 < 0.01
Simulation CPU 0 critical: IPC 0.012113 < 0.02
Simulation CPU 0 panic: IPC 0.0039876 < 0.01
Simulation CPU 0 critical: IPC 0.01797 < 0.02
Simulation CPU 0 critical: IPC 0.017102 < 0.02
Simulation CPU 0 panic: IPC 0.0064888 < 0.01
Simulation CPU 0 critical: IPC 0.012097 < 0.02
Simulation CPU 0 panic: IPC 0.0078773 < 0.01
Simulation CPU 0 critical: IPC 0.018095 < 0.02
Simulation CPU 0 critical: IPC 0.016977 < 0.02
Simulation CPU 0 panic: IPC 0.0068632 < 0.01
Simulation CPU 0 panic: IPC 0.0032418 < 0.01
Simulation CPU 0 critical: IPC 0.011738 < 0.02
Simulation CPU 0 panic: IPC 0.0048612 < 0.01
Simulation CPU 0 critical: IPC 0.018095 < 0.02
Simulation CPU 0 critical: IPC 0.016727 < 0.02
Simulation CPU 0 panic: IPC 0.0072376 < 0.01
Simulation CPU 0 panic: IPC 0.0027509 < 0.01
Simulation CPU 0 critical: IPC 0.011383 < 0.02
Simulation CPU 0 panic: IPC 0.005466 < 0.01
Simulation CPU 0 critical: IPC 0.018095 < 0.02
Simulation CPU 0 warning: IPC 0.024215 < 0.05
Simulation CPU 0 panic: IPC 0.0023682 < 0.01
Simulation CPU 0 critical: IPC 0.011114 < 0.02
Simulation CPU 0 panic: IPC 0.0058596 < 0.01
Simulation CPU 0 critical: IPC 0.018219 < 0.02
Simulation CPU 0 critical: IPC 0.016228 < 0.02
Simulation CPU 0 panic: IPC 0.0079947 < 0.01
Simulation CPU 0 panic: IPC 0.001869 < 0.01
Simulation CPU 0 critical: IPC 0.010989 < 0.02
Simulation CPU 0 panic: IPC 0.0063588 < 0.01
Simulation CPU 0 critical: IPC 0.018344 < 0.02
Simulation CPU 0 critical: IPC 0.015979 < 0.02
Simulation CPU 0 panic: IPC 0.0084856 < 0.01
Simulation CPU 0 panic: IPC 0.0013698 < 0.01
Simulation CPU 0 critical: IPC 0.017559 < 0.02
[ERROR_CYCLE] Error added at CPU cycle 14874931648, interval 32, pending count: 1
[DRAM_CYCLE_ERROR] Cycle-based error applied! address=0xd3cc00000 additional_latency=2459910500 cycles
Simulation CPU 0 panic: IPC 0 < 0.01
Simulation CPU 0 critical: IPC 0.018258 < 0.02
Simulation CPU 0 critical: IPC 0.015854 < 0.02
Simulation CPU 0 panic: IPC 0.0087435 < 0.01
Simulation CPU 0 panic: IPC 0.0009954 < 0.01
Simulation CPU 0 critical: IPC 0.01049 < 0.02
Simulation CPU 0 panic: IPC 0.0072324 < 0.01
Simulation CPU 0 critical: IPC 0.018469 < 0.02
Simulation CPU 0 critical: IPC 0.015585 < 0.02
Simulation CPU 0 panic: IPC 0.0092536 < 0.01
Simulation CPU 0 panic: IPC 0.0004962 < 0.01
Simulation CPU 0 critical: IPC 0.01024 < 0.02
Simulation CPU 0 panic: IPC 0.0077316 < 0.01
Simulation CPU 0 critical: IPC 0.014725 < 0.02
Simulation CPU 0 critical: IPC 0.018974 < 0.02
Simulation CPU 0 panic: IPC 0.0096141 < 0.01
Simulation CPU 0 critical: IPC 0.010116 < 0.02
Simulation CPU 0 panic: IPC 0.008106 < 0.01
Simulation CPU 0 critical: IPC 0.018594 < 0.02
Simulation CPU 0 critical: IPC 0.015105 < 0.02
Simulation CPU 0 panic: IPC 0.0096058 < 0.01
Simulation CPU 0 panic: IPC 0.0005022 < 0.01
Simulation CPU 0 panic: IPC 0.0093639 < 0.01
Simulation CPU 0 panic: IPC 0.0086052 < 0.01
Simulation CPU 0 critical: IPC 0.018594 < 0.02
Simulation CPU 0 critical: IPC 0.014864 < 0.02
Simulation CPU 0 panic: IPC 0.009481 < 0.01
Simulation CPU 0 panic: IPC 0.0008766 < 0.01
Simulation CPU 0 critical: IPC 0.016683 < 0.02
Simulation CPU 0 critical: IPC 0.019755 < 0.02
Heartbeat CPU 0 instructions: 160000031 cycles: 15178814715 heartbeat IPC: 0.01079 cumulative IPC: 0.01054 (Simulation time: 03 hr 05 min 42 sec)
Simulation CPU 0 critical: IPC 0.014731 < 0.02
Simulation CPU 0 panic: IPC 0.009481 < 0.01
Simulation CPU 0 panic: IPC 0.0013758 < 0.01
Simulation CPU 0 panic: IPC 0.0079911 < 0.01
Simulation CPU 0 panic: IPC 0.0094788 < 0.01
Simulation CPU 0 critical: IPC 0.018719 < 0.02
Simulation CPU 0 critical: IPC 0.014365 < 0.02
Simulation CPU 0 panic: IPC 0.0093562 < 0.01
Simulation CPU 0 panic: IPC 0.001875 < 0.01
Simulation CPU 0 panic: IPC 0.0073671 < 0.01
Simulation CPU 0 panic: IPC 0.009978 < 0.01
Simulation CPU 0 critical: IPC 0.011214 < 0.02
Simulation CPU 0 panic: IPC 0.0075045 < 0.01
Simulation CPU 0 warning: IPC 0.023588 < 0.05
Simulation CPU 0 panic: IPC 0.0023742 < 0.01
Simulation CPU 0 panic: IPC 0.0064935 < 0.01
[ERROR_CYCLE] Error added at CPU cycle 15339773263, interval 33, pending count: 1
Simulation CPU 0 critical: IPC 0.010477 < 0.02
[DRAM_CYCLE_ERROR] Cycle-based error applied! address=0xc41e6ab48 additional_latency=2459910500 cycles
Simulation CPU 0 panic: IPC 0 < 0.01
Simulation CPU 0 critical: IPC 0.018843 < 0.02
Simulation CPU 0 critical: IPC 0.01399 < 0.02
Simulation CPU 0 panic: IPC 0.0092314 < 0.01
Simulation CPU 0 panic: IPC 0.0027486 < 0.01
Simulation CPU 0 panic: IPC 0.0058695 < 0.01
Simulation CPU 0 critical: IPC 0.010976 < 0.02
Simulation CPU 0 critical: IPC 0.018968 < 0.02
Simulation CPU 0 critical: IPC 0.013732 < 0.02
Simulation CPU 0 panic: IPC 0.0092314 < 0.01
Simulation CPU 0 panic: IPC 0.0032478 < 0.01
Simulation CPU 0 critical: IPC 0.016596 < 0.02
Simulation CPU 0 critical: IPC 0.018843 < 0.02
Simulation CPU 0 critical: IPC 0.013491 < 0.02
Simulation CPU 0 panic: IPC 0.0091066 < 0.01
Simulation CPU 0 panic: IPC 0.003747 < 0.01
Simulation CPU 0 panic: IPC 0.0044967 < 0.01
Simulation CPU 0 critical: IPC 0.01185 < 0.02
Simulation CPU 0 critical: IPC 0.019093 < 0.02
Simulation CPU 0 critical: IPC 0.013233 < 0.02
Simulation CPU 0 panic: IPC 0.0091066 < 0.01
Simulation CPU 0 panic: IPC 0.0042462 < 0.01
Simulation CPU 0 panic: IPC 0.0037479 < 0.01
Simulation CPU 0 critical: IPC 0.012349 < 0.02
Simulation CPU 0 panic: IPC 0.0075788 < 0.01
Simulation CPU 0 warning: IPC 0.024506 < 0.05
Simulation CPU 0 panic: IPC 0.0089818 < 0.01
Simulation CPU 0 panic: IPC 0.0046206 < 0.01
Simulation CPU 0 panic: IPC 0.0031239 < 0.01
Simulation CPU 0 critical: IPC 0.012724 < 0.02
Simulation CPU 0 critical: IPC 0.019218 < 0.02
Simulation CPU 0 critical: IPC 0.012859 < 0.02
Simulation CPU 0 panic: IPC 0.0089818 < 0.01
Simulation CPU 0 panic: IPC 0.0051198 < 0.01
Simulation CPU 0 panic: IPC 0.0023751 < 0.01
Simulation CPU 0 critical: IPC 0.013223 < 0.02
Simulation CPU 0 critical: IPC 0.019226 < 0.02
Simulation CPU 0 critical: IPC 0.012484 < 0.02
Simulation CPU 0 panic: IPC 0.008857 < 0.01
Simulation CPU 0 panic: IPC 0.0073701 < 0.01
Simulation CPU 0 critical: IPC 0.013722 < 0.02
Simulation CPU 0 critical: IPC 0.019218 < 0.02
Simulation CPU 0 critical: IPC 0.012359 < 0.02
Simulation CPU 0 panic: IPC 0.008857 < 0.01
Simulation CPU 0 panic: IPC 0.0061182 < 0.01
Simulation CPU 0 panic: IPC 0.0010023 < 0.01
[ERROR_CYCLE] Error added at CPU cycle 15804614876, interval 34, pending count: 1
[DRAM_CYCLE_ERROR] Cycle-based error applied! address=0xaa2200670 additional_latency=2459910500 cycles
Simulation CPU 0 panic: IPC 0 < 0.01
Simulation CPU 0 critical: IPC 0.014096 < 0.02
Simulation CPU 0 critical: IPC 0.019351 < 0.02
Simulation CPU 0 critical: IPC 0.01211 < 0.02
Simulation CPU 0 panic: IPC 0.0087322 < 0.01
Simulation CPU 0 panic: IPC 0.0064926 < 0.01
Simulation CPU 0 panic: IPC 0.0003783 < 0.01
Simulation CPU 0 critical: IPC 0.014596 < 0.02
Simulation CPU 0 warning: IPC 0.031328 < 0.05
Simulation CPU 0 panic: IPC 0.0087322 < 0.01
Simulation CPU 0 panic: IPC 0.0066021 < 0.01
Simulation CPU 0 panic: IPC 0.0003897 < 0.01
Simulation CPU 0 critical: IPC 0.014696 < 0.02
Simulation CPU 0 critical: IPC 0.01938 < 0.02
Simulation CPU 0 critical: IPC 0.011611 < 0.02
Simulation CPU 0 panic: IPC 0.0086074 < 0.01
Simulation CPU 0 panic: IPC 0.0063717 < 0.01
Simulation CPU 0 panic: IPC 0.0011193 < 0.01
Simulation CPU 0 critical: IPC 0.014475 < 0.02
Simulation CPU 0 critical: IPC 0.019592 < 0.02
Simulation CPU 0 critical: IPC 0.011361 < 0.02
Simulation CPU 0 panic: IPC 0.0086074 < 0.01
Simulation CPU 0 panic: IPC 0.006313 < 0.01
Simulation CPU 0 critical: IPC 0.015902 < 0.02
Simulation CPU 0 critical: IPC 0.019476 < 0.02
Simulation CPU 0 critical: IPC 0.011236 < 0.02
Simulation CPU 0 panic: IPC 0.0084826 < 0.01
Simulation CPU 0 panic: IPC 0.0058725 < 0.01
Simulation CPU 0 panic: IPC 0.0024921 < 0.01
Simulation CPU 0 critical: IPC 0.013976 < 0.02
Simulation CPU 0 critical: IPC 0.019717 < 0.02
Simulation CPU 0 critical: IPC 0.010987 < 0.02
Simulation CPU 0 panic: IPC 0.0084826 < 0.01
Simulation CPU 0 panic: IPC 0.0056229 < 0.01
Heartbeat CPU 0 instructions: 170000031 cycles: 16142140894 heartbeat IPC: 0.01038 cumulative IPC: 0.01053 (Simulation time: 04 hr 47 min 06 sec)
Simulation CPU 0 panic: IPC 0.0031737 < 0.01
Simulation CPU 0 critical: IPC 0.013793 < 0.02
Simulation CPU 0 critical: IPC 0.019725 < 0.02
Simulation CPU 0 critical: IPC 0.01897 < 0.02
Simulation CPU 0 panic: IPC 0.0010553 < 0.01
Simulation CPU 0 panic: IPC 0.0044428 < 0.01
Simulation CPU 0 panic: IPC 0.0038649 < 0.01
Simulation CPU 0 critical: IPC 0.013601 < 0.02
Simulation CPU 0 critical: IPC 0.019717 < 0.02
Simulation CPU 0 critical: IPC 0.010487 < 0.02
Simulation CPU 0 panic: IPC 0.0083578 < 0.01
Simulation CPU 0 panic: IPC 0.0052485 < 0.01
[ERROR_CYCLE] Error added at CPU cycle 16269456491, interval 35, pending count: 1
Simulation CPU 0 panic: IPC 0.0044889 < 0.01
[DRAM_CYCLE_ERROR] Cycle-based error applied! address=0x869300010 additional_latency=2459910500 cycles
Simulation CPU 0 panic: IPC 0 < 0.01
Simulation CPU 0 critical: IPC 0.013352 < 0.02
Simulation CPU 0 critical: IPC 0.01985 < 0.02
Simulation CPU 0 critical: IPC 0.010238 < 0.02
Simulation CPU 0 panic: IPC 0.008233 < 0.01
Simulation CPU 0 critical: IPC 0.010237 < 0.02
Simulation CPU 0 critical: IPC 0.013102 < 0.02
Simulation CPU 0 critical: IPC 0.019842 < 0.02
Simulation CPU 0 critical: IPC 0.010113 < 0.02
Simulation CPU 0 panic: IPC 0.008233 < 0.01
Simulation CPU 0 panic: IPC 0.0047493 < 0.01
Simulation CPU 0 panic: IPC 0.0058617 < 0.01
Simulation CPU 0 critical: IPC 0.012736 < 0.02
Simulation CPU 0 warning: IPC 0.020092 < 0.05
Simulation CPU 0 panic: IPC 0.0097386 < 0.01
Simulation CPU 0 panic: IPC 0.0081082 < 0.01
Simulation CPU 0 panic: IPC 0.0046245 < 0.01
Simulation CPU 0 panic: IPC 0.0066105 < 0.01
Simulation CPU 0 critical: IPC 0.012603 < 0.02
Simulation CPU 0 warning: IPC 0.02958 < 0.05
Simulation CPU 0 panic: IPC 0.0066513 < 0.01
Simulation CPU 0 panic: IPC 0.0014569 < 0.01
Simulation CPU 0 panic: IPC 0.0043749 < 0.01
Simulation CPU 0 panic: IPC 0.0072345 < 0.01
Simulation CPU 0 critical: IPC 0.012361 < 0.02
Simulation CPU 0 warning: IPC 0.020092 < 0.05
Simulation CPU 0 panic: IPC 0.0093642 < 0.01
Simulation CPU 0 panic: IPC 0.0079834 < 0.01
Simulation CPU 0 panic: IPC 0.0040293 < 0.01
Simulation CPU 0 panic: IPC 0.0080793 < 0.01
Simulation CPU 0 critical: IPC 0.012103 < 0.02
Simulation CPU 0 warning: IPC 0.020216 < 0.05
Simulation CPU 0 panic: IPC 0.0091146 < 0.01
Simulation CPU 0 critical: IPC 0.011734 < 0.02
Simulation CPU 0 panic: IPC 0.0087321 < 0.01
Simulation CPU 0 critical: IPC 0.011862 < 0.02
Simulation CPU 0 warning: IPC 0.020341 < 0.05
Simulation CPU 0 panic: IPC 0.0087402 < 0.01
Simulation CPU 0 panic: IPC 0.0078586 < 0.01
Simulation CPU 0 panic: IPC 0.0036261 < 0.01
Simulation CPU 0 panic: IPC 0.0094809 < 0.01
Simulation CPU 0 critical: IPC 0.011604 < 0.02
Simulation CPU 0 warning: IPC 0.020341 < 0.05
Simulation CPU 0 panic: IPC 0.0086154 < 0.01
Simulation CPU 0 panic: IPC 0.0078586 < 0.01
Simulation CPU 0 panic: IPC 0.0033765 < 0.01
[ERROR_CYCLE] Error added at CPU cycle 16734298104, interval 36, pending count: 1
[DRAM_CYCLE_ERROR] Cycle-based error applied! address=0xc41efcc70 additional_latency=2459910500 cycles
Simulation CPU 