
*** ChampSim Multicore Out-of-Order Simulator ***
Warmup Instructions: 0
Simulation Instructions: 9223372036854775807
Number of CPUs: 1
Page size: 1048576

Off-chip DRAM Size: 128 GiB Channels: 2 Width: 32-bit Data Rate: 4807 MT/s
[ERROR_PAGE_MANAGER] Error latency: 2459910500 
[ERROR_PAGE_MANAGER] Random seed: 54321 (fixed for preload reproducibility)
[ERROR_PAGE_MANAGER] Cycle-based error modeling enabled
[ERROR_PAGE_MANAGER] Errors per interval: 1
[ERROR_PAGE_MANAGER] Error cycle interval: 257630478 cycles

=== ERROR PAGE STATISTICS ===
Mode: CYCLE
Error Cycle Interval: 257630478 CPU cycles
Total Error Accesses: 0
==============================
Warmup finished CPU 0 instructions: 0 cycles: 1 cumulative IPC: 0 (Simulation time: 00 hr 00 min 00 sec)
Warmup complete CPU 0 instructions: 0 cycles: 1 cumulative IPC: 0 (Simulation time: 00 hr 00 min 00 sec)
Simulation CPU 0 panic: IPC 0 < 0.01
Simulation CPU 0 panic: IPC 2e-07 < 0.01
Simulation CPU 0 panic: IPC 0 < 0.01
Simulation CPU 0 panic: IPC 2.1e-06 < 0.01
Simulation CPU 0 panic: IPC 0 < 0.01
Simulation CPU 0 panic: IPC 6.49e-05 < 0.01
Simulation CPU 0 warning: IPC 0.027624 < 0.05
Simulation CPU 0 warning: IPC 0.030096 < 0.05
Simulation CPU 0 warning: IPC 0.027793 < 0.05
Simulation CPU 0 warning: IPC 0.030094 < 0.05
Simulation CPU 0 warning: IPC 0.030096 < 0.05
Simulation CPU 0 critical: IPC 0.014829 < 0.02
Heartbeat CPU 0 instructions: 10000004 cycles: 174313603 heartbeat IPC: 0.05737 cumulative IPC: 0.05737 (Simulation time: 00 hr 17 min 30 sec)
Simulation CPU 0 warning: IPC 0.030342 < 0.05
Simulation CPU 0 warning: IPC 0.030075 < 0.05
Simulation CPU 0 panic: IPC 0.0033524 < 0.01
Simulation CPU 0 warning: IPC 0.047441 < 0.05
Simulation CPU 0 critical: IPC 0.015478 < 0.02
Heartbeat CPU 0 instructions: 20000004 cycles: 246914737 heartbeat IPC: 0.1377 cumulative IPC: 0.081 (Simulation time: 00 hr 24 min 19 sec)
Simulation CPU 0 warning: IPC 0.024204 < 0.05
[ERROR_CYCLE] Error added at CPU cycle 257630478, interval 1, pending count: 1
Simulation CPU 0 panic: IPC 0.0034267 < 0.01
[DRAM_CYCLE_ERROR] Cycle-based error applied! address=0x1959c3a9b8 additional_latency=2459910500 cycles
Simulation CPU 0 panic: IPC 0 < 0.01
Simulation CPU 0 warning: IPC 0.030094 < 0.05
Simulation CPU 0 panic: IPC 0.0061594 < 0.01
Simulation CPU 0 warning: IPC 0.030106 < 0.05
Simulation CPU 0 warning: IPC 0.030105 < 0.05
Simulation CPU 0 critical: IPC 0.014809 < 0.02
Heartbeat CPU 0 instructions: 30000004 cycles: 366244859 heartbeat IPC: 0.0838 cumulative IPC: 0.08191 (Simulation time: 00 hr 36 min 12 sec)
Simulation CPU 0 warning: IPC 0.030332 < 0.05
Simulation CPU 0 warning: IPC 0.030105 < 0.05
Simulation CPU 0 warning: IPC 0.021388 < 0.05
Simulation CPU 0 warning: IPC 0.027624 < 0.05
Simulation CPU 0 warning: IPC 0.030096 < 0.05
Simulation CPU 0 warning: IPC 0.024204 < 0.05
Heartbeat CPU 0 instructions: 40000008 cycles: 457243871 heartbeat IPC: 0.1099 cumulative IPC: 0.08748 (Simulation time: 00 hr 45 min 43 sec)
Simulation CPU 0 warning: IPC 0.040145 < 0.05
Simulation CPU 0 warning: IPC 0.034874 < 0.05
[ERROR_CYCLE] Error added at CPU cycle 515260956, interval 2, pending count: 1
[DRAM_CYCLE_ERROR] Cycle-based error applied! address=0x1925800000 additional_latency=2459910500 cycles
Simulation CPU 0 panic: IPC 0 < 0.01
Heartbeat CPU 0 instructions: 50000009 cycles: 530455779 heartbeat IPC: 0.1366 cumulative IPC: 0.09426 (Simulation time: 00 hr 52 min 55 sec)
Simulation CPU 0 warning: IPC 0.030323 < 0.05
Simulation CPU 0 warning: IPC 0.029857 < 0.05
Simulation CPU 0 warning: IPC 0.027634 < 0.05
Simulation CPU 0 warning: IPC 0.030094 < 0.05
Simulation CPU 0 panic: IPC 0.0025701 < 0.01
Heartbeat CPU 0 instructions: 60000010 cycles: 621842714 heartbeat IPC: 0.1094 cumulative IPC: 0.09649 (Simulation time: 01 hr 03 min 23 sec)
Simulation CPU 0 warning: IPC 0.030105 < 0.05
Simulation CPU 0 warning: IPC 0.030096 < 0.05
Simulation CPU 0 critical: IPC 0.014818 < 0.02
Heartbeat CPU 0 instructions: 70000013 cycles: 675957326 heartbeat IPC: 0.1848 cumulative IPC: 0.1036 (Simulation time: 01 hr 09 min 04 sec)
Simulation CPU 0 warning: IPC 0.030096 < 0.05
Simulation CPU 0 critical: IPC 0.017811 < 0.02
Simulation CPU 0 warning: IPC 0.027603 < 0.05
Simulation CPU 0 warning: IPC 0.030106 < 0.05
Simulation CPU 0 warning: IPC 0.020624 < 0.05
Heartbeat CPU 0 instructions: 80000013 cycles: 757754003 heartbeat IPC: 0.1223 cumulative IPC: 0.1056 (Simulation time: 01 hr 16 min 41 sec)
[ERROR_CYCLE] Error added at CPU cycle 772891435, interval 3, pending count: 1
[DRAM_CYCLE_ERROR] Cycle-based error applied! address=0x1959c6c428 additional_latency=2459910500 cycles
Simulation CPU 0 warning: IPC 0.023593 < 0.05
Simulation CPU 0 warning: IPC 0.036597 < 0.05
Heartbeat CPU 0 instructions: 90000014 cycles: 822008289 heartbeat IPC: 0.1556 cumulative IPC: 0.1095 (Simulation time: 01 hr 24 min 34 sec)
Simulation CPU 0 warning: IPC 0.030323 < 0.05
Simulation CPU 0 warning: IPC 0.026268 < 0.05
Simulation CPU 0 warning: IPC 0.024505 < 0.05
Simulation CPU 0 warning: IPC 0.027624 < 0.05
Simulation CPU 0 warning: IPC 0.029085 < 0.05
Simulation CPU 0 panic: IPC 0.0010113 < 0.01
Heartbeat CPU 0 instructions: 100000015 cycles: 913308560 heartbeat IPC: 0.1095 cumulative IPC: 0.1095 (Simulation time: 01 hr 34 min 23 sec)
Simulation CPU 0 warning: IPC 0.030106 < 0.05
Simulation CPU 0 warning: IPC 0.030086 < 0.05
Heartbeat CPU 0 instructions: 110000018 cycles: 967631123 heartbeat IPC: 0.1841 cumulative IPC: 0.1137 (Simulation time: 01 hr 40 min 42 sec)
Simulation CPU 0 warning: IPC 0.030096 < 0.05
Simulation CPU 0 critical: IPC 0.014219 < 0.02
Simulation CPU 0 warning: IPC 0.027613 < 0.05
Simulation CPU 0 warning: IPC 0.030105 < 0.05
[ERROR_CYCLE] Error added at CPU cycle 1030521912, interval 4, pending count: 1
[DRAM_CYCLE_ERROR] Cycle-based error applied! address=0x1959c84960 additional_latency=2459910500 cycles
Simulation CPU 0 panic: IPC 0 < 0.01
Simulation CPU 0 critical: IPC 0.017035 < 0.02
Heartbeat CPU 0 instructions: 120000022 cycles: 1059321770 heartbeat IPC: 0.1091 cumulative IPC: 0.1133 (Simulation time: 01 hr 49 min 57 sec)
Simulation CPU 0 warning: IPC 0.030106 < 0.05
Simulation CPU 0 warning: IPC 0.03338 < 0.05
Simulation CPU 0 warning: IPC 0.030342 < 0.05
Simulation CPU 0 warning: IPC 0.022679 < 0.05
Simulation CPU 0 panic: IPC 0.0074264 < 0.01
Heartbeat CPU 0 instructions: 130000024 cycles: 1150909468 heartbeat IPC: 0.1092 cumulative IPC: 0.113 (Simulation time: 01 hr 58 min 49 sec)
Simulation CPU 0 warning: IPC 0.027624 < 0.05
Simulation CPU 0 warning: IPC 0.025496 < 0.05
Simulation CPU 0 panic: IPC 0.0046006 < 0.01
Heartbeat CPU 0 instructions: 140000025 cycles: 1205256506 heartbeat IPC: 0.184 cumulative IPC: 0.1162 (Simulation time: 02 hr 04 min 36 sec)
Simulation CPU 0 warning: IPC 0.030084 < 0.05
Simulation CPU 0 warning: IPC 0.030105 < 0.05
Simulation CPU 0 warning: IPC 0.030321 < 0.05
Simulation CPU 0 warning: IPC 0.030106 < 0.05
[ERROR_CYCLE] Error added at CPU cycle 1288152391, interval 5, pending count: 1
Simulation CPU 0 critical: IPC 0.01063 < 0.02
[DRAM_CYCLE_ERROR] Cycle-based error applied! address=0x1959c9de18 additional_latency=2459910500 cycles
Simulation CPU 0 panic: IPC 0 < 0.01
Heartbeat CPU 0 instructions: 150000028 cycles: 1306266405 heartbeat IPC: 0.099 cumulative IPC: 0.1148 (Simulation time: 02 hr 15 min 21 sec)
Simulation CPU 0 warning: IPC 0.027613 < 0.05
Simulation CPU 0 warning: IPC 0.030106 < 0.05
Simulation CPU 0 critical: IPC 0.013446 < 0.02
Heartbeat CPU 0 instructions: 160000029 cycles: 1360314298 heartbeat IPC: 0.185 cumulative IPC: 0.1176 (Simulation time: 02 hr 21 min 45 sec)
Simulation CPU 0 warning: IPC 0.030105 < 0.05
Simulation CPU 0 warning: IPC 0.030086 < 0.05
Simulation CPU 0 warning: IPC 0.028684 < 0.05
Heartbeat CPU 0 instructions: 170000032 cycles: 1432902655 heartbeat IPC: 0.1378 cumulative IPC: 0.1186 (Simulation time: 02 hr 29 min 15 sec)
Simulation CPU 0 warning: IPC 0.027615 < 0.05
Simulation CPU 0 warning: IPC 0.021916 < 0.05
Simulation CPU 0 panic: IPC 0.0081896 < 0.01
Heartbeat CPU 0 instructions: 180000035 cycles: 1496508837 heartbeat IPC: 0.1572 cumulative IPC: 0.1203 (Simulation time: 02 hr 37 min 03 sec)
Simulation CPU 0 warning: IPC 0.030085 < 0.05
Simulation CPU 0 warning: IPC 0.030105 < 0.05
[ERROR_CYCLE] Error added at CPU cycle 1545782868, interval 6, pending count: 1
[DRAM_CYCLE_ERROR] Cycle-based error applied! address=0xa408be00 additional_latency=2459910500 cycles
Simulation CPU 0 warning: IPC 0.030323 < 0.05
Simulation CPU 0 warning: IPC 0.030094 < 0.05
Simulation CPU 0 panic: IPC 0.0070504 < 0.01
Heartbeat CPU 0 instructions: 190000037 cycles: 1597571174 heartbeat IPC: 0.09895 cumulative IPC: 0.1189 (Simulation time: 02 hr 48 min 50 sec)
Simulation CPU 0 warning: IPC 0.027613 < 0.05
Simulation CPU 0 warning: IPC 0.030096 < 0.05
Simulation CPU 0 panic: IPC 0.0098667 < 0.01
Heartbeat CPU 0 instructions: 200000039 cycles: 1661094620 heartbeat IPC: 0.1574 cumulative IPC: 0.1204 (Simulation time: 02 hr 55 min 22 sec)
Simulation CPU 0 warning: IPC 0.04755 < 0.05
Simulation CPU 0 warning: IPC 0.030332 < 0.05
Simulation CPU 0 warning: IPC 0.030096 < 0.05
Simulation CPU 0 warning: IPC 0.025095 < 0.05
Heartbeat CPU 0 instructions: 210000042 cycles: 1743066716 heartbeat IPC: 0.122 cumulative IPC: 0.1205 (Simulation time: 03 hr 04 min 46 sec)
Simulation CPU 0 warning: IPC 0.027634 < 0.05
Simulation CPU 0 warning: IPC 0.030105 < 0.05
Simulation CPU 0 warning: IPC 0.027902 < 0.05
[ERROR_CYCLE] Error added at CPU cycle 1803413346, interval 7, pending count: 1
[DRAM_CYCLE_ERROR] Cycle-based error applied! address=0x1b68a00000 additional_latency=2459910500 cycles
Simulation CPU 0 panic: IPC 0.0003555 < 0.01
Simulation CPU 0 warning: IPC 0.029738 < 0.05
Simulation CPU 0 warning: IPC 0.030105 < 0.05
Heartbeat CPU 0 instructions: 220000046 cycles: 1834778898 heartbeat IPC: 0.109 cumulative IPC: 0.1199 (Simulation time: 03 hr 14 min 14 sec)
Simulation CPU 0 warning: IPC 0.030094 < 0.05
Simulation CPU 0 panic: IPC 0.0034614 < 0.01
Heartbeat CPU 0 instructions: 230000048 cycles: 1889204831 heartbeat IPC: 0.1837 cumulative IPC: 0.1217 (Simulation time: 03 hr 20 min 35 sec)
Simulation CPU 0 warning: IPC 0.027634 < 0.05
Simulation CPU 0 warning: IPC 0.030075 < 0.05
Simulation CPU 0 panic: IPC 0.0062872 < 0.01
Simulation CPU 0 warning: IPC 0.030096 < 0.05
Heartbeat CPU 0 instructions: 240000049 cycles: 1989436427 heartbeat IPC: 0.09977 cumulative IPC: 0.1206 (Simulation time: 03 hr 31 min 31 sec)
Simulation CPU 0 warning: IPC 0.030323 < 0.05
Simulation CPU 0 warning: IPC 0.030106 < 0.05
Simulation CPU 0 warning: IPC 0.021506 < 0.05
Heartbeat CPU 0 instructions: 250000050 cycles: 2034316769 heartbeat IPC: 0.2228 cumulative IPC: 0.1229 (Simulation time: 03 hr 36 min 08 sec)
Simulation CPU 0 warning: IPC 0.027624 < 0.05
[ERROR_CYCLE] Error added at CPU cycle 2061043825, interval 8, pending count: 1
[DRAM_CYCLE_ERROR] Cycle-based error applied! address=0x1aa4900000 additional_latency=2459910500 cycles
Simulation CPU 0 panic: IPC 0.0008289 < 0.01
Simulation CPU 0 warning: IPC 0.029277 < 0.05
Simulation CPU 0 warning: IPC 0.024322 < 0.05
Simulation CPU 0 warning: IPC 0.030105 < 0.05
Simulation CPU 0 warning: IPC 0.030075 < 0.05
Heartbeat CPU 0 instructions: 260000052 cycles: 2144711590 heartbeat IPC: 0.09058 cumulative IPC: 0.1212 (Simulation time: 03 hr 48 min 05 sec)
Simulation CPU 0 warning: IPC 0.029966 < 0.05
Heartbeat CPU 0 instructions: 270000054 cycles: 2180655658 heartbeat IPC: 0.2782 cumulative IPC: 0.1238 (Simulation time: 03 hr 52 min 05 sec)
Simulation CPU 0 panic: IPC 0.0026983 < 0.01
Simulation CPU 0 warning: IPC 0.030087 < 0.05
Simulation CPU 0 warning: IPC 0.030105 < 0.05
Heartbeat CPU 0 instructions: 280000055 cycles: 2271756120 heartbeat IPC: 0.1098 cumulative IPC: 0.1233 (Simulation time: 04 hr 01 min 29 sec)
Simulation CPU 0 warning: IPC 0.030321 < 0.05
Simulation CPU 0 warning: IPC 0.030105 < 0.05
Simulation CPU 0 critical: IPC 0.017917 < 0.02
[ERROR_CYCLE] Error added at CPU cycle 2318674302, interval 9, pending count: 1
[DRAM_CYCLE_ERROR] Cycle-based error applied! address=0x648a00240 additional_latency=2459910500 cycles
Simulation CPU 0 panic: IPC 0 < 0.01
Simulation CPU 0 warning: IPC 0.027613 < 0.05
Heartbeat CPU 0 instructions: 290000059 cycles: 2354194610 heartbeat IPC: 0.1213 cumulative IPC: 0.1232 (Simulation time: 04 hr 10 min 00 sec)
Simulation CPU 0 warning: IPC 0.030096 < 0.05
Simulation CPU 0 warning: IPC 0.020743 < 0.05
Simulation CPU 0 warning: IPC 0.030106 < 0.05
Simulation CPU 0 warning: IPC 0.030084 < 0.05
Heartbeat CPU 0 instructions: 300000062 cycles: 2426824708 heartbeat IPC: 0.1377 cumulative IPC: 0.1236 (Simulation time: 04 hr 17 min 50 sec)
Simulation CPU 0 warning: IPC 0.030342 < 0.05
Simulation CPU 0 warning: IPC 0.026377 < 0.05
Simulation CPU 0 panic: IPC 0.0037194 < 0.01
Simulation CPU 0 warning: IPC 0.027624 < 0.05
Simulation CPU 0 warning: IPC 0.029203 < 0.05
Simulation CPU 0 panic: IPC 0.0009026 < 0.01
Heartbeat CPU 0 instructions: 310000062 cycles: 2517866640 heartbeat IPC: 0.1098 cumulative IPC: 0.1231 (Simulation time: 04 hr 28 min 00 sec)
Simulation CPU 0 warning: IPC 0.030106 < 0.05
Simulation CPU 0 warning: IPC 0.030105 < 0.05
Heartbeat CPU 0 instructions: 320000065 cycles: 2562682755 heartbeat IPC: 0.2231 cumulative IPC: 0.1249 (Simulation time: 04 hr 33 min 26 sec)
[ERROR_CYCLE] Error added at CPU cycle 2576304781, interval 10, pending count: 1
[DRAM_CYCLE_ERROR] Cycle-based error applied! address=0x648a18ee0 additional_latency=2459910500 cycles
Simulation CPU 0 warning: IPC 0.030106 < 0.05
Simulation CPU 0 panic: IPC 0 < 0.01
Simulation CPU 0 critical: IPC 0.014327 < 0.02
Simulation CPU 0 warning: IPC 0.027613 < 0.05
Simulation CPU 0 warning: IPC 0.030096 < 0.05
Simulation CPU 0 critical: IPC 0.017153 < 0.02
Heartbeat CPU 0 instructions: 330000065 cycles: 2654296969 heartbeat IPC: 0.1092 cumulative IPC: 0.1243 (Simulation time: 04 hr 43 min 27 sec)
Simulation CPU 0 warning: IPC 0.030096 < 0.05
Simulation CPU 0 warning: IPC 0.030105 < 0.05
Heartbeat CPU 0 instructions: 340000066 cycles: 2717615667 heartbeat IPC: 0.1579 cumulative IPC: 0.1251 (Simulation time: 04 hr 49 min 36 sec)
Simulation CPU 0 warning: IPC 0.030323 < 0.05
Simulation CPU 0 warning: IPC 0.022807 < 0.05
Simulation CPU 0 panic: IPC 0.0072985 < 0.01
Simulation CPU 0 warning: IPC 0.027624 < 0.05
Simulation CPU 0 warning: IPC 0.025614 < 0.05
Simulation CPU 0 panic: IPC 0.0044916 < 0.01
Heartbeat CPU 0 instructions: 350000070 cycles: 2809160497 heartbeat IPC: 0.1092 cumulative IPC: 0.1246 (Simulation time: 04 hr 58 min 19 sec)
[ERROR_CYCLE] Error added at CPU cycle 2833935258, interval 11, pending count: 1
[DRAM_CYCLE_ERROR] Cycle-based error applied! address=0x648a31418 additional_latency=2459910500 cycles
Simulation CPU 0 warning: IPC 0.030094 < 0.05
Simulation CPU 0 panic: IPC 0 < 0.01
Simulation CPU 0 warning: IPC 0.047763 < 0.05
Heartbeat CPU 0 instructions: 360000070 cycles: 2873216669 heartbeat IPC: 0.1561 cumulative IPC: 0.1253 (Simulation time: 05 hr 04 min 01 sec)
Simulation CPU 0 warning: IPC 0.03032 < 0.05
Simulation CPU 0 warning: IPC 0.030096 < 0.05
Simulation CPU 0 critical: IPC 0.010758 < 0.02
Simulation CPU 0 warning: IPC 0.027603 < 0.05
Simulation CPU 0 warning: IPC 0.030106 < 0.05
Simulation CPU 0 critical: IPC 0.013564 < 0.02
Heartbeat CPU 0 instructions: 370000071 cycles: 2964278983 heartbeat IPC: 0.1098 cumulative IPC: 0.1248 (Simulation time: 05 hr 13 min 14 sec)
Simulation CPU 0 warning: IPC 0.030096 < 0.05
Simulation CPU 0 warning: IPC 0.030105 < 0.05
Heartbeat CPU 0 instructions: 380000075 cycles: 3018419439 heartbeat IPC: 0.1847 cumulative IPC: 0.1259 (Simulation time: 05 hr 19 min 16 sec)
Simulation CPU 0 warning: IPC 0.030105 < 0.05
Simulation CPU 0 warning: IPC 0.028793 < 0.05
Simulation CPU 0 panic: IPC 0 < 0.01
Simulation CPU 0 warning: IPC 0.027634 < 0.05
Simulation CPU 0 warning: IPC 0.022025 < 0.05
[ERROR_CYCLE] Error added at CPU cycle 3091565736, interval 12, pending count: 1
[DRAM_CYCLE_ERROR] Cycle-based error applied! address=0x2d6002e8 additional_latency=2459910500 cycles
Simulation CPU 0 panic: IPC 0 < 0.01
Simulation CPU 0 panic: IPC 0.0080615 < 0.01
Heartbeat CPU 0 instructions: 390000077 cycles: 3114743644 heartbeat IPC: 0.1038 cumulative IPC: 0.1252 (Simulation time: 05 hr 29 min 57 sec)
Simulation CPU 0 warning: IPC 0.030094 < 0.05
Simulation CPU 0 warning: IPC 0.030096 < 0.05
Simulation CPU 0 warning: IPC 0.030332 < 0.05
Simulation CPU 0 warning: IPC 0.030085 < 0.05
Simulation CPU 0 panic: IPC 0.0071684 < 0.01
Heartbeat CPU 0 instructions: 400000080 cycles: 3205932071 heartbeat IPC: 0.1097 cumulative IPC: 0.1248 (Simulation time: 05 hr 40 min 07 sec)
Simulation CPU 0 warning: IPC 0.027613 < 0.05
Simulation CPU 0 warning: IPC 0.030105 < 0.05
Simulation CPU 0 panic: IPC 0.0099852 < 0.01
Heartbeat CPU 0 instructions: 410000081 cycles: 3260131782 heartbeat IPC: 0.1845 cumulative IPC: 0.1258 (Simulation time: 05 hr 46 min 08 sec)
Simulation CPU 0 warning: IPC 0.030105 < 0.05
Simulation CPU 0 warning: IPC 0.025204 < 0.05
Heartbeat CPU 0 instructions: 420000081 cycles: 3342145471 heartbeat IPC: 0.1219 cumulative IPC: 0.1257 (Simulation time: 05 hr 55 min 51 sec)
[ERROR_CYCLE] Error added at CPU cycle 3349196215, interval 13, pending count: 1
[DRAM_CYCLE_ERROR] Cycle-based error applied! address=0x648a62278 additional_latency=2459910500 cycles
Simulation CPU 0 panic: IPC 0 < 0.01
Simulation CPU 0 warning: IPC 0.027624 < 0.05
Simulation CPU 0 warning: IPC 0.030096 < 0.05
Simulation CPU 0 warning: IPC 0.028029 < 0.05
Heartbeat CPU 0 instructions: 430000085 cycles: 3406218815 heartbeat IPC: 0.1561 cumulative IPC: 0.1262 (Simulation time: 06 hr 03 min 27 sec)
Simulation CPU 0 warning: IPC 0.030075 < 0.05
Simulation CPU 0 warning: IPC 0.030105 < 0.05
Simulation CPU 0 warning: IPC 0.030332 < 0.05
Simulation CPU 0 warning: IPC 0.030094 < 0.05
Simulation CPU 0 panic: IPC 0.0035796 < 0.01
Heartbeat CPU 0 instructions: 440000085 cycles: 3497329541 heartbeat IPC: 0.1098 cumulative IPC: 0.1258 (Simulation time: 06 hr 14 min 04 sec)
Simulation CPU 0 warning: IPC 0.027624 < 0.05
Simulation CPU 0 warning: IPC 0.030094 < 0.05
Simulation CPU 0 panic: IPC 0.0063962 < 0.01
Heartbeat CPU 0 instructions: 450000086 cycles: 3560632554 heartbeat IPC: 0.158 cumulative IPC: 0.1264 (Simulation time: 06 hr 21 min 01 sec)
[ERROR_CYCLE] Error added at CPU cycle 3606826692, interval 14, pending count: 1
[DRAM_CYCLE_ERROR] Cycle-based error applied! address=0x648a7b018 additional_latency=2459910500 cycles
Simulation CPU 0 panic: IPC 0 < 0.01
Simulation CPU 0 warning: IPC 0.030342 < 0.05
Simulation CPU 0 warning: IPC 0.030096 < 0.05
Simulation CPU 0 warning: IPC 0.021624 < 0.05
Heartbeat CPU 0 instructions: 460000087 cycles: 3652238564 heartbeat IPC: 0.1092 cumulative IPC: 0.126 (Simulation time: 06 hr 30 min 26 sec)
Simulation CPU 0 warning: IPC 0.027615 < 0.05
Simulation CPU 0 warning: IPC 0.030106 < 0.05
Simulation CPU 0 warning: IPC 0.024441 < 0.05
Heartbeat CPU 0 instructions: 470000088 cycles: 3715608074 heartbeat IPC: 0.1578 cumulative IPC: 0.1265 (Simulation time: 06 hr 36 min 50 sec)
Simulation CPU 0 warning: IPC 0.030096 < 0.05
Simulation CPU 0 warning: IPC 0.030093 < 0.05
Simulation CPU 0 warning: IPC 0.030084 < 0.05
Heartbeat CPU 0 instructions: 480000088 cycles: 3769754228 heartbeat IPC: 0.1847 cumulative IPC: 0.1273 (Simulation time: 06 hr 42 min 41 sec)
Simulation CPU 0 panic: IPC 0.0028165 < 0.01
Simulation CPU 0 warning: IPC 0.043407 < 0.05
Simulation CPU 0 warning: IPC 0.030105 < 0.05
[ERROR_CYCLE] Error added at CPU cycle 3864457171, interval 15, pending count: 1
[DRAM_CYCLE_ERROR] Cycle-based error applied! address=0x648a953d0 additional_latency=2459910500 cycles
Simulation CPU 0 warning: IPC 0.030096 < 0.05
Simulation CPU 0 critical: IPC 0.010334 < 0.02
Heartbeat CPU 0 instructions: 490000091 cycles: 3880235377 heartbeat IPC: 0.09051 cumulative IPC: 0.1263 (Simulation time: 06 hr 54 min 36 sec)
Simulation CPU 0 warning: IPC 0.03033 < 0.05
Simulation CPU 0 warning: IPC 0.030086 < 0.05
Simulation CPU 0 critical: IPC 0.018044 < 0.02
Heartbeat CPU 0 instructions: 500000092 cycles: 3934685476 heartbeat IPC: 0.1837 cumulative IPC: 0.1271 (Simulation time: 07 hr 00 min 59 sec)
Simulation CPU 0 warning: IPC 0.027613 < 0.05
Simulation CPU 0 warning: IPC 0.030105 < 0.05
Simulation CPU 0 warning: IPC 0.020851 < 0.05
Simulation CPU 0 warning: IPC 0.030106 < 0.05
Simulation CPU 0 warning: IPC 0.030093 < 0.05
Heartbeat CPU 0 instructions: 510000092 cycles: 4035088339 heartbeat IPC: 0.0996 cumulative IPC: 0.1264 (Simulation time: 07 hr 10 min 51 sec)
Simulation CPU 0 warning: IPC 0.030332 < 0.05
Simulation CPU 0 warning: IPC 0.026505 < 0.05
Simulation CPU 0 panic: IPC 0.0036006 < 0.01
Heartbeat CPU 0 instructions: 520000096 cycles: 4089287900 heartbeat IPC: 0.1845 cumulative IPC: 0.1272 (Simulation time: 07 hr 16 min 23 sec)
Simulation CPU 0 warning: IPC 0.027624 < 0.05
Simulation CPU 0 warning: IPC 0.029312 < 0.05
Simulation CPU 0 panic: IPC 0.0007846 < 0.01
[ERROR_CYCLE] Error added at CPU cycle 4122087648, interval 16, pending count: 1
[DRAM_CYCLE_ERROR] Cycle-based error applied! address=0x648aada08 additional_latency=2459910500 cycles
Simulation CPU 0 panic: IPC 0 < 0.01
Simulation CPU 0 warning: IPC 0.030096 < 0.05
Simulation CPU 0 warning: IPC 0.030105 < 0.05
Heartbeat CPU 0 instructions: 530000100 cycles: 4180896872 heartbeat IPC: 0.1092 cumulative IPC: 0.1268 (Simulation time: 07 hr 27 min 06 sec)
Simulation CPU 0 warning: IPC 0.030106 < 0.05
Simulation CPU 0 critical: IPC 0.014456 < 0.02
Simulation CPU 0 panic: IPC 0.0043697 < 0.01
Heartbeat CPU 0 instructions: 540000100 cycles: 4244338059 heartbeat IPC: 0.1576 cumulative IPC: 0.1272 (Simulation time: 07 hr 33 min 56 sec)
Simulation CPU 0 warning: IPC 0.027622 < 0.05
Simulation CPU 0 warning: IPC 0.030106 < 0.05
Simulation CPU 0 critical: IPC 0.017262 < 0.02
Simulation CPU 0 warning: IPC 0.030105 < 0.05
Simulation CPU 0 warning: IPC 0.030096 < 0.05
Heartbeat CPU 0 instructions: 550000103 cycles: 4326083790 heartbeat IPC: 0.1223 cumulative IPC: 0.1271 (Simulation time: 07 hr 43 min 08 sec)
Simulation CPU 0 warning: IPC 0.030332 < 0.05
Simulation CPU 0 warning: IPC 0.022916 < 0.05
Simulation CPU 0 panic: IPC 0.0071803 < 0.01
[ERROR_CYCLE] Error added at CPU cycle 4379718127, interval 17, pending count: 1
[DRAM_CYCLE_ERROR] Cycle-based error applied! address=0x386708580 additional_latency=2459910500 cycles
Simulation CPU 0 panic: IPC 0.0001247 < 0.01
Simulation CPU 0 warning: IPC 0.027615 < 0.05
Simulation CPU 0 warning: IPC 0.025742 < 0.05
Simulation CPU 0 panic: IPC 0.0043637 < 0.01
Heartbeat CPU 0 instructions: 560000106 cycles: 4427159931 heartbeat IPC: 0.09894 cumulative IPC: 0.1265 (Simulation time: 07 hr 55 min 02 sec)
Simulation CPU 0 warning: IPC 0.049018 < 0.05
Heartbeat CPU 0 instructions: 570000107 cycles: 4481188146 heartbeat IPC: 0.1851 cumulative IPC: 0.1272 (Simulation time: 08 hr 00 min 54 sec)
Simulation CPU 0 warning: IPC 0.030311 < 0.05
Simulation CPU 0 warning: IPC 0.030105 < 0.05
Simulation CPU 0 critical: IPC 0.010866 < 0.02
Simulation CPU 0 warning: IPC 0.027613 < 0.05
Simulation CPU 0 warning: IPC 0.030096 < 0.05
Simulation CPU 0 critical: IPC 0.013692 < 0.02
Heartbeat CPU 0 instructions: 580000111 cycles: 4572159718 heartbeat IPC: 0.1099 cumulative IPC: 0.1269 (Simulation time: 08 hr 10 min 24 sec)
Simulation CPU 0 warning: IPC 0.030106 < 0.05
Simulation CPU 0 warning: IPC 0.030086 < 0.05
Heartbeat CPU 0 instructions: 590000112 cycles: 4617101515 heartbeat IPC: 0.2225 cumulative IPC: 0.1278 (Simulation time: 08 hr 15 min 45 sec)
Simulation CPU 0 critical: IPC 0.01933 < 0.02
[ERROR_CYCLE] Error added at CPU cycle 4637348604, interval 18, pending count: 1
Simulation CPU 0 critical: IPC 0.010773 < 0.02
[DRAM_CYCLE_ERROR] Cycle-based error applied! address=0x648adff50 additional_latency=2459910500 cycles
Simulation CPU 0 panic: IPC 0 < 0.01
Simulation CPU 0 warning: IPC 0.028911 < 0.05
Simulation CPU 0 warning: IPC 0.027624 < 0.05
Simulation CPU 0 warning: IPC 0.022153 < 0.05
Simulation CPU 0 panic: IPC 0.0079527 < 0.01
Heartbeat CPU 0 instructions: 600000113 cycles: 4718043497 heartbeat IPC: 0.09907 cumulative IPC: 0.1272 (Simulation time: 08 hr 26 min 05 sec)
Heartbeat CPU 0 instructions: 610000117 cycles: 4772234780 heartbeat IPC: 0.1845 cumulative IPC: 0.1278 (Simulation time: 08 hr 31 min 53 sec)
Simulation CPU 0 warning: IPC 0.030342 < 0.05
Simulation CPU 0 warning: IPC 0.030094 < 0.05
Simulation CPU 0 panic: IPC 0.0072774 < 0.01
Simulation CPU 0 warning: IPC 0.027613 < 0.05
Simulation CPU 0 warning: IPC 0.030096 < 0.05
Simulation CPU 0 critical: IPC 0.010103 < 0.02
Heartbeat CPU 0 instructions: 620000120 cycles: 4863439120 heartbeat IPC: 0.1096 cumulative IPC: 0.1275 (Simulation time: 08 hr 41 min 25 sec)
Simulation CPU 0 warning: IPC 0.030096 < 0.05
[ERROR_CYCLE] Error added at CPU cycle 4894979082, interval 19, pending count: 1
[DRAM_CYCLE_ERROR] Cycle-based error applied! address=0x648af7408 additional_latency=2459910500 cycles
Simulation CPU 0 warning: IPC 0.030105 < 0.05
Simulation CPU 0 panic: IPC 0 < 0.01
Heartbeat CPU 0 instructions: 630000120 cycles: 4927478545 heartbeat IPC: 0.1562 cumulative IPC: 0.1279 (Simulation time: 08 hr 47 min 26 sec)
Simulation CPU 0 warning: IPC 0.030106 < 0.05
Simulation CPU 0 warning: IPC 0.025322 < 0.05
Simulation CPU 0 warning: IPC 0.027624 < 0.05
Simulation CPU 0 warning: IPC 0.030105 < 0.05
Simulation CPU 0 warning: IPC 0.028138 < 0.05
Heartbeat CPU 0 instructions: 640000121 cycles: 5009208100 heartbeat IPC: 0.1224 cumulative IPC: 0.1278 (Simulation time: 08 hr 55 min 25 sec)
Simulation CPU 0 warning: IPC 0.030094 < 0.05
Simulation CPU 0 warning: IPC 0.040562 < 0.05
Simulation CPU 0 warning: IPC 0.030342 < 0.05
Simulation CPU 0 warning: IPC 0.030075 < 0.05
Simulation CPU 0 panic: IPC 0.0037075 < 0.01
Heartbeat CPU 0 instructions: 650000122 cycles: 5100322609 heartbeat IPC: 0.1098 cumulative IPC: 0.1274 (Simulation time: 09 hr 05 min 20 sec)
Simulation CPU 0 warning: IPC 0.027615 < 0.05
Simulation CPU 0 warning: IPC 0.030094 < 0.05
Simulation CPU 0 panic: IPC 0.0065143 < 0.01
[ERROR_CYCLE] Error added at CPU cycle 5152609561, interval 20, pending count: 1
[DRAM_CYCLE_ERROR] Cycle-based error applied! address=0x1ccbd96f40 additional_latency=2459910500 cycles
Heartbeat CPU 0 instructions: 660000123 cycles: 5154598613 heartbeat IPC: 0.1842 cumulative IPC: 0.128 (Simulation time: 09 hr 11 min 17 sec)
Simulation CPU 0 warning: IPC 0.030096 < 0.05
Simulation CPU 0 warning: IPC 0.030105 < 0.05
Simulation CPU 0 warning: IPC 0.030323 < 0.05
Simulation CPU 0 warning: IPC 0.030105 < 0.05
Simulation CPU 0 warning: IPC 0.021742 < 0.05
Heartbeat CPU 0 instructions: 670000127 cycles: 5245777340 heartbeat IPC: 0.1097 cumulative IPC: 0.1277 (Simulation time: 09 hr 21 min 55 sec)
Simulation CPU 0 warning: IPC 0.027624 < 0.05
Simulation CPU 0 warning: IPC 0.030096 < 0.05
Simulation CPU 0 warning: IPC 0.024559 < 0.05
Heartbeat CPU 0 instructions: 680000128 cycles: 5299895281 heartbeat IPC: 0.1848 cumulative IPC: 0.1283 (Simulation time: 09 hr 27 min 41 sec)
Simulation CPU 0 warning: IPC 0.044442 < 0.05
Simulation CPU 0 warning: IPC 0.030085 < 0.05
Simulation CPU 0 panic: IPC 0.0001182 < 0.01
Heartbeat CPU 0 instructions: 690000131 cycles: 5372488151 heartbeat IPC: 0.1378 cumulative IPC: 0.1284 (Simulation time: 09 hr 34 min 57 sec)
Simulation CPU 0 warning: IPC 0.027634 < 0.05
Simulation CPU 0 warning: IPC 0.030094 < 0.05
[ERROR_CYCLE] Error added at CPU cycle 5410240038, interval 21, pending count: 1
[DRAM_CYCLE_ERROR] Cycle-based error applied! address=0x14a0300000 additional_latency=2459910500 cycles
Simulation CPU 0 panic: IPC 6.4e-06 < 0.01
Simulation CPU 0 panic: IPC 0.0029188 < 0.01
Heartbeat CPU 0 instructions: 700000133 cycles: 5445881431 heartbeat IPC: 0.1363 cumulative IPC: 0.1285 (Simulation time: 09 hr 43 min 25 sec)
Simulation CPU 0 warning: IPC 0.030106 < 0.05
Simulation CPU 0 warning: IPC 0.030105 < 0.05
Simulation CPU 0 warning: IPC 0.03032 < 0.05
Simulation CPU 0 panic: IPC 0 < 0.01
Simulation CPU 0 warning: IPC 0.030105 < 0.05
Simulation CPU 0 critical: IPC 0.018153 < 0.02
Heartbeat CPU 0 instructions: 710000134 cycles: 5541934716 heartbeat IPC: 0.1041 cumulative IPC: 0.1281 (Simulation time: 09 hr 55 min 07 sec)
Simulation CPU 0 warning: IPC 0.027623 < 0.05
Simulation CPU 0 warning: IPC 0.030086 < 0.05
Simulation CPU 0 warning: IPC 0.020979 < 0.05
Heartbeat CPU 0 instructions: 720000138 cycles: 5605328407 heartbeat IPC: 0.1577 cumulative IPC: 0.1284 (Simulation time: 10 hr 02 min 28 sec)
Simulation CPU 0 warning: IPC 0.030096 < 0.05
Simulation CPU 0 warning: IPC 0.030094 < 0.05
Simulation CPU 0 warning: IPC 0.030323 < 0.05
[ERROR_CYCLE] Error added at CPU cycle 5667870517, interval 22, pending count: 1
Simulation CPU 0 warning: IPC 0.026623 < 0.05
[DRAM_CYCLE_ERROR] Cycle-based error applied! address=0x18b7e42f08 additional_latency=2459910500 cycles
Simulation CPU 0 panic: IPC 0 < 0.01
Simulation CPU 0 panic: IPC 0.0034824 < 0.01
Heartbeat CPU 0 instructions: 730000140 cycles: 5697244188 heartbeat IPC: 0.1088 cumulative IPC: 0.1281 (Simulation time: 10 hr 13 min 07 sec)
Simulation CPU 0 warning: IPC 0.027624 < 0.05
Simulation CPU 0 warning: IPC 0.02944 < 0.05
Simulation CPU 0 panic: IPC 0.0006658 < 0.01
Simulation CPU 0 warning: IPC 0.046134 < 0.05
Heartbeat CPU 0 instructions: 740000140 cycles: 5770095395 heartbeat IPC: 0.1373 cumulative IPC: 0.1282 (Simulation time: 10 hr 20 min 24 sec)
Simulation CPU 0 warning: IPC 0.030096 < 0.05
Simulation CPU 0 critical: IPC 0.014574 < 0.02
Heartbeat CPU 0 instructions: 750000144 cycles: 5833615746 heartbeat IPC: 0.1574 cumulative IPC: 0.1286 (Simulation time: 10 hr 27 min 28 sec)
Simulation CPU 0 warning: IPC 0.027603 < 0.05
Simulation CPU 0 warning: IPC 0.030106 < 0.05
Simulation CPU 0 critical: IPC 0.01739 < 0.02
Simulation CPU 0 warning: IPC 0.030087 < 0.05
Simulation CPU 0 warning: IPC 0.030105 < 0.05
[ERROR_CYCLE] Error added at CPU cycle 5925500994, interval 23, pending count: 1
[DRAM_CYCLE_ERROR] Cycle-based error applied! address=0x18b7e5b600 additional_latency=2459910500 cycles
Simulation CPU 0 panic: IPC 0 < 0.01
Heartbeat CPU 0 instructions: 760000145 cycles: 5943800160 heartbeat IPC: 0.09076 cumulative IPC: 0.1279 (Simulation time: 10 hr 39 min 03 sec)
Simulation CPU 0 warning: IPC 0.030333 < 0.05
Simulation CPU 0 warning: IPC 0.023034 < 0.05
Simulation CPU 0 panic: IPC 0.0070716 < 0.01
Heartbeat CPU 0 instructions: 770000145 cycles: 5989114150 heartbeat IPC: 0.2207 cumulative IPC: 0.1286 (Simulation time: 10 hr 43 min 28 sec)
Simulation CPU 0 warning: IPC 0.027624 < 0.05
Simulation CPU 0 warning: IPC 0.025851 < 0.05
Simulation CPU 0 panic: IPC 0.0042455 < 0.01
Heartbeat CPU 0 instructions: 780000147 cycles: 6089517803 heartbeat IPC: 0.0996 cumulative IPC: 0.1281 (Simulation time: 10 hr 55 min 17 sec)
Simulation CPU 0 warning: IPC 0.030096 < 0.05
Simulation CPU 0 critical: IPC 0.010984 < 0.02
Heartbeat CPU 0 instructions: 790000148 cycles: 6134451953 heartbeat IPC: 0.2225 cumulative IPC: 0.1288 (Simulation time: 11 hr 00 min 40 sec)
Simulation CPU 0 warning: IPC 0.027613 < 0.05
Simulation CPU 0 warning: IPC 0.030105 < 0.05
Simulation CPU 0 critical: IPC 0.013801 < 0.02
[ERROR_CYCLE] Error added at CPU cycle 6183131472, interval 24, pending count: 1
[DRAM_CYCLE_ERROR] Cycle-based error applied! address=0x176c600000 additional_latency=2459910500 cycles
Simulation CPU 0 warning: IPC 0.030106 < 0.05
Simulation CPU 0 warning: IPC 0.030105 < 0.05
Heartbeat CPU 0 instructions: 800000150 cycles: 6225604739 heartbeat IPC: 0.1097 cumulative IPC: 0.1285 (Simulation time: 11 hr 11 min 49 sec)
Simulation CPU 0 warning: IPC 0.030342 < 0.05
Simulation CPU 0 warning: IPC 0.030106 < 0.05
Simulation CPU 0 warning: IPC 0.029019 < 0.05
Simulation CPU 0 warning: IPC 0.027624 < 0.05
Heartbeat CPU 0 instructions: 810000153 cycles: 6298355119 heartbeat IPC: 0.1375 cumulative IPC: 0.1286 (Simulation time: 11 hr 19 min 51 sec)
Simulation CPU 0 warning: IPC 0.022262 < 0.05
Simulation CPU 0 panic: IPC 0.0078348 < 0.01
Simulation CPU 0 warning: IPC 0.030084 < 0.05
Heartbeat CPU 0 instructions: 820000156 cycles: 6371135890 heartbeat IPC: 0.1374 cumulative IPC: 0.1287 (Simulation time: 11 hr 27 min 31 sec)
Simulation CPU 0 warning: IPC 0.030323 < 0.05
Simulation CPU 0 warning: IPC 0.030094 < 0.05
Simulation CPU 0 panic: IPC 0.0074054 < 0.01
Simulation CPU 0 warning: IPC 0.027613 < 0.05
[ERROR_CYCLE] Error added at CPU cycle 6440761951, interval 25, pending count: 1
[DRAM_CYCLE_ERROR] Cycle-based error applied! address=0x1663900000 additional_latency=2459910500 cycles
Simulation CPU 0 panic: IPC 0.0001253 < 0.01
Simulation CPU 0 warning: IPC 0.02998 < 0.05
Simulation CPU 0 critical: IPC 0.010212 < 0.02
Heartbeat CPU 0 instructions: 830000157 cycles: 6472091532 heartbeat IPC: 0.09905 cumulative IPC: 0.1282 (Simulation time: 11 hr 38 min 13 sec)
Simulation CPU 0 warning: IPC 0.030105 < 0.05
Simulation CPU 0 warning: IPC 0.030096 < 0.05
Heartbeat CPU 0 instructions: 840000159 cycles: 6516967704 heartbeat IPC: 0.2228 cumulative IPC: 0.1289 (Simulation time: 11 hr 42 min 45 sec)
Simulation CPU 0 warning: IPC 0.030096 < 0.05
Simulation CPU 0 warning: IPC 0.02545 < 0.05
Simulation CPU 0 warning: IPC 0.030106 < 0.05
Simulation CPU 0 warning: IPC 0.028256 < 0.05
Heartbeat CPU 0 instructions: 850000162 cycles: 6598718166 heartbeat IPC: 0.1223 cumulative IPC: 0.1288 (Simulation time: 11 hr 52 min 32 sec)
Heartbeat CPU 0 instructions: 860000162 cycles: 6662090326 heartbeat IPC: 0.1578 cumulative IPC: 0.1291 (Simulation time: 11 hr 59 min 35 sec)
Simulation CPU 0 warning: IPC 0.030323 < 0.05
Simulation CPU 0 warning: IPC 0.030094 < 0.05
[ERROR_CYCLE] Error added at CPU cycle 6698392428, interval 26, pending count: 1
Simulation CPU 0 panic: IPC 0.0038162 < 0.01
[DRAM_CYCLE_ERROR] Cycle-based error applied! address=0x17d5801c28 additional_latency=2459910500 cycles
Simulation CPU 0 panic: IPC 0 < 0.01
Simulation CPU 0 warning: IPC 0.027634 < 0.05
Simulation CPU 0 warning: IPC 0.030075 < 0.05
Simulation CPU 0 panic: IPC 0.0066423 < 0.01
Heartbeat CPU 0 instructions: 870000163 cycles: 6762945192 heartbeat IPC: 0.09915 cumulative IPC: 0.1286 (Simulation time: 12 hr 09 min 37 sec)
Simulation CPU 0 warning: IPC 0.030105 < 0.05
Simulation CPU 0 warning: IPC 0.030096 < 0.05
Heartbeat CPU 0 instructions: 880000164 cycles: 6817064220 heartbeat IPC: 0.1848 cumulative IPC: 0.1291 (Simulation time: 12 hr 15 min 37 sec)
Simulation CPU 0 warning: IPC 0.030332 < 0.05
Simulation CPU 0 warning: IPC 0.030096 < 0.05
Simulation CPU 0 warning: IPC 0.02186 < 0.05
Simulation CPU 0 warning: IPC 0.027624 < 0.05
Simulation CPU 0 warning: IPC 0.030105 < 0.05
Simulation CPU 0 warning: IPC 0.024677 < 0.05
Heartbeat CPU 0 instructions: 890000167 cycles: 6908195233 heartbeat IPC: 0.1097 cumulative IPC: 0.1288 (Simulation time: 12 hr 25 min 36 sec)
Simulation CPU 0 warning: IPC 0.040666 < 0.05
[ERROR_CYCLE] Error added at CPU cycle 6956022907, interval 27, pending count: 1
[DRAM_CYCLE_ERROR] Cycle-based error applied! address=0x18b7ebd050 additional_latency=2459910500 cycles
Simulation CPU 0 panic: IPC 0 < 0.01
Heartbeat CPU 0 instructions: 900000167 cycles: 6972405572 heartbeat IPC: 0.1557 cumulative IPC: 0.1291 (Simulation time: 12 hr 33 min 03 sec)
Simulation CPU 0 warning: IPC 0.030094 < 0.05
Simulation CPU 0 panic: IPC 0.0002272 < 0.01
Simulation CPU 0 warning: IPC 0.027624 < 0.05
Simulation CPU 0 warning: IPC 0.030085 < 0.05
Simulation CPU 0 panic: IPC 0.003053 < 0.01
Heartbeat CPU 0 instructions: 910000170 cycles: 7054291411 heartbeat IPC: 0.1221 cumulative IPC: 0.129 (Simulation time: 12 hr 41 min 46 sec)
Simulation CPU 0 warning: IPC 0.030086 < 0.05
Simulation CPU 0 warning: IPC 0.030105 < 0.05
Simulation CPU 0 warning: IPC 0.030321 < 0.05
Simulation CPU 0 warning: IPC 0.030106 < 0.05
Simulation CPU 0 critical: IPC 0.018271 < 0.02
Heartbeat CPU 0 instructions: 920000172 cycles: 7145475110 heartbeat IPC: 0.1097 cumulative IPC: 0.1288 (Simulation time: 12 hr 52 min 27 sec)
Simulation CPU 0 warning: IPC 0.027613 < 0.05
Simulation CPU 0 warning: IPC 0.030106 < 0.05
Simulation CPU 0 warning: IPC 0.021088 < 0.05
Heartbeat CPU 0 instructions: 930000172 cycles: 7199761359 heartbeat IPC: 0.1842 cumulative IPC: 0.1292 (Simulation time: 12 hr 58 min 51 sec)
[ERROR_CYCLE] Error added at CPU cycle 7213653384, interval 28, pending count: 1
[DRAM_CYCLE_ERROR] Cycle-based error applied! address=0x18b7ed6588 additional_latency=2459910500 cycles
Simulation CPU 0 warning: IPC 0.030105 < 0.05
Simulation CPU 0 warning: IPC 0.030084 < 0.05
Simulation CPU 0 warning: IPC 0.026732 < 0.05
Simulation CPU 0 panic: IPC 0.0033643 < 0.01
Heartbeat CPU 0 instructions: 940000173 cycles: 7291411062 heartbeat IPC: 0.1091 cumulative IPC: 0.1289 (Simulation time: 13 hr 09 min 09 sec)
Simulation CPU 0 warning: IPC 0.027615 < 0.05
Simulation CPU 0 warning: IPC 0.029558 < 0.05
Simulation CPU 0 panic: IPC 0.0005477 < 0.01
Heartbeat CPU 0 instructions: 950000174 cycles: 7345469739 heartbeat IPC: 0.185 cumulative IPC: 0.1293 (Simulation time: 13 hr 14 min 41 sec)
Simulation CPU 0 warning: IPC 0.030096 < 0.05
Simulation CPU 0 warning: IPC 0.030105 < 0.05
Simulation CPU 0 warning: IPC 0.030321 < 0.05
Simulation CPU 0 warning: IPC 0.030105 < 0.05
Simulation CPU 0 critical: IPC 0.014682 < 0.02
Heartbeat CPU 0 instructions: 960000177 cycles: 7436521692 heartbeat IPC: 0.1098 cumulative IPC: 0.1291 (Simulation time: 13 hr 25 min 19 sec)
Simulation CPU 0 warning: IPC 0.027612 < 0.05
Simulation CPU 0 warning: IPC 0.030096 < 0.05
[ERROR_CYCLE] Error added at CPU cycle 7471283862, interval 29, pending count: 1
[DRAM_CYCLE_ERROR] Cycle-based error applied! address=0x18b7eefac0 additional_latency=2459910500 cycles
Simulation CPU 0 panic: IPC 0 < 0.01
Simulation CPU 0 critical: IPC 0.017508 < 0.02
Heartbeat CPU 0 instructions: 970000177 cycles: 7509722278 heartbeat IPC: 0.1366 cumulative IPC: 0.1292 (Simulation time: 13 hr 33 min 15 sec)
Simulation CPU 0 warning: IPC 0.030096 < 0.05
Simulation CPU 0 warning: IPC 0.030342 < 0.05
Simulation CPU 0 warning: IPC 0.023142 < 0.05
Heartbeat CPU 0 instructions: 980000178 cycles: 7591604905 heartbeat IPC: 0.1221 cumulative IPC: 0.1291 (Simulation time: 13 hr 42 min 00 sec)
Simulation CPU 0 warning: IPC 0.027624 < 0.05
Simulation CPU 0 warning: IPC 0.025969 < 0.05
Simulation CPU 0 panic: IPC 0.0041368 < 0.01
Heartbeat CPU 0 instructions: 990000178 cycles: 7654962139 heartbeat IPC: 0.1578 cumulative IPC: 0.1293 (Simulation time: 13 hr 48 min 58 sec)
Simulation CPU 0 warning: IPC 0.030094 < 0.05
Simulation CPU 0 warning: IPC 0.030104 < 0.05
Simulation CPU 0 warning: IPC 0.030105 < 0.05
Simulation CPU 0 critical: IPC 0.011103 < 0.02
Heartbeat CPU 0 instructions: 1000000180 cycles: 7718315254 heartbeat IPC: 0.1578 cumulative IPC: 0.1296 (Simulation time: 13 hr 56 min 22 sec)
[ERROR_CYCLE] Error added at CPU cycle 7728914340, interval 30, pending count: 1
[DRAM_CYCLE_ERROR] Cycle-based error applied! address=0x1c509d61c0 additional_latency=2459910500 cycles
Simulation CPU 0 warning: IPC 0.027613 < 0.05
Simulation CPU 0 warning: IPC 0.030096 < 0.05
Simulation CPU 0 critical: IPC 0.013919 < 0.02
Simulation CPU 0 warning: IPC 0.030105 < 0.05
Heartbeat CPU 0 instructions: 1010000180 cycles: 7818580451 heartbeat IPC: 0.09974 cumulative IPC: 0.1292 (Simulation time: 14 hr 07 min 23 sec)
Simulation CPU 0 warning: IPC 0.030323 < 0.05
Simulation CPU 0 warning: IPC 0.030106 < 0.05
Simulation CPU 0 warning: IPC 0.029147 < 0.05
Heartbeat CPU 0 instructions: 1020000183 cycles: 7877276674 heartbeat IPC: 0.1704 cumulative IPC: 0.1295 (Simulation time: 14 hr 13 min 52 sec)
Simulation CPU 0 warning: IPC 0.027634 < 0.05
Simulation CPU 0 warning: IPC 0.02238 < 0.05
Simulation CPU 0 panic: IPC 0.0077261 < 0.01
Simulation CPU 0 warning: IPC 0.030094 < 0.05
Simulation CPU 0 warning: IPC 0.030096 < 0.05
Heartbeat CPU 0 instructions: 1030000184 cycles: 7977516666 heartbeat IPC: 0.09976 cumulative IPC: 0.1291 (Simulation time: 14 hr 23 min 18 sec)
[ERROR_CYCLE] Error added at CPU cycle 7986544818, interval 31, pending count: 1
[DRAM_CYCLE_ERROR] Cycle-based error applied! address=0x7eea00000 additional_latency=2459910500 cycles
Simulation CPU 0 panic: IPC 0 < 0.01
Simulation CPU 0 panic: IPC 0.0075235 < 0.01
Heartbeat CPU 0 instructions: 1040000185 cycles: 8032430437 heartbeat IPC: 0.1821 cumulative IPC: 0.1295 (Simulation time: 14 hr 28 min 32 sec)
Simulation CPU 0 warning: IPC 0.027603 < 0.05
Simulation CPU 0 warning: IPC 0.030106 < 0.05
Simulation CPU 0 warning: IPC 0.045219 < 0.05
Simulation CPU 0 warning: IPC 0.030096 < 0.05
Simulation CPU 0 warning: IPC 0.030105 < 0.05
Heartbeat CPU 0 instructions: 1050000186 cycles: 8123475388 heartbeat IPC: 0.1098 cumulative IPC: 0.1293 (Simulation time: 14 hr 39 min 11 sec)
Simulation CPU 0 warning: IPC 0.030105 < 0.05
Simulation CPU 0 warning: IPC 0.025558 < 0.05
Simulation CPU 0 warning: IPC 0.02997 < 0.05
Simulation CPU 0 critical: IPC 0.018592 < 0.02
Simulation CPU 0 critical: IPC 0.014343 < 0.02
Heartbeat CPU 0 instructions: 1060000190 cycles: 8196022654 heartbeat IPC: 0.1378 cumulative IPC: 0.1293 (Simulation time: 14 hr 47 min 09 sec)
Simulation CPU 0 warning: IPC 0.027624 < 0.05
Simulation CPU 0 warning: IPC 0.030096 < 0.05
Simulation CPU 0 warning: IPC 0.028385 < 0.05
[ERROR_CYCLE] Error added at CPU cycle 8244175297, interval 32, pending count: 1
[DRAM_CYCLE_ERROR] Cycle-based error applied! address=0x5feb00000 additional_latency=2459910500 cycles
Simulation CPU 0 panic: IPC 0.0003547 < 0.01
Simulation CPU 0 warning: IPC 0.029739 < 0.05
Simulation CPU 0 warning: IPC 0.030086 < 0.05
Heartbeat CPU 0 instructions: 1070000194 cycles: 8288097912 heartbeat IPC: 0.1086 cumulative IPC: 0.1291 (Simulation time: 14 hr 55 min 21 sec)
Simulation CPU 0 warning: IPC 0.030085 < 0.05
Simulation CPU 0 panic: IPC 0.0039342 < 0.01
Simulation CPU 0 warning: IPC 0.027624 < 0.05
Simulation CPU 0 warning: IPC 0.030094 < 0.05
Heartbeat CPU 0 instructions: 1080000194 cycles: 8379547938 heartbeat IPC: 0.1093 cumulative IPC: 0.1289 (Simulation time: 15 hr 04 min 09 sec)
Simulation CPU 0 warning: IPC 0.030106 < 0.05
Simulation CPU 0 warning: IPC 0.030105 < 0.05
Heartbeat CPU 0 instructions: 1090000194 cycles: 8433761246 heartbeat IPC: 0.1845 cumulative IPC: 0.1292 (Simulation time: 15 hr 10 min 38 sec)
Simulation CPU 0 warning: IPC 0.030105 < 0.05
Simulation CPU 0 warning: IPC 0.021969 < 0.05
Simulation CPU 0 warning: IPC 0.027624 < 0.05
Simulation CPU 0 warning: IPC 0.030096 < 0.05
[ERROR_CYCLE] Error added at CPU cycle 8501805774, interval 33, pending count: 1
[DRAM_CYCLE_ERROR] Cycle-based error applied! address=0x48ae00000 additional_latency=2459910500 cycles
Simulation CPU 0 panic: IPC 0.0009461 < 0.01
Simulation CPU 0 warning: IPC 0.023849 < 0.05
Heartbeat CPU 0 instructions: 1100000194 cycles: 8525686667 heartbeat IPC: 0.1088 cumulative IPC: 0.129 (Simulation time: 15 hr 18 min 47 sec)
Simulation CPU 0 warning: IPC 0.037809 < 0.05
Simulation CPU 0 warning: IPC 0.030094 < 0.05
Heartbeat CPU 0 instructions: 1110000196 cycles: 8570719882 heartbeat IPC: 0.2221 cumulative IPC: 0.1295 (Simulation time: 15 hr 23 min 48 sec)
Simulation CPU 0 panic: IPC 0.0092442 < 0.01
Simulation CPU 0 warning: IPC 0.030094 < 0.05
Simulation CPU 0 warning: IPC 0.027624 < 0.05
Simulation CPU 0 warning: IPC 0.030094 < 0.05
Simulation CPU 0 panic: IPC 0.003162 < 0.01
Heartbeat CPU 0 instructions: 1120000200 cycles: 8662187174 heartbeat IPC: 0.1093 cumulative IPC: 0.1293 (Simulation time: 15 hr 32 min 46 sec)
Simulation CPU 0 warning: IPC 0.030105 < 0.05
Simulation CPU 0 warning: IPC 0.030096 < 0.05
Heartbeat CPU 0 instructions: 1130000200 cycles: 8716674669 heartbeat IPC: 0.1835 cumulative IPC: 0.1296 (Simulation time: 15 hr 37 min 24 sec)
Simulation CPU 0 warning: IPC 0.03033 < 0.05
Simulation CPU 0 warning: IPC 0.030086 < 0.05
Simulation CPU 0 critical: IPC 0.018399 < 0.02
[ERROR_CYCLE] Error added at CPU cycle 8759436253, interval 34, pending count: 1
[DRAM_CYCLE_ERROR] Cycle-based error applied! address=0x1ae06b3a0 additional_latency=2459910500 cycles
Simulation CPU 0 panic: IPC 0 < 0.01
Simulation CPU 0 warning: IPC 0.027603 < 0.05
Simulation CPU 0 warning: IPC 0.030106 < 0.05
Simulation CPU 0 warning: IPC 0.021206 < 0.05
Heartbeat CPU 0 instructions: 1140000204 cycles: 8817961604 heartbeat IPC: 0.09873 cumulative IPC: 0.1293 (Simulation time: 15 hr 46 min 46 sec)
Simulation CPU 0 warning: IPC 0.032805 < 0.05
Heartbeat CPU 0 instructions: 1150000204 cycles: 8872561436 heartbeat IPC: 0.1832 cumulative IPC: 0.1296 (Simulation time: 15 hr 51 min 58 sec)
Simulation CPU 0 warning: IPC 0.02686 < 0.05
Simulation CPU 0 panic: IPC 0.0032458 < 0.01
Simulation CPU 0 warning: IPC 0.027624 < 0.05
Simulation CPU 0 warning: IPC 0.029667 < 0.05
Sim