[VMEM] WARNING: physical memory size is smaller than virtual memory size.

*** ChampSim Multicore Out-of-Order Simulator ***
Warmup Instructions: 0
Simulation Instructions: 9223372036854775807
Number of CPUs: 1
Page size: 2097152

Off-chip DRAM Size: 32 GiB Channels: 2 Width: 32-bit Data Rate: 4807 MT/s
[ERROR_PAGE_MANAGER] Error latency: 1990500 
[ERROR_PAGE_MANAGER] Random seed: 54321 (fixed for preload reproducibility)
[ERROR_PAGE_MANAGER] Cycle-based error modeling enabled
[ERROR_PAGE_MANAGER] Errors per interval: 1
[ERROR_PAGE_MANAGER] Error cycle interval: 705324015 cycles

=== ERROR PAGE STATISTICS ===
Mode: CYCLE
Error Cycle Interval: 705324015 CPU cycles
Total Error Accesses: 0
==============================
Warmup finished CPU 0 instructions: 0 cycles: 1 cumulative IPC: 0 (Simulation time: 00 hr 00 min 00 sec)
Warmup complete CPU 0 instructions: 0 cycles: 1 cumulative IPC: 0 (Simulation time: 00 hr 00 min 00 sec)
Heartbeat CPU 0 instructions: 10000002 cycles: 25834124 heartbeat IPC: 0.3871 cumulative IPC: 0.3871 (Simulation time: 00 hr 02 min 38 sec)
Heartbeat CPU 0 instructions: 20000002 cycles: 51497107 heartbeat IPC: 0.3897 cumulative IPC: 0.3884 (Simulation time: 00 hr 05 min 15 sec)
Heartbeat CPU 0 instructions: 30000004 cycles: 77133567 heartbeat IPC: 0.3901 cumulative IPC: 0.3889 (Simulation time: 00 hr 07 min 53 sec)
Heartbeat CPU 0 instructions: 40000005 cycles: 102852925 heartbeat IPC: 0.3888 cumulative IPC: 0.3889 (Simulation time: 00 hr 10 min 30 sec)
Heartbeat CPU 0 instructions: 50000009 cycles: 128490449 heartbeat IPC: 0.3901 cumulative IPC: 0.3891 (Simulation time: 00 hr 13 min 07 sec)
Heartbeat CPU 0 instructions: 60000012 cycles: 154159272 heartbeat IPC: 0.3896 cumulative IPC: 0.3892 (Simulation time: 00 hr 15 min 45 sec)
Heartbeat CPU 0 instructions: 70000012 cycles: 179869537 heartbeat IPC: 0.3889 cumulative IPC: 0.3892 (Simulation time: 00 hr 18 min 22 sec)
Heartbeat CPU 0 instructions: 80000016 cycles: 205643183 heartbeat IPC: 0.388 cumulative IPC: 0.389 (Simulation time: 00 hr 21 min 00 sec)
Heartbeat CPU 0 instructions: 90000018 cycles: 231292874 heartbeat IPC: 0.3899 cumulative IPC: 0.3891 (Simulation time: 00 hr 23 min 37 sec)
Heartbeat CPU 0 instructions: 100000020 cycles: 256909475 heartbeat IPC: 0.3904 cumulative IPC: 0.3892 (Simulation time: 00 hr 26 min 14 sec)
Heartbeat CPU 0 instructions: 110000020 cycles: 282604146 heartbeat IPC: 0.3892 cumulative IPC: 0.3892 (Simulation time: 00 hr 28 min 46 sec)
Heartbeat CPU 0 instructions: 120000024 cycles: 308305392 heartbeat IPC: 0.3891 cumulative IPC: 0.3892 (Simulation time: 00 hr 31 min 07 sec)
Heartbeat CPU 0 instructions: 130000024 cycles: 334014469 heartbeat IPC: 0.389 cumulative IPC: 0.3892 (Simulation time: 00 hr 33 min 44 sec)
Heartbeat CPU 0 instructions: 140000027 cycles: 359626700 heartbeat IPC: 0.3904 cumulative IPC: 0.3893 (Simulation time: 00 hr 36 min 22 sec)
Heartbeat CPU 0 instructions: 150000029 cycles: 385237236 heartbeat IPC: 0.3905 cumulative IPC: 0.3894 (Simulation time: 00 hr 38 min 59 sec)
Heartbeat CPU 0 instructions: 160000031 cycles: 410941516 heartbeat IPC: 0.389 cumulative IPC: 0.3893 (Simulation time: 00 hr 41 min 38 sec)
Heartbeat CPU 0 instructions: 170000034 cycles: 436570662 heartbeat IPC: 0.3902 cumulative IPC: 0.3894 (Simulation time: 00 hr 44 min 15 sec)
Heartbeat CPU 0 instructions: 180000036 cycles: 462211562 heartbeat IPC: 0.39 cumulative IPC: 0.3894 (Simulation time: 00 hr 46 min 53 sec)
Heartbeat CPU 0 instructions: 190000039 cycles: 487954428 heartbeat IPC: 0.3885 cumulative IPC: 0.3894 (Simulation time: 00 hr 49 min 07 sec)
Heartbeat CPU 0 instructions: 200000040 cycles: 513566339 heartbeat IPC: 0.3904 cumulative IPC: 0.3894 (Simulation time: 00 hr 51 min 24 sec)
Heartbeat CPU 0 instructions: 210000042 cycles: 539194174 heartbeat IPC: 0.3902 cumulative IPC: 0.3895 (Simulation time: 00 hr 54 min 00 sec)
Heartbeat CPU 0 instructions: 220000045 cycles: 564892242 heartbeat IPC: 0.3891 cumulative IPC: 0.3895 (Simulation time: 00 hr 56 min 37 sec)
Heartbeat CPU 0 instructions: 230000046 cycles: 590555708 heartbeat IPC: 0.3897 cumulative IPC: 0.3895 (Simulation time: 00 hr 59 min 12 sec)
Heartbeat CPU 0 instructions: 240000047 cycles: 616230067 heartbeat IPC: 0.3895 cumulative IPC: 0.3895 (Simulation time: 01 hr 01 min 47 sec)
Heartbeat CPU 0 instructions: 250000047 cycles: 641859433 heartbeat IPC: 0.3902 cumulative IPC: 0.3895 (Simulation time: 01 hr 04 min 22 sec)
Heartbeat CPU 0 instructions: 260000051 cycles: 667548376 heartbeat IPC: 0.3893 cumulative IPC: 0.3895 (Simulation time: 01 hr 06 min 43 sec)
Heartbeat CPU 0 instructions: 270000051 cycles: 693229631 heartbeat IPC: 0.3894 cumulative IPC: 0.3895 (Simulation time: 01 hr 09 min 15 sec)
[ERROR_CYCLE] Error added at CPU cycle 705324016, interval 1, pending count: 1
[DRAM_CYCLE_ERROR] Cycle-based error applied! address=0x60cf9a3c0 additional_latency=1990500 cycles
Heartbeat CPU 0 instructions: 280000052 cycles: 718881884 heartbeat IPC: 0.3898 cumulative IPC: 0.3895 (Simulation time: 01 hr 11 min 32 sec)
Heartbeat CPU 0 instructions: 290000052 cycles: 744508449 heartbeat IPC: 0.3902 cumulative IPC: 0.3895 (Simulation time: 01 hr 13 min 59 sec)
Heartbeat CPU 0 instructions: 300000056 cycles: 770146060 heartbeat IPC: 0.3901 cumulative IPC: 0.3895 (Simulation time: 01 hr 16 min 17 sec)
Heartbeat CPU 0 instructions: 310000056 cycles: 795785549 heartbeat IPC: 0.39 cumulative IPC: 0.3896 (Simulation time: 01 hr 18 min 29 sec)
Heartbeat CPU 0 instructions: 320000059 cycles: 821441644 heartbeat IPC: 0.3898 cumulative IPC: 0.3896 (Simulation time: 01 hr 20 min 45 sec)
Heartbeat CPU 0 instructions: 330000059 cycles: 847083876 heartbeat IPC: 0.39 cumulative IPC: 0.3896 (Simulation time: 01 hr 23 min 05 sec)
Heartbeat CPU 0 instructions: 340000061 cycles: 872762129 heartbeat IPC: 0.3894 cumulative IPC: 0.3896 (Simulation time: 01 hr 25 min 10 sec)
Heartbeat CPU 0 instructions: 350000063 cycles: 898398820 heartbeat IPC: 0.3901 cumulative IPC: 0.3896 (Simulation time: 01 hr 27 min 25 sec)
Heartbeat CPU 0 instructions: 360000064 cycles: 924027166 heartbeat IPC: 0.3902 cumulative IPC: 0.3896 (Simulation time: 01 hr 29 min 30 sec)
Heartbeat CPU 0 instructions: 370000067 cycles: 949639311 heartbeat IPC: 0.3904 cumulative IPC: 0.3896 (Simulation time: 01 hr 31 min 53 sec)
Heartbeat CPU 0 instructions: 380000068 cycles: 975340173 heartbeat IPC: 0.3891 cumulative IPC: 0.3896 (Simulation time: 01 hr 34 min 16 sec)
Heartbeat CPU 0 instructions: 390000071 cycles: 1001028842 heartbeat IPC: 0.3893 cumulative IPC: 0.3896 (Simulation time: 01 hr 36 min 50 sec)
Heartbeat CPU 0 instructions: 400000074 cycles: 1026725243 heartbeat IPC: 0.3892 cumulative IPC: 0.3896 (Simulation time: 01 hr 39 min 26 sec)
Heartbeat CPU 0 instructions: 410000076 cycles: 1052408337 heartbeat IPC: 0.3894 cumulative IPC: 0.3896 (Simulation time: 01 hr 42 min 03 sec)
Heartbeat CPU 0 instructions: 420000076 cycles: 1078067990 heartbeat IPC: 0.3897 cumulative IPC: 0.3896 (Simulation time: 01 hr 44 min 39 sec)
Heartbeat CPU 0 instructions: 430000076 cycles: 1103688006 heartbeat IPC: 0.3903 cumulative IPC: 0.3896 (Simulation time: 01 hr 47 min 15 sec)
Heartbeat CPU 0 instructions: 440000080 cycles: 1129339841 heartbeat IPC: 0.3898 cumulative IPC: 0.3896 (Simulation time: 01 hr 49 min 49 sec)
Heartbeat CPU 0 instructions: 450000081 cycles: 1154979493 heartbeat IPC: 0.39 cumulative IPC: 0.3896 (Simulation time: 01 hr 52 min 22 sec)
Heartbeat CPU 0 instructions: 460000083 cycles: 1180564894 heartbeat IPC: 0.3908 cumulative IPC: 0.3896 (Simulation time: 01 hr 54 min 56 sec)
Heartbeat CPU 0 instructions: 470000085 cycles: 1206127575 heartbeat IPC: 0.3912 cumulative IPC: 0.3897 (Simulation time: 01 hr 57 min 29 sec)
Heartbeat CPU 0 instructions: 480000086 cycles: 1231703248 heartbeat IPC: 0.391 cumulative IPC: 0.3897 (Simulation time: 02 hr 00 min 03 sec)
Heartbeat CPU 0 instructions: 490000086 cycles: 1257270841 heartbeat IPC: 0.3911 cumulative IPC: 0.3897 (Simulation time: 02 hr 02 min 36 sec)
Heartbeat CPU 0 instructions: 500000086 cycles: 1282940887 heartbeat IPC: 0.3896 cumulative IPC: 0.3897 (Simulation time: 02 hr 05 min 10 sec)
Heartbeat CPU 0 instructions: 510000087 cycles: 1308551618 heartbeat IPC: 0.3905 cumulative IPC: 0.3897 (Simulation time: 02 hr 07 min 41 sec)
Heartbeat CPU 0 instructions: 520000087 cycles: 1334141681 heartbeat IPC: 0.3908 cumulative IPC: 0.3898 (Simulation time: 02 hr 10 min 17 sec)
Heartbeat CPU 0 instructions: 530000091 cycles: 1359745814 heartbeat IPC: 0.3906 cumulative IPC: 0.3898 (Simulation time: 02 hr 12 min 53 sec)
Heartbeat CPU 0 instructions: 540000093 cycles: 1385437239 heartbeat IPC: 0.3892 cumulative IPC: 0.3898 (Simulation time: 02 hr 15 min 30 sec)
[ERROR_CYCLE] Error added at CPU cycle 1410648031, interval 2, pending count: 1
[DRAM_CYCLE_ERROR] Cycle-based error applied! address=0x12c196b48 additional_latency=1990500 cycles
Heartbeat CPU 0 instructions: 550000093 cycles: 1411049871 heartbeat IPC: 0.3904 cumulative IPC: 0.3898 (Simulation time: 02 hr 18 min 07 sec)
Heartbeat CPU 0 instructions: 560000095 cycles: 1436687196 heartbeat IPC: 0.3901 cumulative IPC: 0.3898 (Simulation time: 02 hr 20 min 39 sec)
Heartbeat CPU 0 instructions: 570000095 cycles: 1462323065 heartbeat IPC: 0.3901 cumulative IPC: 0.3898 (Simulation time: 02 hr 23 min 01 sec)
Heartbeat CPU 0 instructions: 580000099 cycles: 1487962655 heartbeat IPC: 0.39 cumulative IPC: 0.3898 (Simulation time: 02 hr 25 min 23 sec)
Heartbeat CPU 0 instructions: 590000102 cycles: 1513597822 heartbeat IPC: 0.3901 cumulative IPC: 0.3898 (Simulation time: 02 hr 27 min 29 sec)
Heartbeat CPU 0 instructions: 600000104 cycles: 1539282136 heartbeat IPC: 0.3893 cumulative IPC: 0.3898 (Simulation time: 02 hr 29 min 55 sec)
Heartbeat CPU 0 instructions: 610000105 cycles: 1564973477 heartbeat IPC: 0.3892 cumulative IPC: 0.3898 (Simulation time: 02 hr 32 min 29 sec)
Heartbeat CPU 0 instructions: 620000107 cycles: 1592619390 heartbeat IPC: 0.3617 cumulative IPC: 0.3893 (Simulation time: 02 hr 35 min 16 sec)
Heartbeat CPU 0 instructions: 630000107 cycles: 1619055017 heartbeat IPC: 0.3783 cumulative IPC: 0.3891 (Simulation time: 02 hr 37 min 58 sec)
Heartbeat CPU 0 instructions: 640000107 cycles: 1645040693 heartbeat IPC: 0.3848 cumulative IPC: 0.389 (Simulation time: 02 hr 40 min 37 sec)
Heartbeat CPU 0 instructions: 650000107 cycles: 1671230291 heartbeat IPC: 0.3818 cumulative IPC: 0.3889 (Simulation time: 02 hr 42 min 54 sec)
Heartbeat CPU 0 instructions: 660000108 cycles: 1696999646 heartbeat IPC: 0.3881 cumulative IPC: 0.3889 (Simulation time: 02 hr 44 min 40 sec)
Heartbeat CPU 0 instructions: 670000109 cycles: 1722687724 heartbeat IPC: 0.3893 cumulative IPC: 0.3889 (Simulation time: 02 hr 47 min 00 sec)
Heartbeat CPU 0 instructions: 680000110 cycles: 1748327094 heartbeat IPC: 0.39 cumulative IPC: 0.3889 (Simulation time: 02 hr 49 min 35 sec)
Heartbeat CPU 0 instructions: 690000111 cycles: 1773886075 heartbeat IPC: 0.3913 cumulative IPC: 0.389 (Simulation time: 02 hr 52 min 11 sec)
Heartbeat CPU 0 instructions: 700000115 cycles: 1799438833 heartbeat IPC: 0.3913 cumulative IPC: 0.389 (Simulation time: 02 hr 54 min 48 sec)
Heartbeat CPU 0 instructions: 710000116 cycles: 1824992055 heartbeat IPC: 0.3913 cumulative IPC: 0.389 (Simulation time: 02 hr 57 min 01 sec)
Heartbeat CPU 0 instructions: 720000117 cycles: 1850544046 heartbeat IPC: 0.3914 cumulative IPC: 0.3891 (Simulation time: 02 hr 59 min 35 sec)
Heartbeat CPU 0 instructions: 730000120 cycles: 1876150911 heartbeat IPC: 0.3905 cumulative IPC: 0.3891 (Simulation time: 03 hr 02 min 12 sec)
Heartbeat CPU 0 instructions: 740000121 cycles: 1901827627 heartbeat IPC: 0.3895 cumulative IPC: 0.3891 (Simulation time: 03 hr 04 min 50 sec)
Heartbeat CPU 0 instructions: 750000122 cycles: 1927480942 heartbeat IPC: 0.3898 cumulative IPC: 0.3891 (Simulation time: 03 hr 07 min 22 sec)
Heartbeat CPU 0 instructions: 760000122 cycles: 1953132557 heartbeat IPC: 0.3898 cumulative IPC: 0.3891 (Simulation time: 03 hr 09 min 54 sec)
Heartbeat CPU 0 instructions: 770000122 cycles: 1978751142 heartbeat IPC: 0.3903 cumulative IPC: 0.3891 (Simulation time: 03 hr 11 min 57 sec)
Heartbeat CPU 0 instructions: 780000124 cycles: 2004369394 heartbeat IPC: 0.3903 cumulative IPC: 0.3891 (Simulation time: 03 hr 14 min 34 sec)
Heartbeat CPU 0 instructions: 790000127 cycles: 2029936263 heartbeat IPC: 0.3911 cumulative IPC: 0.3892 (Simulation time: 03 hr 16 min 50 sec)
Heartbeat CPU 0 instructions: 800000128 cycles: 2055591657 heartbeat IPC: 0.3898 cumulative IPC: 0.3892 (Simulation time: 03 hr 18 min 33 sec)
Heartbeat CPU 0 instructions: 810000128 cycles: 2081204667 heartbeat IPC: 0.3904 cumulative IPC: 0.3892 (Simulation time: 03 hr 20 min 25 sec)
Heartbeat CPU 0 instructions: 820000128 cycles: 2106842394 heartbeat IPC: 0.3901 cumulative IPC: 0.3892 (Simulation time: 03 hr 23 min 03 sec)
[ERROR_CYCLE] Error added at CPU cycle 2115972045, interval 3, pending count: 1
[DRAM_CYCLE_ERROR] Cycle-based error applied! address=0x49240f900 additional_latency=1990500 cycles
Heartbeat CPU 0 instructions: 830000128 cycles: 2132473540 heartbeat IPC: 0.3902 cumulative IPC: 0.3892 (Simulation time: 03 hr 25 min 40 sec)
Heartbeat CPU 0 instructions: 840000128 cycles: 2158115681 heartbeat IPC: 0.39 cumulative IPC: 0.3892 (Simulation time: 03 hr 27 min 53 sec)
Heartbeat CPU 0 instructions: 850000131 cycles: 2183749163 heartbeat IPC: 0.3901 cumulative IPC: 0.3892 (Simulation time: 03 hr 29 min 53 sec)
Heartbeat CPU 0 instructions: 860000134 cycles: 2209296353 heartbeat IPC: 0.3914 cumulative IPC: 0.3893 (Simulation time: 03 hr 31 min 53 sec)
Heartbeat CPU 0 instructions: 870000134 cycles: 2234867963 heartbeat IPC: 0.3911 cumulative IPC: 0.3893 (Simulation time: 03 hr 33 min 37 sec)
Heartbeat CPU 0 instructions: 880000136 cycles: 2260414314 heartbeat IPC: 0.3914 cumulative IPC: 0.3893 (Simulation time: 03 hr 35 min 19 sec)
Heartbeat CPU 0 instructions: 890000137 cycles: 2286019719 heartbeat IPC: 0.3905 cumulative IPC: 0.3893 (Simulation time: 03 hr 37 min 52 sec)
Heartbeat CPU 0 instructions: 900000137 cycles: 2311602011 heartbeat IPC: 0.3909 cumulative IPC: 0.3893 (Simulation time: 03 hr 40 min 27 sec)
Heartbeat CPU 0 instructions: 910000140 cycles: 2337189516 heartbeat IPC: 0.3908 cumulative IPC: 0.3894 (Simulation time: 03 hr 42 min 41 sec)
Heartbeat CPU 0 instructions: 920000140 cycles: 2362750789 heartbeat IPC: 0.3912 cumulative IPC: 0.3894 (Simulation time: 03 hr 45 min 05 sec)
Heartbeat CPU 0 instructions: 930000140 cycles: 2388317655 heartbeat IPC: 0.3911 cumulative IPC: 0.3894 (Simulation time: 03 hr 47 min 18 sec)
Heartbeat CPU 0 instructions: 940000144 cycles: 2413902847 heartbeat IPC: 0.3909 cumulative IPC: 0.3894 (Simulation time: 03 hr 49 min 17 sec)
Heartbeat CPU 0 instructions: 950000147 cycles: 2439469428 heartbeat IPC: 0.3911 cumulative IPC: 0.3894 (Simulation time: 03 hr 51 min 52 sec)
Heartbeat CPU 0 instructions: 960000147 cycles: 2465040369 heartbeat IPC: 0.3911 cumulative IPC: 0.3894 (Simulation time: 03 hr 54 min 27 sec)
Heartbeat CPU 0 instructions: 970000149 cycles: 2490594742 heartbeat IPC: 0.3913 cumulative IPC: 0.3895 (Simulation time: 03 hr 57 min 01 sec)
Heartbeat CPU 0 instructions: 980000150 cycles: 2516153007 heartbeat IPC: 0.3913 cumulative IPC: 0.3895 (Simulation time: 03 hr 59 min 03 sec)
Heartbeat CPU 0 instructions: 990000150 cycles: 2541699026 heartbeat IPC: 0.3915 cumulative IPC: 0.3895 (Simulation time: 04 hr 01 min 13 sec)
Heartbeat CPU 0 instructions: 1000000152 cycles: 2567286441 heartbeat IPC: 0.3908 cumulative IPC: 0.3895 (Simulation time: 04 hr 03 min 42 sec)
Heartbeat CPU 0 instructions: 1010000153 cycles: 2592837358 heartbeat IPC: 0.3914 cumulative IPC: 0.3895 (Simulation time: 04 hr 05 min 46 sec)
Heartbeat CPU 0 instructions: 1020000155 cycles: 2618383359 heartbeat IPC: 0.3915 cumulative IPC: 0.3896 (Simulation time: 04 hr 07 min 42 sec)
Heartbeat CPU 0 instructions: 1030000155 cycles: 2643954488 heartbeat IPC: 0.3911 cumulative IPC: 0.3896 (Simulation time: 04 hr 10 min 18 sec)
Heartbeat CPU 0 instructions: 1040000157 cycles: 2669528382 heartbeat IPC: 0.391 cumulative IPC: 0.3896 (Simulation time: 04 hr 12 min 16 sec)
Heartbeat CPU 0 instructions: 1050000160 cycles: 2695076567 heartbeat IPC: 0.3914 cumulative IPC: 0.3896 (Simulation time: 04 hr 14 min 20 sec)
Heartbeat CPU 0 instructions: 1060000161 cycles: 2720649012 heartbeat IPC: 0.391 cumulative IPC: 0.3896 (Simulation time: 04 hr 16 min 25 sec)
Heartbeat CPU 0 instructions: 1070000162 cycles: 2746199237 heartbeat IPC: 0.3914 cumulative IPC: 0.3896 (Simulation time: 04 hr 18 min 57 sec)
Heartbeat CPU 0 instructions: 1080000163 cycles: 2771775046 heartbeat IPC: 0.391 cumulative IPC: 0.3896 (Simulation time: 04 hr 20 min 57 sec)
Heartbeat CPU 0 instructions: 1090000163 cycles: 2797338813 heartbeat IPC: 0.3912 cumulative IPC: 0.3897 (Simulation time: 04 hr 23 min 26 sec)
[ERROR_CYCLE] Error added at CPU cycle 2821296060, interval 4, pending count: 1
[DRAM_CYCLE_ERROR] Cycle-based error applied! address=0x1b9368248 additional_latency=1990500 cycles
Heartbeat CPU 0 instructions: 1100000164 cycles: 2822956052 heartbeat IPC: 0.3904 cumulative IPC: 0.3897 (Simulation time: 04 hr 26 min 04 sec)
Heartbeat CPU 0 instructions: 1110000164 cycles: 2848541605 heartbeat IPC: 0.3908 cumulative IPC: 0.3897 (Simulation time: 04 hr 28 min 21 sec)
Heartbeat CPU 0 instructions: 1120000166 cycles: 2874112744 heartbeat IPC: 0.3911 cumulative IPC: 0.3897 (Simulation time: 04 hr 30 min 17 sec)
Heartbeat CPU 0 instructions: 1130000166 cycles: 2899672265 heartbeat IPC: 0.3912 cumulative IPC: 0.3897 (Simulation time: 04 hr 32 min 02 sec)
Heartbeat CPU 0 instructions: 1140000169 cycles: 2925229632 heartbeat IPC: 0.3913 cumulative IPC: 0.3897 (Simulation time: 04 hr 33 min 47 sec)
Heartbeat CPU 0 instructions: 1150000169 cycles: 2950850296 heartbeat IPC: 0.3903 cumulative IPC: 0.3897 (Simulation time: 04 hr 35 min 38 sec)
Heartbeat CPU 0 instructions: 1160000171 cycles: 2976432573 heartbeat IPC: 0.3909 cumulative IPC: 0.3897 (Simulation time: 04 hr 37 min 22 sec)
Heartbeat CPU 0 instructions: 1170000172 cycles: 3001779754 heartbeat IPC: 0.3945 cumulative IPC: 0.3898 (Simulation time: 04 hr 39 min 22 sec)
Heartbeat CPU 0 instructions: 1180000173 cycles: 3027296061 heartbeat IPC: 0.3919 cumulative IPC: 0.3898 (Simulation time: 04 hr 41 min 33 sec)
Heartbeat CPU 0 instructions: 1190000173 cycles: 3052855137 heartbeat IPC: 0.3913 cumulative IPC: 0.3898 (Simulation time: 04 hr 43 min 21 sec)
Heartbeat CPU 0 instructions: 1200000173 cycles: 3078400965 heartbeat IPC: 0.3915 cumulative IPC: 0.3898 (Simulation time: 04 hr 45 min 33 sec)
Heartbeat CPU 0 instructions: 1210000174 cycles: 3103969933 heartbeat IPC: 0.3911 cumulative IPC: 0.3898 (Simulation time: 04 hr 48 min 09 sec)
Heartbeat CPU 0 instructions: 1220000178 cycles: 3129532935 heartbeat IPC: 0.3912 cumulative IPC: 0.3898 (Simulation time: 04 hr 50 min 46 sec)
Heartbeat CPU 0 instructions: 1230000181 cycles: 3154986109 heartbeat IPC: 0.3929 cumulative IPC: 0.3899 (Simulation time: 04 hr 53 min 21 sec)
Heartbeat CPU 0 instructions: 1240000182 cycles: 3180507466 heartbeat IPC: 0.3918 cumulative IPC: 0.3899 (Simulation time: 04 hr 55 min 10 sec)
Heartbeat CPU 0 instructions: 1250000185 cycles: 3206068035 heartbeat IPC: 0.3912 cumulative IPC: 0.3899 (Simulation time: 04 hr 57 min 00 sec)
Heartbeat CPU 0 instructions: 1260000185 cycles: 3231548050 heartbeat IPC: 0.3925 cumulative IPC: 0.3899 (Simulation time: 04 hr 58 min 51 sec)
Heartbeat CPU 0 instructions: 1270000185 cycles: 3257108249 heartbeat IPC: 0.3912 cumulative IPC: 0.3899 (Simulation time: 05 hr 00 min 36 sec)
Heartbeat CPU 0 instructions: 1280000186 cycles: 3282751287 heartbeat IPC: 0.39 cumulative IPC: 0.3899 (Simulation time: 05 hr 02 min 47 sec)
Heartbeat CPU 0 instructions: 1290000186 cycles: 3308440280 heartbeat IPC: 0.3893 cumulative IPC: 0.3899 (Simulation time: 05 hr 04 min 52 sec)
Heartbeat CPU 0 instructions: 1300000190 cycles: 3334035018 heartbeat IPC: 0.3907 cumulative IPC: 0.3899 (Simulation time: 05 hr 07 min 21 sec)
Heartbeat CPU 0 instructions: 1310000190 cycles: 3359714881 heartbeat IPC: 0.3894 cumulative IPC: 0.3899 (Simulation time: 05 hr 09 min 53 sec)
Heartbeat CPU 0 instructions: 1320000190 cycles: 3385376516 heartbeat IPC: 0.3897 cumulative IPC: 0.3899 (Simulation time: 05 hr 12 min 31 sec)
Heartbeat CPU 0 instructions: 1330000190 cycles: 3411039161 heartbeat IPC: 0.3897 cumulative IPC: 0.3899 (Simulation time: 05 hr 14 min 59 sec)
Heartbeat CPU 0 instructions: 1340000190 cycles: 3436618340 heartbeat IPC: 0.3909 cumulative IPC: 0.3899 (Simulation time: 05 hr 17 min 23 sec)
Heartbeat CPU 0 instructions: 1350000192 cycles: 3462154537 heartbeat IPC: 0.3916 cumulative IPC: 0.3899 (Simulation time: 05 hr 19 min 34 sec)
Heartbeat CPU 0 instructions: 1360000193 cycles: 3487691115 heartbeat IPC: 0.3916 cumulative IPC: 0.3899 (Simulation time: 05 hr 22 min 11 sec)
Heartbeat CPU 0 instructions: 1370000194 cycles: 3513292044 heartbeat IPC: 0.3906 cumulative IPC: 0.3899 (Simulation time: 05 hr 24 min 34 sec)
[ERROR_CYCLE] Error added at CPU cycle 3526620075, interval 5, pending count: 1
[DRAM_CYCLE_ERROR] Cycle-based error applied! address=0x424961d40 additional_latency=1990500 cycles
Heartbeat CPU 0 instructions: 1380000197 cycles: 3538902787 heartbeat IPC: 0.3905 cumulative IPC: 0.39 (Simulation time: 05 hr 26 min 53 sec)
Heartbeat CPU 0 instructions: 1390000201 cycles: 3564450657 heartbeat IPC: 0.3914 cumulative IPC: 0.39 (Simulation time: 05 hr 29 min 30 sec)
Heartbeat CPU 0 instructions: 1400000204 cycles: 3590029471 heartbeat IPC: 0.3909 cumulative IPC: 0.39 (Simulation time: 05 hr 32 min 06 sec)
Heartbeat CPU 0 instructions: 1410000206 cycles: 3615637767 heartbeat IPC: 0.3905 cumulative IPC: 0.39 (Simulation time: 05 hr 34 min 42 sec)
Heartbeat CPU 0 instructions: 1420000206 cycles: 3641400639 heartbeat IPC: 0.3882 cumulative IPC: 0.39 (Simulation time: 05 hr 37 min 18 sec)
Heartbeat CPU 0 instructions: 1430000209 cycles: 3667276361 heartbeat IPC: 0.3865 cumulative IPC: 0.3899 (Simulation time: 05 hr 39 min 22 sec)
Heartbeat CPU 0 instructions: 1440000211 cycles: 3694841547 heartbeat IPC: 0.3628 cumulative IPC: 0.3897 (Simulation time: 05 hr 42 min 03 sec)
Heartbeat CPU 0 instructions: 1450000214 cycles: 3720189524 heartbeat IPC: 0.3945 cumulative IPC: 0.3898 (Simulation time: 05 hr 44 min 38 sec)
Heartbeat CPU 0 instructions: 1460000214 cycles: 3745792194 heartbeat IPC: 0.3906 cumulative IPC: 0.3898 (Simulation time: 05 hr 47 min 13 sec)
Heartbeat CPU 0 instructions: 1470000214 cycles: 3771384453 heartbeat IPC: 0.3907 cumulative IPC: 0.3898 (Simulation time: 05 hr 49 min 23 sec)
Heartbeat CPU 0 instructions: 1480000216 cycles: 3796980578 heartbeat IPC: 0.3907 cumulative IPC: 0.3898 (Simulation time: 05 hr 51 min 59 sec)
Heartbeat CPU 0 instructions: 1490000220 cycles: 3822558239 heartbeat IPC: 0.391 cumulative IPC: 0.3898 (Simulation time: 05 hr 54 min 35 sec)
Heartbeat CPU 0 instructions: 1500000220 cycles: 3848137407 heartbeat IPC: 0.3909 cumulative IPC: 0.3898 (Simulation time: 05 hr 57 min 11 sec)
Heartbeat CPU 0 instructions: 1510000220 cycles: 3873683380 heartbeat IPC: 0.3915 cumulative IPC: 0.3898 (Simulation time: 05 hr 59 min 46 sec)
Heartbeat CPU 0 instructions: 1520000222 cycles: 3899329681 heartbeat IPC: 0.3899 cumulative IPC: 0.3898 (Simulation time: 06 hr 02 min 22 sec)
Heartbeat CPU 0 instructions: 1530000222 cycles: 3924966757 heartbeat IPC: 0.3901 cumulative IPC: 0.3898 (Simulation time: 06 hr 04 min 57 sec)
Heartbeat CPU 0 instructions: 1540000223 cycles: 3950494253 heartbeat IPC: 0.3917 cumulative IPC: 0.3898 (Simulation time: 06 hr 07 min 31 sec)
Heartbeat CPU 0 instructions: 1550000223 cycles: 3975872967 heartbeat IPC: 0.394 cumulative IPC: 0.3899 (Simulation time: 06 hr 10 min 05 sec)
Heartbeat CPU 0 instructions: 1560000225 cycles: 4001357537 heartbeat IPC: 0.3924 cumulative IPC: 0.3899 (Simulation time: 06 hr 12 min 40 sec)
Heartbeat CPU 0 instructions: 1570000225 cycles: 4026784890 heartbeat IPC: 0.3933 cumulative IPC: 0.3899 (Simulation time: 06 hr 15 min 15 sec)
Heartbeat CPU 0 instructions: 1580000227 cycles: 4052262771 heartbeat IPC: 0.3925 cumulative IPC: 0.3899 (Simulation time: 06 hr 17 min 50 sec)
Heartbeat CPU 0 instructions: 1590000231 cycles: 4077734036 heartbeat IPC: 0.3926 cumulative IPC: 0.3899 (Simulation time: 06 hr 20 min 25 sec)
Heartbeat CPU 0 instructions: 1600000231 cycles: 4103205796 heartbeat IPC: 0.3926 cumulative IPC: 0.3899 (Simulation time: 06 hr 22 min 54 sec)
Heartbeat CPU 0 instructions: 1610000231 cycles: 4128680094 heartbeat IPC: 0.3926 cumulative IPC: 0.39 (Simulation time: 06 hr 25 min 28 sec)
Heartbeat CPU 0 instructions: 1620000232 cycles: 4154158978 heartbeat IPC: 0.3925 cumulative IPC: 0.39 (Simulation time: 06 hr 28 min 02 sec)
Heartbeat CPU 0 instructions: 1630000233 cycles: 4179649257 heartbeat IPC: 0.3923 cumulative IPC: 0.39 (Simulation time: 06 hr 30 min 36 sec)
Heartbeat CPU 0 instructions: 1640000234 cycles: 4205138493 heartbeat IPC: 0.3923 cumulative IPC: 0.39 (Simulation time: 06 hr 33 min 11 sec)
Heartbeat CPU 0 instructions: 1650000235 cycles: 4230627659 heartbeat IPC: 0.3923 cumulative IPC: 0.39 (Simulation time: 06 hr 35 min 45 sec)
[ERROR_CYCLE] Error added at CPU cycle 4231944091, interval 6, pending count: 1
[DRAM_CYCLE_ERROR] Cycle-based error applied! address=0x2af456610 additional_latency=1990500 cycles
Heartbeat CPU 0 instructions: 1660000235 cycles: 4256109794 heartbeat IPC: 0.3924 cumulative IPC: 0.39 (Simulation time: 06 hr 38 min 19 sec)
Heartbeat CPU 0 instructions: 1670000235 cycles: 4281592807 heartbeat IPC: 0.3924 cumulative IPC: 0.39 (Simulation time: 06 hr 40 min 52 sec)
Heartbeat CPU 0 instructions: 1680000237 cycles: 4307073084 heartbeat IPC: 0.3925 cumulative IPC: 0.3901 (Simulation time: 06 hr 43 min 22 sec)
Heartbeat CPU 0 instructions: 1690000237 cycles: 4332569800 heartbeat IPC: 0.3922 cumulative IPC: 0.3901 (Simulation time: 06 hr 45 min 02 sec)
Heartbeat CPU 0 instructions: 1700000241 cycles: 4358042228 heartbeat IPC: 0.3926 cumulative IPC: 0.3901 (Simulation time: 06 hr 46 min 47 sec)
Heartbeat CPU 0 instructions: 1710000242 cycles: 4383513205 heartbeat IPC: 0.3926 cumulative IPC: 0.3901 (Simulation time: 06 hr 48 min 52 sec)
Heartbeat CPU 0 instructions: 1720000243 cycles: 4408969491 heartbeat IPC: 0.3928 cumulative IPC: 0.3901 (Simulation time: 06 hr 51 min 21 sec)
Heartbeat CPU 0 instructions: 1730000243 cycles: 4434453421 heartbeat IPC: 0.3924 cumulative IPC: 0.3901 (Simulation time: 06 hr 53 min 16 sec)
Heartbeat CPU 0 instructions: 1740000246 cycles: 4459936808 heartbeat IPC: 0.3924 cumulative IPC: 0.3901 (Simulation time: 06 hr 55 min 03 sec)
Heartbeat CPU 0 instructions: 1750000247 cycles: 4485417352 heartbeat IPC: 0.3925 cumulative IPC: 0.3902 (Simulation time: 06 hr 57 min 26 sec)
Heartbeat CPU 0 instructions: 1760000248 cycles: 4510898669 heartbeat IPC: 0.3924 cumulative IPC: 0.3902 (Simulation time: 06 hr 59 min 35 sec)
Heartbeat CPU 0 instructions: 1770000252 cycles: 4536377194 heartbeat IPC: 0.3925 cumulative IPC: 0.3902 (Simulation time: 07 hr 01 min 15 sec)
Heartbeat CPU 0 instructions: 1780000252 cycles: 4561854496 heartbeat IPC: 0.3925 cumulative IPC: 0.3902 (Simulation time: 07 hr 03 min 03 sec)
Heartbeat CPU 0 instructions: 1790000252 cycles: 4587339159 heartbeat IPC: 0.3924 cumulative IPC: 0.3902 (Simulation time: 07 hr 04 min 48 sec)
Heartbeat CPU 0 instructions: 1800000252 cycles: 4612847299 heartbeat IPC: 0.392 cumulative IPC: 0.3902 (Simulation time: 07 hr 06 min 50 sec)
Heartbeat CPU 0 instructions: 1810000253 cycles: 4638325349 heartbeat IPC: 0.3925 cumulative IPC: 0.3902 (Simulation time: 07 hr 08 min 30 sec)
Heartbeat CPU 0 instructions: 1820000255 cycles: 4663776334 heartbeat IPC: 0.3929 cumulative IPC: 0.3902 (Simulation time: 07 hr 10 min 21 sec)
Heartbeat CPU 0 instructions: 1830000257 cycles: 4689268496 heartbeat IPC: 0.3923 cumulative IPC: 0.3903 (Simulation time: 07 hr 12 min 25 sec)
Heartbeat CPU 0 instructions: 1840000259 cycles: 4714724028 heartbeat IPC: 0.3928 cumulative IPC: 0.3903 (Simulation time: 07 hr 14 min 12 sec)
Heartbeat CPU 0 instructions: 1850000259 cycles: 4740196188 heartbeat IPC: 0.3926 cumulative IPC: 0.3903 (Simulation time: 07 hr 16 min 26 sec)
Heartbeat CPU 0 instructions: 1860000262 cycles: 4765678407 heartbeat IPC: 0.3924 cumulative IPC: 0.3903 (Simulation time: 07 hr 18 min 17 sec)
Heartbeat CPU 0 instructions: 1870000263 cycles: 4791158932 heartbeat IPC: 0.3925 cumulative IPC: 0.3903 (Simulation time: 07 hr 20 min 53 sec)
Heartbeat CPU 0 instructions: 1880000264 cycles: 4816659241 heartbeat IPC: 0.3922 cumulative IPC: 0.3903 (Simulation time: 07 hr 23 min 28 sec)
Heartbeat CPU 0 instructions: 1890000267 cycles: 4842140401 heartbeat IPC: 0.3924 cumulative IPC: 0.3903 (Simulation time: 07 hr 26 min 04 sec)
Heartbeat CPU 0 instructions: 1900000271 cycles: 4867633310 heartbeat IPC: 0.3923 cumulative IPC: 0.3903 (Simulation time: 07 hr 28 min 40 sec)
Heartbeat CPU 0 instructions: 1910000274 cycles: 4893120887 heartbeat IPC: 0.3923 cumulative IPC: 0.3903 (Simulation time: 07 hr 31 min 15 sec)
Heartbeat CPU 0 instructions: 1920000278 cycles: 4918559369 heartbeat IPC: 0.3931 cumulative IPC: 0.3904 (Simulation time: 07 hr 33 min 51 sec)
[ERROR_CYCLE] Error added at CPU cycle 4937268106, interval 7, pending count: 1
[DRAM_CYCLE_ERROR] Cycle-based error applied! address=0x57284ca40 additional_latency=1990500 cycles
Heartbeat CPU 0 instructions: 1930000280 cycles: 4944056072 heartbeat IPC: 0.3922 cumulative IPC: 0.3904 (Simulation time: 07 hr 36 min 27 sec)
Heartbeat CPU 0 instructions: 1940000280 cycles: 4969543520 heartbeat IPC: 0.3923 cumulative IPC: 0.3904 (Simulation time: 07 hr 39 min 03 sec)
Heartbeat CPU 0 instructions: 1950000281 cycles: 4994994979 heartbeat IPC: 0.3929 cumulative IPC: 0.3904 (Simulation time: 07 hr 41 min 39 sec)
Heartbeat CPU 0 instructions: 1960000284 cycles: 5020448280 heartbeat IPC: 0.3929 cumulative IPC: 0.3904 (Simulation time: 07 hr 44 min 15 sec)
Heartbeat CPU 0 instructions: 1970000284 cycles: 5045904747 heartbeat IPC: 0.3928 cumulative IPC: 0.3904 (Simulation time: 07 hr 46 min 51 sec)
Heartbeat CPU 0 instructions: 1980000285 cycles: 5071391882 heartbeat IPC: 0.3924 cumulative IPC: 0.3904 (Simulation time: 07 hr 49 min 26 sec)
Heartbeat CPU 0 instructions: 1990000285 cycles: 5096883454 heartbeat IPC: 0.3923 cumulative IPC: 0.3904 (Simulation time: 07 hr 52 min 02 sec)

=== ERROR PAGE STATISTICS ===
Mode: CYCLE
Error Cycle Interval: 705324015 CPU cycles
Total Error Accesses: 7
==============================
Simulation finished CPU 0 instructions: 1999999981 cycles: 5122358445 cumulative IPC: 0.3904 (Simulation time: 07 hr 54 min 37 sec)
Simulation complete CPU 0 instructions: 1999999981 cycles: 5122358445 cumulative IPC: 0.3904 (Simulation time: 07 hr 54 min 37 sec)

ChampSim completed all CPUs

=== Simulation ===
CPU 0 runs test_traces/602.gcc_s-1850B.champsimtrace.xz

Region of Interest Statistics

CPU 0 cumulative IPC: 0.3904 instructions: 1999999981 cycles: 5122358445
CPU 0 Branch Prediction Accuracy: 92.26% MPKI: 19.84 Average ROB Occupancy at Mispredict: 28.45
Branch type MPKI
BRANCH_DIRECT_JUMP: 0.0104
BRANCH_INDIRECT: 0
BRANCH_CONDITIONAL: 19.83
BRANCH_DIRECT_CALL: 8.5e-06
BRANCH_INDIRECT_CALL: 0
BRANCH_RETURN: 7e-06

cpu0->cpu0_STLB TOTAL        ACCESS:      15986 HIT:      12647 MISS:       3339 MSHR_MERGE:          0
cpu0->cpu0_STLB LOAD         ACCESS:      15986 HIT:      12647 MISS:       3339 MSHR_MERGE:          0
cpu0->cpu0_STLB RFO          ACCESS:          0 HIT:          0 MISS:          0 MSHR_MERGE:          0
cpu0->cpu0_STLB PREFETCH     ACCESS:          0 HIT:          0 MISS:          0 MSHR_MERGE:          0
cpu0->cpu0_STLB WRITE        ACCESS:          0 HIT:          0 MISS:          0 MSHR_MERGE:          0
cpu0->cpu0_STLB TRANSLATION  ACCESS:          0 HIT:          0 MISS:          0 MSHR_MERGE:          0
cpu0->cpu0_STLB PREFETCH REQUESTED:          0 ISSUED:          0 USEFUL:          0 USELESS:          0
cpu0->cpu0_STLB AVERAGE MISS LATENCY: 6450 cycles
cpu0->cpu0_L2C TOTAL        ACCESS:   48249156 HIT:   12598006 MISS:   35651150 MSHR_MERGE:          0
cpu0->cpu0_L2C LOAD         ACCESS:   48104281 HIT:   12470014 MISS:   35634267 MSHR_MERGE:          0
cpu0->cpu0_L2C RFO          ACCESS:      16943 HIT:        109 MISS:      16834 MSHR_MERGE:          0
cpu0->cpu0_L2C PREFETCH     ACCESS:          0 HIT:          0 MISS:          0 MSHR_MERGE:          0
cpu0->cpu0_L2C WRITE        ACCESS:     127932 HIT:     127883 MISS:         49 MSHR_MERGE:          0
cpu0->cpu0_L2C TRANSLATION  ACCESS:          0 HIT:          0 MISS:          0 MSHR_MERGE:          0
cpu0->cpu0_L2C PREFETCH REQUESTED:          0 ISSUED:          0 USEFUL:          0 USELESS:          0
cpu0->cpu0_L2C AVERAGE MISS LATENCY: 91.38 cycles
cpu0->cpu0_L1I TOTAL        ACCESS:      78260 HIT:      78200 MISS:         60 MSHR_MERGE:          3
cpu0->cpu0_L1I LOAD         ACCESS:      78260 HIT:      78200 MISS:         60 MSHR_MERGE:          3
cpu0->cpu0_L1I RFO          ACCESS:          0 HIT:          0 MISS:          0 MSHR_MERGE:          0
cpu0->cpu0_L1I PREFETCH     ACCESS:          0 HIT:          0 MISS:          0 MSHR_MERGE:          0
cpu0->cpu0_L1I WRITE        ACCESS:          0 HIT:          0 MISS:          0 MSHR_MERGE:          0
cpu0->cpu0_L1I TRANSLATION  ACCESS:          0 HIT:          0 MISS:          0 MSHR_MERGE:          0
cpu0->cpu0_L1I PREFETCH REQUESTED:          0 ISSUED:          0 USEFUL:          0 USELESS:          0
cpu0->cpu0_L1I AVERAGE MISS LATENCY: 108.3 cycles
cpu0->cpu0_L1D TOTAL        ACCESS:  605689865 HIT:  522317756 MISS:   83372109 MSHR_MERGE:   35250942
cpu0->cpu0_L1D LOAD         ACCESS:  433067309 HIT:  349712588 MISS:   83354721 MSHR_MERGE:   35250497
cpu0->cpu0_L1D RFO          ACCESS:          0 HIT:          0 MISS:          0 MSHR_MERGE:          0
cpu0->cpu0_L1D PREFETCH     ACCESS:          0 HIT:          0 MISS:          0 MSHR_MERGE:          0
cpu0->cpu0_L1D WRITE        ACCESS:  172622556 HIT:  172605168 MISS:      17388 MSHR_MERGE:        445
cpu0->cpu0_L1D TRANSLATION  ACCESS:          0 HIT:          0 MISS:          0 MSHR_MERGE:          0
cpu0->cpu0_L1D PREFETCH REQUESTED:          0 ISSUED:          0 USEFUL:          0 USELESS:          0
cpu0->cpu0_L1D AVERAGE MISS LATENCY: 76.44 cycles
cpu0->cpu0_ITLB TOTAL        ACCESS:      73589 HIT:      73586 MISS:          3 MSHR_MERGE:          1
cpu0->cpu0_ITLB LOAD         ACCESS:      73589 HIT:      73586 MISS:          3 MSHR_MERGE:          1
cpu0->cpu0_ITLB RFO          ACCESS:          0 HIT:          0 MISS:          0 MSHR_MERGE:          0
cpu0->cpu0_ITLB PREFETCH     ACCESS:          0 HIT:          0 MISS:          0 MSHR_MERGE:          0
cpu0->cpu0_ITLB WRITE        ACCESS:          0 HIT:          0 MISS:          0 MSHR_MERGE:          0
cpu0->cpu0_ITLB TRANSLATION  ACCESS:          0 HIT:          0 MISS:          0 MSHR_MERGE:          0
cpu0->cpu0_ITLB PREFETCH REQUESTED:          0 ISSUED:          0 USEFUL:          0 USELESS:          0
cpu0->cpu0_ITLB AVERAGE MISS LATENCY: 1.293e+04 cycles
cpu0->cpu0_DTLB TOTAL        ACCESS:  551964310 HIT:  551939612 MISS:      24698 MSHR_MERGE:       8714
cpu0->cpu0_DTLB LOAD         ACCESS:  551964310 HIT:  551939612 MISS:      24698 MSHR_MERGE:       8714
cpu0->cpu0_DTLB RFO          ACCESS:          0 HIT:          0 MISS:          0 MSHR_MERGE:          0
cpu0->cpu0_DTLB PREFETCH     ACCESS:          0 HIT:          0 MISS:          0 MSHR_MERGE:          0
cpu0->cpu0_DTLB WRITE        ACCESS:          0 HIT:          0 MISS:          0 MSHR_MERGE:          0
cpu0->cpu0_DTLB TRANSLATION  ACCESS:          0 HIT:          0 MISS:          0 MSHR_MERGE:          0
cpu0->cpu0_DTLB PREFETCH REQUESTED:          0 ISSUED:          0 USEFUL:          0 USELESS:          0
cpu0->cpu0_DTLB AVERAGE MISS LATENCY: 1351 cycles
cpu0->LLC TOTAL        ACCESS:   35701266 HIT:     113972 MISS:   35587294 MSHR_MERGE:          0
cpu0->LLC LOAD         ACCESS:   35634267 HIT:      63993 MISS:   35570274 MSHR_MERGE:          0
cpu0->LLC RFO          ACCESS:      16834 HIT:         95 MISS:      16739 MSHR_MERGE:          0
cpu0->LLC PREFETCH     ACCESS:          0 HIT:          0 MISS:          0 MSHR_MERGE:          0
cpu0->LLC WRITE        ACCESS:      50165 HIT:      49884 MISS:        281 MSHR_MERGE:          0
cpu0->LLC TRANSLATION  ACCESS:          0 HIT:          0 MISS:          0 MSHR_MERGE:          0
cpu0->LLC PREFETCH REQUESTED:          0 ISSUED:          0 USEFUL:          0 USELESS:          0
cpu0->LLC AVERAGE MISS LATENCY: 75.51 cycles

DRAM Statistics

Channel 0 RQ ROW_BUFFER_HIT:    3613150
  ROW_BUFFER_MISS:   14184468
  AVG DBUS CONGESTED CYCLE: 13.86
Channel 0 WQ ROW_BUFFER_HIT:       3433
  ROW_BUFFER_MISS:      21753
  FULL:          0
Channel 0 REFRESHES ISSUED:     426835

Channel 1 RQ ROW_BUFFER_HIT:    3614062
  ROW_BUFFER_MISS:   14182022
  AVG DBUS CONGESTED CYCLE: 13.77
Channel 1 WQ ROW_BUFFER_HIT:       3239
  ROW_BUFFER_MISS:      21658
  FULL:          0
Channel 1 REFRESHES ISSUED:     426835
