
*** ChampSim Multicore Out-of-Order Simulator ***
Warmup Instructions: 0
Simulation Instructions: 9223372036854775807
Number of CPUs: 1
Page size: 1048576

Off-chip DRAM Size: 32 GiB Channels: 2 Width: 32-bit Data Rate: 4807 MT/s
[ERROR_PAGE_MANAGER] Error latency: 2459910500 
[ERROR_PAGE_MANAGER] Random seed: 54321 (fixed for preload reproducibility)
[ERROR_PAGE_MANAGER] Cycle-based error modeling enabled
[ERROR_PAGE_MANAGER] Errors per interval: 1
[ERROR_PAGE_MANAGER] Error cycle interval: 7053240154 cycles

=== ERROR PAGE STATISTICS ===
Mode: CYCLE
Error Cycle Interval: 7053240154 CPU cycles
Total Error Accesses: 0
==============================
Warmup finished CPU 0 instructions: 0 cycles: 1 cumulative IPC: 0 (Simulation time: 00 hr 00 min 00 sec)
Warmup complete CPU 0 instructions: 0 cycles: 1 cumulative IPC: 0 (Simulation time: 00 hr 00 min 00 sec)
Simulation CPU 0 panic: IPC 0 < 0.01
Simulation CPU 0 panic: IPC 1e-07 < 0.01
Simulation CPU 0 panic: IPC 0 < 0.01
Simulation CPU 0 panic: IPC 1e-07 < 0.01
Simulation CPU 0 panic: IPC 2.1e-06 < 0.01
Simulation CPU 0 panic: IPC 2.3e-05 < 0.01
Simulation CPU 0 panic: IPC 0.0004727 < 0.01
Simulation CPU 0 panic: IPC 1e-06 < 0.01
Simulation CPU 0 panic: IPC 0.0002725 < 0.01
Simulation CPU 0 panic: IPC 0.0029129 < 0.01
Simulation CPU 0 panic: IPC 0.0020414 < 0.01
Simulation CPU 0 panic: IPC 0.0001183 < 0.01
Simulation CPU 0 panic: IPC 1.6e-06 < 0.01
Simulation CPU 0 panic: IPC 4.4e-06 < 0.01
Simulation CPU 0 panic: IPC 0 < 0.01
Simulation CPU 0 panic: IPC 0.0022093 < 0.01
Simulation CPU 0 panic: IPC 0 < 0.01
Simulation CPU 0 panic: IPC 0.0019384 < 0.01
Simulation CPU 0 panic: IPC 0.0002613 < 0.01
Simulation CPU 0 panic: IPC 5e-07 < 0.01
Simulation CPU 0 panic: IPC 1.4e-06 < 0.01
Simulation CPU 0 panic: IPC 5.38e-05 < 0.01
Simulation CPU 0 panic: IPC 3.4e-06 < 0.01
Simulation CPU 0 panic: IPC 1.05e-05 < 0.01
Simulation CPU 0 panic: IPC 6e-07 < 0.01
Simulation CPU 0 panic: IPC 0.0002537 < 0.01
Simulation CPU 0 panic: IPC 0.0004514 < 0.01
Simulation CPU 0 panic: IPC 0.0009248 < 0.01
Simulation CPU 0 panic: IPC 0.000379 < 0.01
Simulation CPU 0 panic: IPC 0.0044689 < 0.01
Simulation CPU 0 panic: IPC 0.0035715 < 0.01
Simulation CPU 0 panic: IPC 0.0010914 < 0.01
Simulation CPU 0 panic: IPC 0.000521 < 0.01
Simulation CPU 0 panic: IPC 0.0036923 < 0.01
Simulation CPU 0 panic: IPC 0.0012109 < 0.01
Simulation CPU 0 panic: IPC 0.0004728 < 0.01
Simulation CPU 0 panic: IPC 0.0002884 < 0.01
Simulation CPU 0 panic: IPC 0.0018766 < 0.01
Simulation CPU 0 panic: IPC 0.0018104 < 0.01
Simulation CPU 0 panic: IPC 0.0007074 < 0.01
Simulation CPU 0 panic: IPC 9e-06 < 0.01
Simulation CPU 0 panic: IPC 1.42e-05 < 0.01
Simulation CPU 0 panic: IPC 1.42e-05 < 0.01
Simulation CPU 0 panic: IPC 1.42e-05 < 0.01
Simulation CPU 0 panic: IPC 0.0036294 < 0.01
Simulation CPU 0 panic: IPC 0.0020797 < 0.01
Simulation CPU 0 panic: IPC 0.0064004 < 0.01
Simulation CPU 0 panic: IPC 0.0004234 < 0.01
Simulation CPU 0 panic: IPC 0.0004521 < 0.01
Simulation CPU 0 panic: IPC 0.000695 < 0.01
Simulation CPU 0 panic: IPC 0.0004567 < 0.01
Simulation CPU 0 panic: IPC 0.0004498 < 0.01
Simulation CPU 0 panic: IPC 0.0004484 < 0.01
Simulation CPU 0 panic: IPC 0.0002466 < 0.01
Simulation CPU 0 panic: IPC 0.0007072 < 0.01
Simulation CPU 0 panic: IPC 0.0065293 < 0.01
Simulation CPU 0 critical: IPC 0.011599 < 0.02
Simulation CPU 0 panic: IPC 0.0002464 < 0.01
Simulation CPU 0 panic: IPC 0.0007731 < 0.01
Simulation CPU 0 panic: IPC 7.59e-05 < 0.01
Simulation CPU 0 panic: IPC 0.0002137 < 0.01
Simulation CPU 0 panic: IPC 0.0047619 < 0.01
Simulation CPU 0 panic: IPC 4.4e-06 < 0.01
Simulation CPU 0 panic: IPC 3.4e-06 < 0.01
Simulation CPU 0 panic: IPC 0.0001809 < 0.01
Simulation CPU 0 panic: IPC 0.0003701 < 0.01
Simulation CPU 0 panic: IPC 0.0005202 < 0.01
Simulation CPU 0 panic: IPC 0.0045808 < 0.01
Simulation CPU 0 panic: IPC 0.0004161 < 0.01
Simulation CPU 0 panic: IPC 0.0002493 < 0.01
Simulation CPU 0 panic: IPC 0.000416 < 0.01
Simulation CPU 0 panic: IPC 0.0002537 < 0.01
Simulation CPU 0 panic: IPC 0.0002387 < 0.01
Simulation CPU 0 panic: IPC 0.0019012 < 0.01
Simulation CPU 0 panic: IPC 0.0004001 < 0.01
Simulation CPU 0 panic: IPC 0.0002481 < 0.01
Simulation CPU 0 panic: IPC 0.0002475 < 0.01
Simulation CPU 0 panic: IPC 0.0007423 < 0.01
Simulation CPU 0 panic: IPC 0.001547 < 0.01
Simulation CPU 0 panic: IPC 0.0020238 < 0.01
Simulation CPU 0 panic: IPC 0.0006807 < 0.01
Simulation CPU 0 panic: IPC 0.0038324 < 0.01
Simulation CPU 0 panic: IPC 0.0057279 < 0.01
Simulation CPU 0 panic: IPC 0.0074519 < 0.01
Simulation CPU 0 critical: IPC 0.011126 < 0.02
Simulation CPU 0 panic: IPC 0.0002364 < 0.01
Simulation CPU 0 panic: IPC 0.0003667 < 0.01
Simulation CPU 0 panic: IPC 0.0006031 < 0.01
Simulation CPU 0 panic: IPC 0.0002563 < 0.01
Simulation CPU 0 panic: IPC 0.0002463 < 0.01
Simulation CPU 0 panic: IPC 0.0002461 < 0.01
Heartbeat CPU 0 instructions: 10000002 cycles: 930019168 heartbeat IPC: 0.01075 cumulative IPC: 0.01075 (Simulation time: 01 hr 27 min 29 sec)
Heartbeat CPU 0 instructions: 20000003 cycles: 945069827 heartbeat IPC: 0.6644 cumulative IPC: 0.02116 (Simulation time: 01 hr 29 min 03 sec)
Heartbeat CPU 0 instructions: 30000006 cycles: 950875725 heartbeat IPC: 1.722 cumulative IPC: 0.03155 (Simulation time: 01 hr 29 min 50 sec)
Heartbeat CPU 0 instructions: 40000006 cycles: 984402205 heartbeat IPC: 0.2983 cumulative IPC: 0.04063 (Simulation time: 01 hr 33 min 07 sec)
Simulation CPU 0 panic: IPC 0.0065411 < 0.01
Heartbeat CPU 0 instructions: 50000010 cycles: 1036289628 heartbeat IPC: 0.1927 cumulative IPC: 0.04825 (Simulation time: 01 hr 38 min 32 sec)
Heartbeat CPU 0 instructions: 60000011 cycles: 1051185185 heartbeat IPC: 0.6713 cumulative IPC: 0.05708 (Simulation time: 01 hr 39 min 59 sec)
Heartbeat CPU 0 instructions: 70000011 cycles: 1056695058 heartbeat IPC: 1.815 cumulative IPC: 0.06624 (Simulation time: 01 hr 40 min 41 sec)
Simulation CPU 0 panic: IPC 1e-06 < 0.01
Simulation CPU 0 panic: IPC 1.4e-06 < 0.01
Simulation CPU 0 panic: IPC 3e-07 < 0.01
Simulation CPU 0 panic: IPC 9.82e-05 < 0.01
Simulation CPU 0 critical: IPC 0.010314 < 0.02
Simulation CPU 0 panic: IPC 0.0092325 < 0.01
Simulation CPU 0 warning: IPC 0.043496 < 0.05
Simulation CPU 0 panic: IPC 1.16e-05 < 0.01
Simulation CPU 0 panic: IPC 0.003754 < 0.01
Simulation CPU 0 panic: IPC 0.0004161 < 0.01
Simulation CPU 0 panic: IPC 0.0033566 < 0.01
Simulation CPU 0 panic: IPC 0.0002445 < 0.01
Simulation CPU 0 panic: IPC 0.0002447 < 0.01
Simulation CPU 0 panic: IPC 0.0002405 < 0.01
Simulation CPU 0 panic: IPC 0.0002343 < 0.01
Simulation CPU 0 panic: IPC 0.0002301 < 0.01
Simulation CPU 0 warning: IPC 0.045435 < 0.05
Heartbeat CPU 0 instructions: 80000014 cycles: 1255829717 heartbeat IPC: 0.05022 cumulative IPC: 0.0637 (Simulation time: 01 hr 59 min 09 sec)
Heartbeat CPU 0 instructions: 90000016 cycles: 1271139930 heartbeat IPC: 0.6532 cumulative IPC: 0.0708 (Simulation time: 02 hr 01 min 04 sec)
Simulation CPU 0 panic: IPC 0.0077634 < 0.01
Simulation CPU 0 panic: IPC 0.0006831 < 0.01
Heartbeat CPU 0 instructions: 100000020 cycles: 1322627765 heartbeat IPC: 0.1942 cumulative IPC: 0.07561 (Simulation time: 02 hr 06 min 20 sec)
Simulation CPU 0 critical: IPC 0.014643 < 0.02
Simulation CPU 0 critical: IPC 0.014642 < 0.02
Simulation CPU 0 warning: IPC 0.024537 < 0.05
Simulation CPU 0 panic: IPC 0.0003929 < 0.01
Heartbeat CPU 0 instructions: 110000020 cycles: 1420385688 heartbeat IPC: 0.1023 cumulative IPC: 0.07744 (Simulation time: 02 hr 15 min 33 sec)
Heartbeat CPU 0 instructions: 120000021 cycles: 1462438108 heartbeat IPC: 0.2378 cumulative IPC: 0.08205 (Simulation time: 02 hr 20 min 16 sec)
Simulation CPU 0 critical: IPC 0.011778 < 0.02
Simulation CPU 0 warning: IPC 0.022124 < 0.05
Heartbeat CPU 0 instructions: 130000024 cycles: 1513442481 heartbeat IPC: 0.1961 cumulative IPC: 0.0859 (Simulation time: 02 hr 24 min 27 sec)
Simulation CPU 0 critical: IPC 0.012534 < 0.02
Heartbeat CPU 0 instructions: 140000028 cycles: 1545171537 heartbeat IPC: 0.3152 cumulative IPC: 0.0906 (Simulation time: 02 hr 27 min 19 sec)
Heartbeat CPU 0 instructions: 150000030 cycles: 1549627865 heartbeat IPC: 2.244 cumulative IPC: 0.0968 (Simulation time: 02 hr 27 min 47 sec)
Simulation CPU 0 critical: IPC 0.012398 < 0.02
Heartbeat CPU 0 instructions: 160000030 cycles: 1572316912 heartbeat IPC: 0.4407 cumulative IPC: 0.1018 (Simulation time: 02 hr 29 min 59 sec)
Simulation CPU 0 panic: IPC 0.0002463 < 0.01
Simulation CPU 0 panic: IPC 0.0002463 < 0.01
Simulation CPU 0 critical: IPC 0.017864 < 0.02
Heartbeat CPU 0 instructions: 170000030 cycles: 1623306980 heartbeat IPC: 0.1961 cumulative IPC: 0.1047 (Simulation time: 02 hr 34 min 29 sec)
Heartbeat CPU 0 instructions: 180000031 cycles: 1647808840 heartbeat IPC: 0.4081 cumulative IPC: 0.1092 (Simulation time: 02 hr 36 min 32 sec)
Heartbeat CPU 0 instructions: 190000031 cycles: 1653784092 heartbeat IPC: 1.674 cumulative IPC: 0.1149 (Simulation time: 02 hr 37 min 14 sec)
Heartbeat CPU 0 instructions: 200000032 cycles: 1659779033 heartbeat IPC: 1.668 cumulative IPC: 0.1205 (Simulation time: 02 hr 37 min 49 sec)
Heartbeat CPU 0 instructions: 210000032 cycles: 1675008454 heartbeat IPC: 0.6566 cumulative IPC: 0.1254 (Simulation time: 02 hr 39 min 05 sec)
Heartbeat CPU 0 instructions: 220000032 cycles: 1680983396 heartbeat IPC: 1.674 cumulative IPC: 0.1309 (Simulation time: 02 hr 39 min 45 sec)
Heartbeat CPU 0 instructions: 230000035 cycles: 1686930752 heartbeat IPC: 1.681 cumulative IPC: 0.1363 (Simulation time: 02 hr 40 min 25 sec)
Heartbeat CPU 0 instructions: 240000036 cycles: 1692838334 heartbeat IPC: 1.693 cumulative IPC: 0.1418 (Simulation time: 02 hr 41 min 14 sec)
Heartbeat CPU 0 instructions: 250000039 cycles: 1716998580 heartbeat IPC: 0.4139 cumulative IPC: 0.1456 (Simulation time: 02 hr 43 min 34 sec)
Heartbeat CPU 0 instructions: 260000043 cycles: 1741521718 heartbeat IPC: 0.4078 cumulative IPC: 0.1493 (Simulation time: 02 hr 45 min 50 sec)
Heartbeat CPU 0 instructions: 270000044 cycles: 1756722985 heartbeat IPC: 0.6578 cumulative IPC: 0.1537 (Simulation time: 02 hr 47 min 32 sec)
Heartbeat CPU 0 instructions: 280000046 cycles: 1771710420 heartbeat IPC: 0.6672 cumulative IPC: 0.158 (Simulation time: 02 hr 49 min 06 sec)
Simulation CPU 0 warning: IPC 0.023305 < 0.05
Simulation CPU 0 panic: IPC 0.004895 < 0.01
Heartbeat CPU 0 instructions: 290000050 cycles: 1823458805 heartbeat IPC: 0.1932 cumulative IPC: 0.159 (Simulation time: 02 hr 54 min 10 sec)
Heartbeat CPU 0 instructions: 300000050 cycles: 1837936377 heartbeat IPC: 0.6907 cumulative IPC: 0.1632 (Simulation time: 02 hr 55 min 36 sec)
Heartbeat CPU 0 instructions: 310000051 cycles: 1842977921 heartbeat IPC: 1.984 cumulative IPC: 0.1682 (Simulation time: 02 hr 56 min 10 sec)
Heartbeat CPU 0 instructions: 320000051 cycles: 1847233914 heartbeat IPC: 2.35 cumulative IPC: 0.1732 (Simulation time: 02 hr 56 min 42 sec)
Heartbeat CPU 0 instructions: 330000055 cycles: 1852648844 heartbeat IPC: 1.847 cumulative IPC: 0.1781 (Simulation time: 02 hr 57 min 25 sec)
Simulation CPU 0 critical: IPC 0.0124 < 0.02
Heartbeat CPU 0 instructions: 340000056 cycles: 1875738928 heartbeat IPC: 0.4331 cumulative IPC: 0.1813 (Simulation time: 02 hr 59 min 42 sec)
Heartbeat CPU 0 instructions: 350000056 cycles: 1880520312 heartbeat IPC: 2.091 cumulative IPC: 0.1861 (Simulation time: 03 hr 00 min 19 sec)
Heartbeat CPU 0 instructions: 360000058 cycles: 1895792740 heartbeat IPC: 0.6548 cumulative IPC: 0.1899 (Simulation time: 03 hr 01 min 45 sec)
Heartbeat CPU 0 instructions: 370000059 cycles: 1901916449 heartbeat IPC: 1.633 cumulative IPC: 0.1945 (Simulation time: 03 hr 02 min 38 sec)
Heartbeat CPU 0 instructions: 380000059 cycles: 1908050765 heartbeat IPC: 1.63 cumulative IPC: 0.1992 (Simulation time: 03 hr 03 min 33 sec)
Heartbeat CPU 0 instructions: 390000059 cycles: 1914218156 heartbeat IPC: 1.621 cumulative IPC: 0.2037 (Simulation time: 03 hr 04 min 28 sec)
Heartbeat CPU 0 instructions: 400000059 cycles: 1920354349 heartbeat IPC: 1.63 cumulative IPC: 0.2083 (Simulation time: 03 hr 05 min 22 sec)
Heartbeat CPU 0 instructions: 410000063 cycles: 1935693103 heartbeat IPC: 0.6519 cumulative IPC: 0.2118 (Simulation time: 03 hr 07 min 09 sec)
Heartbeat CPU 0 instructions: 420000063 cycles: 1950943575 heartbeat IPC: 0.6557 cumulative IPC: 0.2153 (Simulation time: 03 hr 09 min 00 sec)
Heartbeat CPU 0 instructions: 430000065 cycles: 1956806029 heartbeat IPC: 1.706 cumulative IPC: 0.2197 (Simulation time: 03 hr 09 min 51 sec)
Simulation CPU 0 panic: IPC 0.0002104 < 0.01
Simulation CPU 0 panic: IPC 0.0001003 < 0.01
Simulation CPU 0 panic: IPC 0.006545 < 0.01
Heartbeat CPU 0 instructions: 440000065 cycles: 2017527455 heartbeat IPC: 0.1647 cumulative IPC: 0.2181 (Simulation time: 03 hr 15 min 58 sec)
Heartbeat CPU 0 instructions: 450000066 cycles: 2033631727 heartbeat IPC: 0.621 cumulative IPC: 0.2213 (Simulation time: 03 hr 17 min 17 sec)
Heartbeat CPU 0 instructions: 460000069 cycles: 2038896669 heartbeat IPC: 1.899 cumulative IPC: 0.2256 (Simulation time: 03 hr 17 min 49 sec)
Simulation CPU 0 panic: IPC 0.0081597 < 0.01
Heartbeat CPU 0 instructions: 470000072 cycles: 2081665038 heartbeat IPC: 0.2338 cumulative IPC: 0.2258 (Simulation time: 03 hr 21 min 39 sec)
Heartbeat CPU 0 instructions: 480000072 cycles: 2105499438 heartbeat IPC: 0.4196 cumulative IPC: 0.228 (Simulation time: 03 hr 24 min 24 sec)
Heartbeat CPU 0 instructions: 490000072 cycles: 2110261782 heartbeat IPC: 2.1 cumulative IPC: 0.2322 (Simulation time: 03 hr 25 min 06 sec)
Simulation CPU 0 critical: IPC 0.012516 < 0.02
Heartbeat CPU 0 instructions: 500000075 cycles: 2133375485 heartbeat IPC: 0.4326 cumulative IPC: 0.2344 (Simulation time: 03 hr 27 min 15 sec)
Heartbeat CPU 0 instructions: 510000076 cycles: 2137987100 heartbeat IPC: 2.168 cumulative IPC: 0.2385 (Simulation time: 03 hr 27 min 40 sec)
Simulation CPU 0 critical: IPC 0.0124 < 0.02
Heartbeat CPU 0 instructions: 520000078 cycles: 2161880975 heartbeat IPC: 0.4185 cumulative IPC: 0.2405 (Simulation time: 03 hr 29 min 36 sec)
Heartbeat CPU 0 instructions: 530000079 cycles: 2166262701 heartbeat IPC: 2.282 cumulative IPC: 0.2447 (Simulation time: 03 hr 30 min 00 sec)
Heartbeat CPU 0 instructions: 540000079 cycles: 2181299603 heartbeat IPC: 0.665 cumulative IPC: 0.2476 (Simulation time: 03 hr 31 min 25 sec)
Heartbeat CPU 0 instructions: 550000079 cycles: 2187297311 heartbeat IPC: 1.667 cumulative IPC: 0.2515 (Simulation time: 03 hr 32 min 20 sec)
Heartbeat CPU 0 instructions: 560000081 cycles: 2202572307 heartbeat IPC: 0.6547 cumulative IPC: 0.2542 (Simulation time: 03 hr 33 min 57 sec)
Heartbeat CPU 0 instructions: 570000084 cycles: 2208618079 heartbeat IPC: 1.654 cumulative IPC: 0.2581 (Simulation time: 03 hr 34 min 36 sec)
Heartbeat CPU 0 instructions: 580000084 cycles: 2223892380 heartbeat IPC: 0.6547 cumulative IPC: 0.2608 (Simulation time: 03 hr 36 min 02 sec)
Heartbeat CPU 0 instructions: 590000084 cycles: 2239148877 heartbeat IPC: 0.6555 cumulative IPC: 0.2635 (Simulation time: 03 hr 37 min 58 sec)
Heartbeat CPU 0 instructions: 600000087 cycles: 2245112314 heartbeat IPC: 1.677 cumulative IPC: 0.2672 (Simulation time: 03 hr 38 min 53 sec)
Heartbeat CPU 0 instructions: 610000090 cycles: 2251130665 heartbeat IPC: 1.662 cumulative IPC: 0.271 (Simulation time: 03 hr 39 min 49 sec)
Heartbeat CPU 0 instructions: 620000094 cycles: 2265083051 heartbeat IPC: 0.7167 cumulative IPC: 0.2737 (Simulation time: 03 hr 41 min 38 sec)
Heartbeat CPU 0 instructions: 630000096 cycles: 2291293160 heartbeat IPC: 0.3815 cumulative IPC: 0.275 (Simulation time: 03 hr 44 min 30 sec)
Heartbeat CPU 0 instructions: 640000096 cycles: 2297113001 heartbeat IPC: 1.718 cumulative IPC: 0.2786 (Simulation time: 03 hr 45 min 22 sec)
Heartbeat CPU 0 instructions: 650000097 cycles: 2312019489 heartbeat IPC: 0.6708 cumulative IPC: 0.2811 (Simulation time: 03 hr 46 min 57 sec)
Heartbeat CPU 0 instructions: 660000097 cycles: 2336074632 heartbeat IPC: 0.4157 cumulative IPC: 0.2825 (Simulation time: 03 hr 49 min 22 sec)
Heartbeat CPU 0 instructions: 670000097 cycles: 2349892290 heartbeat IPC: 0.7237 cumulative IPC: 0.2851 (Simulation time: 03 hr 50 min 39 sec)
Simulation CPU 0 warning: IPC 0.024074 < 0.05
Simulation CPU 0 critical: IPC 0.012575 < 0.02
Heartbeat CPU 0 instructions: 680000098 cycles: 2401429928 heartbeat IPC: 0.194 cumulative IPC: 0.2832 (Simulation time: 03 hr 55 min 15 sec)
Heartbeat CPU 0 instructions: 690000101 cycles: 2405008746 heartbeat IPC: 2.794 cumulative IPC: 0.2869 (Simulation time: 03 hr 55 min 39 sec)
Heartbeat CPU 0 instructions: 700000105 cycles: 2411228376 heartbeat IPC: 1.608 cumulative IPC: 0.2903 (Simulation time: 03 hr 56 min 26 sec)
Heartbeat CPU 0 instructions: 710000108 cycles: 2425171076 heartbeat IPC: 0.7172 cumulative IPC: 0.2928 (Simulation time: 03 hr 57 min 54 sec)
Heartbeat CPU 0 instructions: 720000109 cycles: 2439694879 heartbeat IPC: 0.6885 cumulative IPC: 0.2951 (Simulation time: 03 hr 59 min 16 sec)
Heartbeat CPU 0 instructions: 730000109 cycles: 2455279696 heartbeat IPC: 0.6417 cumulative IPC: 0.2973 (Simulation time: 04 hr 01 min 07 sec)
Heartbeat CPU 0 instructions: 740000109 cycles: 2461290370 heartbeat IPC: 1.664 cumulative IPC: 0.3007 (Simulation time: 04 hr 01 min 47 sec)
Heartbeat CPU 0 instructions: 750000112 cycles: 2467341977 heartbeat IPC: 1.652 cumulative IPC: 0.304 (Simulation time: 04 hr 02 min 32 sec)
Heartbeat CPU 0 instructions: 760000113 cycles: 2482619352 heartbeat IPC: 0.6546 cumulative IPC: 0.3061 (Simulation time: 04 hr 04 min 17 sec)
Heartbeat CPU 0 instructions: 770000113 cycles: 2497154753 heartbeat IPC: 0.688 cumulative IPC: 0.3084 (Simulation time: 04 hr 05 min 55 sec)
Heartbeat CPU 0 instructions: 780000113 cycles: 2512533745 heartbeat IPC: 0.6502 cumulative IPC: 0.3104 (Simulation time: 04 hr 07 min 04 sec)
Heartbeat CPU 0 instructions: 790000117 cycles: 2527906781 heartbeat IPC: 0.6505 cumulative IPC: 0.3125 (Simulation time: 04 hr 08 min 16 sec)
Heartbeat CPU 0 instructions: 800000117 cycles: 2533189044 heartbeat IPC: 1.893 cumulative IPC: 0.3158 (Simulation time: 04 hr 08 min 58 sec)
Heartbeat CPU 0 instructions: 810000118 cycles: 2577096288 heartbeat IPC: 0.2278 cumulative IPC: 0.3143 (Simulation time: 04 hr 12 min 51 sec)
Heartbeat CPU 0 instructions: 820000118 cycles: 2582979903 heartbeat IPC: 1.7 cumulative IPC: 0.3175 (Simulation time: 04 hr 13 min 39 sec)
Heartbeat CPU 0 instructions: 830000119 cycles: 2597717251 heartbeat IPC: 0.6785 cumulative IPC: 0.3195 (Simulation time: 04 hr 15 min 25 sec)
Simulation CPU 0 warning: IPC 0.039497 < 0.05
Heartbeat CPU 0 instructions: 840000120 cycles: 2648982252 heartbeat IPC: 0.1951 cumulative IPC: 0.3171 (Simulation time: 04 hr 20 min 27 sec)
Heartbeat CPU 0 instructions: 850000121 cycles: 2663490229 heartbeat IPC: 0.6893 cumulative IPC: 0.3191 (Simulation time: 04 hr 22 min 01 sec)
Heartbeat CPU 0 instructions: 860000122 cycles: 2668680292 heartbeat IPC: 1.927 cumulative IPC: 0.3223 (Simulation time: 04 hr 22 min 38 sec)
Simulation CPU 0 critical: IPC 0.012519 < 0.02
Heartbeat CPU 0 instructions: 870000123 cycles: 2691327361 heartbeat IPC: 0.4416 cumulative IPC: 0.3233 (Simulation time: 04 hr 24 min 30 sec)
Heartbeat CPU 0 instructions: 880000126 cycles: 2697328160 heartbeat IPC: 1.666 cumulative IPC: 0.3262 (Simulation time: 04 hr 25 min 13 sec)
Heartbeat CPU 0 instructions: 890000126 cycles: 2711498850 heartbeat IPC: 0.7057 cumulative IPC: 0.3282 (Simulation time: 04 hr 26 min 44 sec)
Heartbeat CPU 0 instructions: 900000130 cycles: 2716270716 heartbeat IPC: 2.096 cumulative IPC: 0.3313 (Simulation time: 04 hr 27 min 23 sec)
Heartbeat CPU 0 instructions: 910000130 cycles: 2731524789 heartbeat IPC: 0.6556 cumulative IPC: 0.3331 (Simulation time: 04 hr 28 min 35 sec)
Heartbeat CPU 0 instructions: 920000132 cycles: 2737505198 heartbeat IPC: 1.672 cumulative IPC: 0.3361 (Simulation time: 04 hr 29 min 26 sec)
Heartbeat CPU 0 instructions: 930000133 cycles: 2752766294 heartbeat IPC: 0.6553 cumulative IPC: 0.3378 (Simulation time: 04 hr 30 min 54 sec)
Heartbeat CPU 0 instructions: 940000133 cycles: 2758763270 heartbeat IPC: 1.668 cumulative IPC: 0.3407 (Simulation time: 04 hr 31 min 35 sec)
Heartbeat CPU 0 instructions: 950000133 cycles: 2773963485 heartbeat IPC: 0.6579 cumulative IPC: 0.3425 (Simulation time: 04 hr 33 min 10 sec)
Heartbeat CPU 0 instructions: 960000134 cycles: 2779915101 heartbeat IPC: 1.68 cumulative IPC: 0.3453 (Simulation time: 04 hr 34 min 04 sec)
Heartbeat CPU 0 instructions: 970000137 cycles: 2785992784 heartbeat IPC: 1.645 cumulative IPC: 0.3482 (Simulation time: 04 hr 34 min 56 sec)
Heartbeat CPU 0 instructions: 980000138 cycles: 2801324032 heartbeat IPC: 0.6523 cumulative IPC: 0.3498 (Simulation time: 04 hr 36 min 19 sec)
Heartbeat CPU 0 instructions: 990000139 cycles: 2824895463 heartbeat IPC: 0.4242 cumulative IPC: 0.3505 (Simulation time: 04 hr 38 min 23 sec)
Heartbeat CPU 0 instructions: 1000000141 cycles: 2832055126 heartbeat IPC: 1.397 cumulative IPC: 0.3531 (Simulation time: 04 hr 39 min 17 sec)
Heartbeat CPU 0 instructions: 1010000142 cycles: 2837513609 heartbeat IPC: 1.832 cumulative IPC: 0.3559 (Simulation time: 04 hr 40 min 05 sec)
Heartbeat CPU 0 instructions: 1020000143 cycles: 2852535447 heartbeat IPC: 0.6657 cumulative IPC: 0.3576 (Simulation time: 04 hr 42 min 01 sec)
Heartbeat CPU 0 instructions: 1030000147 cycles: 2904177422 heartbeat IPC: 0.1936 cumulative IPC: 0.3547 (Simulation time: 04 hr 47 min 38 sec)
Heartbeat CPU 0 instructions: 1040000147 cycles: 2918298758 heartbeat IPC: 0.7081 cumulative IPC: 0.3564 (Simulation time: 04 hr 49 min 16 sec)
Simulation CPU 0 warning: IPC 0.021947 < 0.05
Simulation CPU 0 critical: IPC 0.012568 < 0.02
Heartbeat CPU 0 instructions: 1050000147 cycles: 2969370282 heartbeat IPC: 0.1958 cumulative IPC: 0.3536 (Simulation time: 04 hr 53 min 38 sec)
Heartbeat CPU 0 instructions: 1060000151 cycles: 2973912972 heartbeat IPC: 2.201 cumulative IPC: 0.3564 (Simulation time: 04 hr 54 min 08 sec)
Simulation CPU 0 critical: IPC 0.012394 < 0.02
Heartbeat CPU 0 instructions: 1070000151 cycles: 2998595310 heartbeat IPC: 0.4051 cumulative IPC: 0.3568 (Simulation time: 04 hr 56 min 03 sec)
Heartbeat CPU 0 instructions: 1080000154 cycles: 3002966762 heartbeat IPC: 2.288 cumulative IPC: 0.3596 (Simulation time: 04 hr 56 min 36 sec)
Heartbeat CPU 0 instructions: 1090000154 cycles: 3017803525 heartbeat IPC: 0.674 cumulative IPC: 0.3612 (Simulation time: 04 hr 58 min 08 sec)
Heartbeat CPU 0 instructions: 1100000154 cycles: 3033165825 heartbeat IPC: 0.6509 cumulative IPC: 0.3627 (Simulation time: 04 hr 59 min 38 sec)
Heartbeat CPU 0 instructions: 1110000154 cycles: 3039142872 heartbeat IPC: 1.673 cumulative IPC: 0.3652 (Simulation time: 05 hr 00 min 14 sec)
Heartbeat CPU 0 instructions: 1120000154 cycles: 3045137386 heartbeat IPC: 1.668 cumulative IPC: 0.3678 (Simulation time: 05 hr 01 min 07 sec)
Heartbeat CPU 0 instructions: 1130000154 cycles: 3051157690 heartbeat IPC: 1.661 cumulative IPC: 0.3704 (Simulation time: 05 hr 02 min 01 sec)
Heartbeat CPU 0 instructions: 1140000154 cycles: 3057144017 heartbeat IPC: 1.67 cumulative IPC: 0.3729 (Simulation time: 05 hr 02 min 55 sec)
Heartbeat CPU 0 instructions: 1150000156 cycles: 3072374752 heartbeat IPC: 0.6566 cumulative IPC: 0.3743 (Simulation time: 05 hr 04 min 34 sec)
Heartbeat CPU 0 instructions: 1160000158 cycles: 3078512986 heartbeat IPC: 1.629 cumulative IPC: 0.3768 (Simulation time: 05 hr 05 min 11 sec)
Heartbeat CPU 0 instructions: 1170000162 cycles: 3092678575 heartbeat IPC: 0.7059 cumulative IPC: 0.3783 (Simulation time: 05 hr 06 min 31 sec)
Heartbeat CPU 0 instructions: 1180000163 cycles: 3137031614 heartbeat IPC: 0.2255 cumulative IPC: 0.3762 (Simulation time: 05 hr 10 min 25 sec)
Heartbeat CPU 0 instructions: 1190000166 cycles: 3142964973 heartbeat IPC: 1.685 cumulative IPC: 0.3786 (Simulation time: 05 hr 11 min 16 sec)
Heartbeat CPU 0 instructions: 1200000166 cycles: 3176420781 heartbeat IPC: 0.2989 cumulative IPC: 0.3778 (Simulation time: 05 hr 14 min 25 sec)
Heartbeat CPU 0 instructions: 1210000170 cycles: 3208948147 heartbeat IPC: 0.3074 cumulative IPC: 0.3771 (Simulation time: 05 hr 17 min 33 sec)
Heartbeat CPU 0 instructions: 1220000171 cycles: 3214133019 heartbeat IPC: 1.929 cumulative IPC: 0.3796 (Simulation time: 05 hr 18 min 15 sec)
Heartbeat CPU 0 instructions: 1230000175 cycles: 3219748372 heartbeat IPC: 1.781 cumulative IPC: 0.382 (Simulation time: 05 hr 19 min 04 sec)
Heartbeat CPU 0 instructions: 1240000175 cycles: 3223031088 heartbeat IPC: 3.046 cumulative IPC: 0.3847 (Simulation time: 05 hr 19 min 34 sec)
Heartbeat CPU 0 instructions: 1250000175 cycles: 3229639092 heartbeat IPC: 1.513 cumulative IPC: 0.387 (Simulation time: 05 hr 20 min 26 sec)
Heartbeat CPU 0 instructions: 1260000176 cycles: 3252669409 heartbeat IPC: 0.4342 cumulative IPC: 0.3874 (Simulation time: 05 hr 22 min 50 sec)
Heartbeat CPU 0 instructions: 1270000176 cycles: 3267031462 heartbeat IPC: 0.6963 cumulative IPC: 0.3887 (Simulation time: 05 hr 24 min 28 sec)
Heartbeat CPU 0 instructions: 1280000177 cycles: 3282430516 heartbeat IPC: 0.6494 cumulative IPC: 0.39 (Simulation time: 05 hr 26 min 22 sec)
Heartbeat CPU 0 instructions: 1290000179 cycles: 3288403485 heartbeat IPC: 1.674 cumulative IPC: 0.3923 (Simulation time: 05 hr 27 min 03 sec)
Heartbeat CPU 0 instructions: 1300000180 cycles: 3303633842 heartbeat IPC: 0.6566 cumulative IPC: 0.3935 (Simulation time: 05 hr 28 min 34 sec)
Heartbeat CPU 0 instructions: 1310000181 cycles: 3309596764 heartbeat IPC: 1.677 cumulative IPC: 0.3958 (Simulation time: 05 hr 29 min 11 sec)
Heartbeat CPU 0 instructions: 1320000181 cycles: 3315533142 heartbeat IPC: 1.685 cumulative IPC: 0.3981 (Simulation time: 05 hr 29 min 52 sec)
Heartbeat CPU 0 instructions: 1330000181 cycles: 3330702170 heartbeat IPC: 0.6592 cumulative IPC: 0.3993 (Simulation time: 05 hr 31 min 21 sec)
Heartbeat CPU 0 instructions: 1340000181 cycles: 3336872985 heartbeat IPC: 1.621 cumulative IPC: 0.4016 (Simulation time: 05 hr 32 min 10 sec)
Heartbeat CPU 0 instructions: 1350000184 cycles: 3361132388 heartbeat IPC: 0.4122 cumulative IPC: 0.4017 (Simulation time: 05 hr 34 min 36 sec)
Simulation CPU 0 panic: IPC 0.0086739 < 0.01
Simulation CPU 0 panic: IPC 0.0063234 < 0.01
Heartbeat CPU 0 instructions: 1360000184 cycles: 3413902746 heartbeat IPC: 0.1895 cumulative IPC: 0.3984 (Simulation time: 05 hr 39 min 25 sec)
Heartbeat CPU 0 instructions: 1370000184 cycles: 3419786445 heartbeat IPC: 1.7 cumulative IPC: 0.4006 (Simulation time: 05 hr 40 min 04 sec)
Heartbeat CPU 0 instructions: 1380000186 cycles: 3434717905 heartbeat IPC: 0.6697 cumulative IPC: 0.4018 (Simulation time: 05 hr 41 min 44 sec)
Simulation CPU 0 panic: IPC 0.0081606 < 0.01
Heartbeat CPU 0 instructions: 1390000190 cycles: 3476994474 heartbeat IPC: 0.2365 cumulative IPC: 0.3998 (Simulation time: 05 hr 45 min 46 sec)
Heartbeat CPU 0 instructions: 1400000191 cycles: 3491572891 heartbeat IPC: 0.6859 cumulative IPC: 0.401 (Simulation time: 05 hr 47 min 40 sec)
Heartbeat CPU 0 instructions: 1410000193 cycles: 3496863831 heartbeat IPC: 1.89 cumulative IPC: 0.4032 (Simulation time: 05 hr 48 min 26 sec)
Simulation CPU 0 critical: IPC 0.012532 < 0.02
Heartbeat CPU 0 instructions: 1420000193 cycles: 3519526531 heartbeat IPC: 0.4413 cumulative IPC: 0.4035 (Simulation time: 05 hr 50 min 41 sec)
Heartbeat CPU 0 instructions: 1430000194 cycles: 3525554076 heartbeat IPC: 1.659 cumulative IPC: 0.4056 (Simulation time: 05 hr 51 min 29 sec)
Simulation CPU 0 critical: IPC 0.012398 < 0.02
Heartbeat CPU 0 instructions: 1440000195 cycles: 3549109601 heartbeat IPC: 0.4245 cumulative IPC: 0.4057 (Simulation time: 05 hr 54 min 08 sec)
Heartbeat CPU 0 instructions: 1450000197 cycles: 3553897205 heartbeat IPC: 2.089 cumulative IPC: 0.408 (Simulation time: 05 hr 54 min 49 sec)
Heartbeat CPU 0 instructions: 1460000197 cycles: 3569233139 heartbeat IPC: 0.6521 cumulative IPC: 0.4091 (Simulation time: 05 hr 56 min 44 sec)
Heartbeat CPU 0 instructions: 1470000198 cycles: 3575301537 heartbeat IPC: 1.648 cumulative IPC: 0.4112 (Simulation time: 05 hr 57 min 39 sec)
Heartbeat CPU 0 instructions: 1480000200 cycles: 3590639087 heartbeat IPC: 0.652 cumulative IPC: 0.4122 (Simulation time: 05 hr 59 min 25 sec)
Heartbeat CPU 0 instructions: 1490000200 cycles: 3596722802 heartbeat IPC: 1.644 cumulative IPC: 0.4143 (Simulation time: 06 hr 00 min 20 sec)
Heartbeat CPU 0 instructions: 1500000204 cycles: 3611996967 heartbeat IPC: 0.6547 cumulative IPC: 0.4153 (Simulation time: 06 hr 02 min 06 sec)
Heartbeat CPU 0 instructions: 1510000208 cycles: 3618087777 heartbeat IPC: 1.642 cumulative IPC: 0.4173 (Simulation time: 06 hr 03 min 01 sec)
Heartbeat CPU 0 instructions: 1520000212 cycles: 3633520144 heartbeat IPC: 0.648 cumulative IPC: 0.4183 (Simulation time: 06 hr 04 min 54 sec)
Heartbeat CPU 0 instructions: 1530000214 cycles: 3639698465 heartbeat IPC: 1.619 cumulative IPC: 0.4204 (Simulation time: 06 hr 05 min 49 sec)
Heartbeat CPU 0 instructions: 1540000214 cycles: 3654074778 heartbeat IPC: 0.6956 cumulative IPC: 0.4214 (Simulation time: 06 hr 07 min 38 sec)
Heartbeat CPU 0 instructions: 1550000214 cycles: 3670133557 heartbeat IPC: 0.6227 cumulative IPC: 0.4223 (Simulation time: 06 hr 09 min 39 sec)
Heartbeat CPU 0 instructions: 1560000216 cycles: 3675916951 heartbeat IPC: 1.729 cumulative IPC: 0.4244 (Simulation time: 06 hr 10 min 30 sec)
Simulation CPU 0 warning: IPC 0.035974 < 0.05
Heartbeat CPU 0 instructions: 1570000220 cycles: 3700249722 heartbeat IPC: 0.411 cumulative IPC: 0.4243 (Simulation time: 06 hr 13 min 08 sec)
Heartbeat CPU 0 instructions: 1580000222 cycles: 3724245153 heartbeat IPC: 0.4167 cumulative IPC: 0.4242 (Simulation time: 06 hr 16 min 01 sec)
Heartbeat CPU 0 instructions: 1590000223 cycles: 3738156392 heartbeat IPC: 0.7188 cumulative IPC: 0.4253 (Simulation time: 06 hr 17 min 31 sec)
Simulation CPU 0 warning: IPC 0.023814 < 0.05
Simulation CPU 0 critical: IPC 0.012525 < 0.02
Heartbeat CPU 0 instructions: 1600000227 cycles: 3789489202 heartbeat IPC: 0.1948 cumulative IPC: 0.4222 (Simulation time: 06 hr 22 min 43 sec)
Heartbeat CPU 0 instructions: 1610000228 cycles: 3793510125 heartbeat IPC: 2.487 cumulative IPC: 0.4244 (Simulation time: 06 hr 23 min 18 sec)
Heartbeat CPU 0 instructions: 1620000230 cycles: 3799789242 heartbeat IPC: 1.593 cumulative IPC: 0.4263 (Simulation time: 06 hr 24 min 08 sec)
Heartbeat CPU 0 instructions: 1630000232 cycles: 3813615640 heartbeat IPC: 0.7233 cumulative IPC: 0.4274 (Simulation time: 06 hr 25 min 41 sec)
Heartbeat CPU 0 instructions: 1640000234 cycles: 3818972751 heartbeat IPC: 1.867 cumulative IPC: 0.4294 (Simulation time: 06 hr 26 min 27 sec)
Heartbeat CPU 0 instructions: 1650000236 cycles: 3825303058 heartbeat IPC: 1.58 cumulative IPC: 0.4313 (Simulation time: 06 hr 27 min 24 sec)
Heartbeat CPU 0 instructions: 1660000238 cycles: 3831341315 heartbeat IPC: 1.656 cumulative IPC: 0.4333 (Simulation time: 06 hr 28 min 19 sec)
Heartbeat CPU 0 instructions: 1670000239 cycles: 3837375010 heartbeat IPC: 1.657 cumulative IPC: 0.4352 (Simulation time: 06 hr 29 min 14 sec)
Heartbeat CPU 0 instructions: 1680000243 cycles: 3861901159 heartbeat IPC: 0.4077 cumulative IPC: 0.435 (Simulation time: 06 hr 31 min 59 sec)
Heartbeat CPU 0 instructions: 1690000246 cycles: 3867963247 heartbeat IPC: 1.65 cumulative IPC: 0.4369 (Simulation time: 06 hr 32 min 48 sec)
Heartbeat CPU 0 instructions: 1700000247 cycles: 3874013005 heartbeat IPC: 1.653 cumulative IPC: 0.4388 (Simulation time: 06 hr 33 min 27 sec)
Heartbeat CPU 0 instructions: 1710000249 cycles: 3880235095 heartbeat IPC: 1.607 cumulative IPC: 0.4407 (Simulation time: 06 hr 34 min 09 sec)
Heartbeat CPU 0 instructions: 1720000249 cycles: 3894607383 heartbeat IPC: 0.6958 cumulative IPC: 0.4416 (Simulation time: 06 hr 35 min 50 sec)
Heartbeat CPU 0 instructions: 1730000252 cycles: 3929523439 heartbeat IPC: 0.2864 cumulative IPC: 0.4403 (Simulation time: 06 hr 39 min 31 sec)
Heartbeat CPU 0 instructions: 1740000254 cycles: 3935383320 heartbeat IPC: 1.707 cumulative IPC: 0.4421 (Simulation time: 06 hr 40 min 12 sec)
Simulation CPU 0 critical: IPC 0.011292 < 0.02
Heartbeat CPU 0 instructions: 1750000255 cycles: 3978233389 heartbeat IPC: 0.2334 cumulative IPC: 0.4399 (Simulation time: 06 hr 44 min 47 sec)
Simulation CPU 0 panic: IPC 0.0090653 < 0.01
Heartbeat CPU 0 instructions: 1760000257 cycles: 4020364672 heartbeat IPC: 0.2374 cumulative IPC: 0.4378 (Simulation time: 06 hr 49 min 25 sec)
Heartbeat CPU 0 instructions: 1770000261 cycles: 4025390288 heartbeat IPC: 1.99 cumulative IPC: 0.4397 (Simulation time: 06 hr 50 min 09 sec)
Simulation CPU 0 critical: IPC 0.013256 < 0.02
Heartbeat CPU 0 instructions: 1780000264 cycles: 4049465175 heartbeat IPC: 0.4154 cumulative IPC: 0.4396 (Simulation time: 06 hr 52 min 06 sec)
Heartbeat CPU 0 instructions: 1790000266 cycles: 4052676149 heartbeat IPC: 3.114 cumulative IPC: 0.4417 (Simulation time: 06 hr 52 min 34 sec)
Heartbeat CPU 0 instructions: 1800000270 cycles: 4059504787 heartbeat IPC: 1.464 cumulative IPC: 0.4434 (Simulation time: 06 hr 53 min 20 sec)
Heartbeat CPU 0 instructions: 1810000271 cycles: 4082506251 heartbeat IPC: 0.4348 cumulative IPC: 0.4434 (Simulation time: 06 hr 55 min 32 sec)
Heartbeat CPU 0 instructions: 1820000274 cycles: 4087861454 heartbeat IPC: 1.867 cumulative IPC: 0.4452 (Simulation time: 06 hr 56 min 06 sec)
Heartbeat CPU 0 instructions: 1830000274 cycles: 4103486739 heartbeat IPC: 0.64 cumulative IPC: 0.446 (Simulation time: 06 hr 57 min 59 sec)
Heartbeat CPU 0 instructions: 1840000275 cycles: 4109633730 heartbeat IPC: 1.627 cumulative IPC: 0.4477 (Simulation time: 06 hr 58 min 51 sec)
Heartbeat CPU 0 instructions: 1850000279 cycles: 4124976682 heartbeat IPC: 0.6518 cumulative IPC: 0.4485 (Simulation time: 07 hr 00 min 19 sec)
Heartbeat CPU 0 instructions: 1860000283 cycles: 4140348269 heartbeat IPC: 0.6506 cumulative IPC: 0.4492 (Simulation time: 07 hr 01 min 59 sec)
Heartbeat CPU 0 instructions: 1870000285 cycles: 4146525206 heartbeat IPC: 1.619 cumulative IPC: 0.451 (Simulation time: 07 hr 02 min 54 sec)
Heartbeat CPU 0 instructions: 1880000285 cycles: 4161953195 heartbeat IPC: 0.6482 cumulative IPC: 0.4517 (Simulation time: 07 hr 04 min 35 sec)
Heartbeat CPU 0 instructions: 1890000287 cycles: 4177490354 heartbeat IPC: 0.6436 cumulative IPC: 0.4524 (Simulation time: 07 hr 06 min 22 sec)
Heartbeat CPU 0 instructions: 1900000288 cycles: 4192335440 heartbeat IPC: 0.6736 cumulative IPC: 0.4532 (Simulation time: 07 hr 08 min 08 sec)
Simulation CPU 0 critical: IPC 0.016554 < 0.02
Heartbeat CPU 0 instructions: 1910000292 cycles: 4227003303 heartbeat IPC: 0.2885 cumulative IPC: 0.4519 (Simulation time: 07 hr 11 min 51 sec)
Heartbeat CPU 0 instructions: 1920000295 cycles: 4232613581 heartbeat IPC: 1.782 cumulative IPC: 0.4536 (Simulation time: 07 hr 12 min 39 sec)
Heartbeat CPU 0 instructions: 1930000299 cycles: 4237808663 heartbeat IPC: 1.925 cumulative IPC: 0.4554 (Simulation time: 07 hr 13 min 28 sec)
Heartbeat CPU 0 instructions: 1940000299 cycles: 4262391185 heartbeat IPC: 0.4068 cumulative IPC: 0.4551 (Simulation time: 07 hr 16 min 12 sec)
Heartbeat CPU 0 instructions: 1950000299 cycles: 4277125927 heartbeat IPC: 0.6787 cumulative IPC: 0.4559 (Simulation time: 07 hr 18 min 10 sec)
Heartbeat CPU 0 instructions: 1960000301 cycles: 4291260797 heartbeat IPC: 0.7075 cumulative IPC: 0.4567 (Simulation time: 07 hr 19 min 58 sec)
Simulation CPU 0 warning: IPC 0.021656 < 0.05
Heartbeat CPU 0 instructions: 1970000302 cycles: 4332832073 heartbeat IPC: 0.2406 cumulative IPC: 0.4547 (Simulation time: 07 hr 24 min 10 sec)
Heartbeat CPU 0 instructions: 1980000306 cycles: 4337659465 heartbeat IPC: 2.072 cumulative IPC: 0.4565 (Simulation time: 07 hr 24 min 49 sec)
Simulation CPU 0 critical: IPC 0.012394 < 0.02
Heartbeat CPU 0 instructions: 1990000307 cycles: 4362024997 heartbeat IPC: 0.4104 cumulative IPC: 0.4562 (Simulation time: 07 hr 27 min 32 sec)

=== ERROR PAGE STATISTICS ===
Mode: CYCLE
Error Cycle Interval: 7053240154 CPU cycles
Total Error Accesses: 0
==============================
Simulation finished CPU 0 instructions: 1999999926 cycles: 4366551711 cumulative IPC: 0.458 (Simulation time: 07 hr 28 min 11 sec)
Simulation complete CPU 0 instructions: 1999999926 cycles: 4366551711 cumulative IPC: 0.458 (Simulation time: 07 hr 28 min 11 sec)

ChampSim completed all CPUs

=== Simulation ===
CPU 0 runs test_traces/628.pop2_s-17B.champsimtrace.xz

Region of Interest Statistics

CPU 0 cumulative IPC: 0.458 instructions: 1999999926 cycles: 4366551711
CPU 0 Branch Prediction Accuracy: 97.16% MPKI: 4.393 Average ROB Occupancy at Mispredict: 77.21
Branch type MPKI
BRANCH_DIRECT_JUMP: 0.02883
BRANCH_INDIRECT: 0.0006925
BRANCH_CONDITIONAL: 4.321
BRANCH_DIRECT_CALL: 0.0002875
BRANCH_INDIRECT_CALL: 0
BRANCH_RETURN: 0.04196

cpu0->cpu0_STLB TOTAL        ACCESS:      58788 HIT:      58426 MISS:        362 MSHR_MERGE:          0
cpu0->cpu0_STLB LOAD         ACCESS:      58788 HIT:      58426 MISS:        362 MSHR_MERGE:          0
cpu0->cpu0_STLB RFO          ACCESS:          0 HIT:          0 MISS:          0 MSHR_MERGE:          0
cpu0->cpu0_STLB PREFETCH     ACCESS:          0 HIT:          0 MISS:          0 MSHR_MERGE:          0
cpu0->cpu0_STLB WRITE        ACCESS:          0 HIT:          0 MISS:          0 MSHR_MERGE:          0
cpu0->cpu0_STLB TRANSLATION  ACCESS:          0 HIT:          0 MISS:          0 MSHR_MERGE:          0
cpu0->cpu0_STLB PREFETCH REQUESTED:          0 ISSUED:          0 USEFUL:          0 USELESS:          0
cpu0->cpu0_STLB AVERAGE MISS LATENCY: 9.342e+06 cycles
cpu0->cpu0_L2C TOTAL        ACCESS:   43523376 HIT:   30817987 MISS:   12705389 MSHR_MERGE:          0
cpu0->cpu0_L2C LOAD         ACCESS:   20308667 HIT:   11673279 MISS:    8635388 MSHR_MERGE:          0
cpu0->cpu0_L2C RFO          ACCESS:    9924937 HIT:    5862121 MISS:    4062816 MSHR_MERGE:          0
cpu0->cpu0_L2C PREFETCH     ACCESS:          0 HIT:          0 MISS:          0 MSHR_MERGE:          0
cpu0->cpu0_L2C WRITE        ACCESS:   13289772 HIT:   13282587 MISS:       7185 MSHR_MERGE:          0
cpu0->cpu0_L2C TRANSLATION  ACCESS:          0 HIT:          0 MISS:          0 MSHR_MERGE:          0
cpu0->cpu0_L2C PREFETCH REQUESTED:          0 ISSUED:          0 USEFUL:          0 USELESS:          0
cpu0->cpu0_L2C AVERAGE MISS LATENCY: 74.98 cycles
cpu0->cpu0_L1I TOTAL        ACCESS:  103667019 HIT:  101718453 MISS:    1948566 MSHR_MERGE:     958019
cpu0->cpu0_L1I LOAD         ACCESS:  103667019 HIT:  101718453 MISS:    1948566 MSHR_MERGE:     958019
cpu0->cpu0_L1I RFO          ACCESS:          0 HIT:          0 MISS:          0 MSHR_MERGE:          0
cpu0->cpu0_L1I PREFETCH     ACCESS:          0 HIT:          0 MISS:          0 MSHR_MERGE:          0
cpu0->cpu0_L1I WRITE        ACCESS:          0 HIT:          0 MISS:          0 MSHR_MERGE:          0
cpu0->cpu0_L1I TRANSLATION  ACCESS:          0 HIT:          0 MISS:          0 MSHR_MERGE:          0
cpu0->cpu0_L1I PREFETCH REQUESTED:          0 ISSUED:          0 USEFUL:          0 USELESS:          0
cpu0->cpu0_L1I AVERAGE MISS LATENCY: 27.42 cycles
cpu0->cpu0_L1D TOTAL        ACCESS:  498240243 HIT:  423483240 MISS:   74757003 MSHR_MERGE:   45513630
cpu0->cpu0_L1D LOAD         ACCESS:  364077030 HIT:  324124023 MISS:   39953007 MSHR_MERGE:   20634749
cpu0->cpu0_L1D RFO          ACCESS:          0 HIT:          0 MISS:          0 MSHR_MERGE:          0
cpu0->cpu0_L1D PREFETCH     ACCESS:          0 HIT:          0 MISS:          0 MSHR_MERGE:          0
cpu0->cpu0_L1D WRITE        ACCESS:  134163213 HIT:   99359217 MISS:   34803996 MSHR_MERGE:   24878881
cpu0->cpu0_L1D TRANSLATION  ACCESS:          0 HIT:          0 MISS:          0 MSHR_MERGE:          0
cpu0->cpu0_L1D PREFETCH REQUESTED:          0 ISSUED:          0 USEFUL:          0 USELESS:          0
cpu0->cpu0_L1D AVERAGE MISS LATENCY: 40.45 cycles
cpu0->cpu0_ITLB TOTAL        ACCESS:   86607352 HIT:   86607343 MISS:          9 MSHR_MERGE:          3
cpu0->cpu0_ITLB LOAD         ACCESS:   86607352 HIT:   86607343 MISS:          9 MSHR_MERGE:          3
cpu0->cpu0_ITLB RFO          ACCESS:          0 HIT:          0 MISS:          0 MSHR_MERGE:          0
cpu0->cpu0_ITLB PREFETCH     ACCESS:          0 HIT:          0 MISS:          0 MSHR_MERGE:          0
cpu0->cpu0_ITLB WRITE        ACCESS:          0 HIT:          0 MISS:          0 MSHR_MERGE:          0
cpu0->cpu0_ITLB TRANSLATION  ACCESS:          0 HIT:          0 MISS:          0 MSHR_MERGE:          0
cpu0->cpu0_ITLB PREFETCH REQUESTED:          0 ISSUED:          0 USEFUL:          0 USELESS:          0
cpu0->cpu0_ITLB AVERAGE MISS LATENCY: 1.078e+07 cycles
cpu0->cpu0_DTLB TOTAL        ACCESS:  432889778 HIT:  432762877 MISS:     126901 MSHR_MERGE:      68119
cpu0->cpu0_DTLB LOAD         ACCESS:  432889778 HIT:  432762877 MISS:     126901 MSHR_MERGE:      68119
cpu0->cpu0_DTLB RFO          ACCESS:          0 HIT:          0 MISS:          0 MSHR_MERGE:          0
cpu0->cpu0_DTLB PREFETCH     ACCESS:          0 HIT:          0 MISS:          0 MSHR_MERGE:          0
cpu0->cpu0_DTLB WRITE        ACCESS:          0 HIT:          0 MISS:          0 MSHR_MERGE:          0
cpu0->cpu0_DTLB TRANSLATION  ACCESS:          0 HIT:          0 MISS:          0 MSHR_MERGE:          0
cpu0->cpu0_DTLB PREFETCH REQUESTED:          0 ISSUED:          0 USEFUL:          0 USELESS:          0
cpu0->cpu0_DTLB AVERAGE MISS LATENCY: 5.643e+04 cycles
cpu0->LLC TOTAL        ACCESS:   18541828 HIT:   11400288 MISS:    7141540 MSHR_MERGE:          0
cpu0->LLC LOAD         ACCESS:    8635388 HIT:    4231021 MISS:    4404367 MSHR_MERGE:          0
cpu0->LLC RFO          ACCESS:    4062816 HIT:    1383804 MISS:    2679012 MSHR_MERGE:          0
cpu0->LLC PREFETCH     ACCESS:          0 HIT:          0 MISS:          0 MSHR_MERGE:          0
cpu0->LLC WRITE        ACCESS:    5843624 HIT:    5785463 MISS:      58161 MSHR_MERGE:          0
cpu0->LLC TRANSLATION  ACCESS:          0 HIT:          0 MISS:          0 MSHR_MERGE:          0
cpu0->LLC PREFETCH REQUESTED:          0 ISSUED:          0 USEFUL:          0 USELESS:          0
cpu0->LLC AVERAGE MISS LATENCY: 105.8 cycles

DRAM Statistics

Channel 0 RQ ROW_BUFFER_HIT:     327085
  ROW_BUFFER_MISS:    3214654
  AVG DBUS CONGESTED CYCLE: 10.79
Channel 0 WQ ROW_BUFFER_HIT:     366792
  ROW_BUFFER_MISS:    1434018
  FULL:       1210
Channel 0 REFRESHES ISSUED:     363856

Channel 1 RQ ROW_BUFFER_HIT:     326933
  ROW_BUFFER_MISS:    3215343
  AVG DBUS CONGESTED CYCLE: 10.78
Channel 1 WQ ROW_BUFFER_HIT:     363953
  ROW_BUFFER_MISS:    1436843
  FULL:       1546
Channel 1 REFRESHES ISSUED:     363856
