
*** ChampSim Multicore Out-of-Order Simulator ***
Warmup Instructions: 0
Simulation Instructions: 9223372036854775807
Number of CPUs: 1
Page size: 1048576

Off-chip DRAM Size: 32 GiB Channels: 2 Width: 32-bit Data Rate: 4807 MT/s
[ERROR_PAGE_MANAGER] Error latency: 2459910500 
[ERROR_PAGE_MANAGER] Random seed: 54321 (fixed for preload reproducibility)
[ERROR_PAGE_MANAGER] Cycle-based error modeling enabled
[ERROR_PAGE_MANAGER] Errors per interval: 1
[ERROR_PAGE_MANAGER] Error cycle interval: 70532401 cycles

=== ERROR PAGE STATISTICS ===
Mode: CYCLE
Error Cycle Interval: 70532401 CPU cycles
Total Error Accesses: 0
==============================
Warmup finished CPU 0 instructions: 0 cycles: 1 cumulative IPC: 0 (Simulation time: 00 hr 00 min 00 sec)
Warmup complete CPU 0 instructions: 0 cycles: 1 cumulative IPC: 0 (Simulation time: 00 hr 00 min 00 sec)
Simulation CPU 0 panic: IPC 0 < 0.01
Simulation CPU 0 panic: IPC 2e-07 < 0.01
Simulation CPU 0 panic: IPC 0 < 0.01
Simulation CPU 0 panic: IPC 8.5e-06 < 0.01
Simulation CPU 0 panic: IPC 5.64e-05 < 0.01
Simulation CPU 0 panic: IPC 7e-07 < 0.01
Simulation CPU 0 panic: IPC 0 < 0.01
[ERROR_CYCLE] Error added at CPU cycle 70532402, interval 1, pending count: 1
[DRAM_CYCLE_ERROR] Cycle-based error applied! address=0x1d1f110e8 additional_latency=2459910500 cycles
Simulation CPU 0 panic: IPC 0 < 0.01
Simulation CPU 0 panic: IPC 0.0002781 < 0.01
Simulation CPU 0 panic: IPC 0 < 0.01
Simulation CPU 0 panic: IPC 0 < 0.01
Simulation CPU 0 panic: IPC 4e-07 < 0.01
Simulation CPU 0 panic: IPC 0 < 0.01
Simulation CPU 0 panic: IPC 2.3e-06 < 0.01
[ERROR_CYCLE] Error added at CPU cycle 141064802, interval 2, pending count: 1
[DRAM_CYCLE_ERROR] Cycle-based error applied! address=0x537c38a80 additional_latency=2459910500 cycles
Simulation CPU 0 panic: IPC 3e-07 < 0.01
Simulation CPU 0 panic: IPC 2.7e-06 < 0.01
Simulation CPU 0 panic: IPC 3.82e-05 < 0.01
Simulation CPU 0 panic: IPC 2.12e-05 < 0.01
Simulation CPU 0 panic: IPC 1.04e-05 < 0.01
Simulation CPU 0 panic: IPC 3.11e-05 < 0.01
Simulation CPU 0 panic: IPC 2.18e-05 < 0.01
[ERROR_CYCLE] Error added at CPU cycle 211597203, interval 3, pending count: 1
[DRAM_CYCLE_ERROR] Cycle-based error applied! address=0x3dea0d2e8 additional_latency=2459910500 cycles
Simulation CPU 0 panic: IPC 5.1e-06 < 0.01
Simulation CPU 0 panic: IPC 2.62e-05 < 0.01
Simulation CPU 0 panic: IPC 2.89e-05 < 0.01
Heartbeat CPU 0 instructions: 10000002 cycles: 246178698 heartbeat IPC: 0.04062 cumulative IPC: 0.04062 (Simulation time: 00 hr 28 min 05 sec)
Heartbeat CPU 0 instructions: 20000002 cycles: 260284675 heartbeat IPC: 0.7089 cumulative IPC: 0.07684 (Simulation time: 00 hr 29 min 53 sec)
[ERROR_CYCLE] Error added at CPU cycle 282129604, interval 4, pending count: 1
[DRAM_CYCLE_ERROR] Cycle-based error applied! address=0x41d700000 additional_latency=2459910500 cycles
Simulation CPU 0 panic: IPC 0.0001858 < 0.01
Heartbeat CPU 0 instructions: 30000006 cycles: 293409214 heartbeat IPC: 0.3019 cumulative IPC: 0.1022 (Simulation time: 00 hr 33 min 23 sec)
Heartbeat CPU 0 instructions: 40000007 cycles: 316689556 heartbeat IPC: 0.4295 cumulative IPC: 0.1263 (Simulation time: 00 hr 36 min 35 sec)
Heartbeat CPU 0 instructions: 50000007 cycles: 330783090 heartbeat IPC: 0.7095 cumulative IPC: 0.1512 (Simulation time: 00 hr 38 min 41 sec)
Simulation CPU 0 critical: IPC 0.011888 < 0.02
[ERROR_CYCLE] Error added at CPU cycle 352662006, interval 5, pending count: 1
[DRAM_CYCLE_ERROR] Cycle-based error applied! address=0x537c66ee0 additional_latency=2459910500 cycles
Simulation CPU 0 panic: IPC 3.3e-06 < 0.01
Simulation CPU 0 panic: IPC 1.6e-06 < 0.01
Simulation CPU 0 panic: IPC 9.5e-06 < 0.01
Simulation CPU 0 panic: IPC 1.1e-05 < 0.01
Simulation CPU 0 panic: IPC 9.2e-06 < 0.01
Simulation CPU 0 panic: IPC 8.8e-06 < 0.01
Simulation CPU 0 panic: IPC 8.4e-06 < 0.01
[ERROR_CYCLE] Error added at CPU cycle 423194407, interval 6, pending count: 1
[DRAM_CYCLE_ERROR] Cycle-based error applied! address=0x5b1af65c0 additional_latency=2459910500 cycles
Simulation CPU 0 panic: IPC 5e-07 < 0.01
Simulation CPU 0 panic: IPC 8.9e-06 < 0.01
Simulation CPU 0 panic: IPC 8.2e-06 < 0.01
Simulation CPU 0 panic: IPC 6.9e-06 < 0.01
Simulation CPU 0 panic: IPC 1.1e-05 < 0.01
Simulation CPU 0 panic: IPC 7.8e-06 < 0.01
Simulation CPU 0 panic: IPC 1.75e-05 < 0.01
[ERROR_CYCLE] Error added at CPU cycle 493726807, interval 7, pending count: 1
[DRAM_CYCLE_ERROR] Cycle-based error applied! address=0x537c935b8 additional_latency=2459910500 cycles
Simulation CPU 0 panic: IPC 0 < 0.01
Simulation CPU 0 panic: IPC 7.4e-06 < 0.01
Simulation CPU 0 panic: IPC 9.5e-06 < 0.01
Simulation CPU 0 panic: IPC 7.3e-06 < 0.01
Simulation CPU 0 panic: IPC 9.5e-06 < 0.01
Simulation CPU 0 panic: IPC 7.3e-06 < 0.01
Simulation CPU 0 panic: IPC 9.5e-06 < 0.01
[ERROR_CYCLE] Error added at CPU cycle 564259208, interval 8, pending count: 1
[DRAM_CYCLE_ERROR] Cycle-based error applied! address=0x537ca0e78 additional_latency=2459910500 cycles
Simulation CPU 0 panic: IPC 7.3e-06 < 0.01
Simulation CPU 0 panic: IPC 0 < 0.01
Simulation CPU 0 panic: IPC 9.5e-06 < 0.01
Simulation CPU 0 panic: IPC 8e-06 < 0.01
Simulation CPU 0 panic: IPC 7.5e-06 < 0.01
Simulation CPU 0 panic: IPC 9.1e-06 < 0.01
Simulation CPU 0 panic: IPC 1.68e-05 < 0.01
[ERROR_CYCLE] Error added at CPU cycle 634791609, interval 9, pending count: 1
[DRAM_CYCLE_ERROR] Cycle-based error applied! address=0x41b400b48 additional_latency=2459910500 cycles
Simulation CPU 0 panic: IPC 0 < 0.01
Simulation CPU 0 panic: IPC 7.5e-06 < 0.01
Heartbeat CPU 0 instructions: 60000008 cycles: 672005197 heartbeat IPC: 0.02931 cumulative IPC: 0.08929 (Simulation time: 01 hr 17 min 25 sec)
Heartbeat CPU 0 instructions: 70000012 cycles: 678362359 heartbeat IPC: 1.573 cumulative IPC: 0.1032 (Simulation time: 01 hr 18 min 31 sec)
Heartbeat CPU 0 instructions: 80000013 cycles: 693965328 heartbeat IPC: 0.6409 cumulative IPC: 0.1153 (Simulation time: 01 hr 20 min 22 sec)
[ERROR_CYCLE] Error added at CPU cycle 705324011, interval 10, pending count: 1
[DRAM_CYCLE_ERROR] Cycle-based error applied! address=0x9099c480 additional_latency=2459910500 cycles
Simulation CPU 0 critical: IPC 0.010951 < 0.02
Heartbeat CPU 0 instructions: 90000014 cycles: 737899907 heartbeat IPC: 0.2276 cumulative IPC: 0.122 (Simulation time: 01 hr 25 min 32 sec)
Heartbeat CPU 0 instructions: 100000018 cycles: 753504870 heartbeat IPC: 0.6408 cumulative IPC: 0.1327 (Simulation time: 01 hr 27 min 25 sec)
Heartbeat CPU 0 instructions: 110000019 cycles: 769106361 heartbeat IPC: 0.641 cumulative IPC: 0.143 (Simulation time: 01 hr 29 min 34 sec)
[ERROR_CYCLE] Error added at CPU cycle 775856412, interval 11, pending count: 1
[DRAM_CYCLE_ERROR] Cycle-based error applied! address=0x7b1100000 additional_latency=2459910500 cycles
Simulation CPU 0 warning: IPC 0.025484 < 0.05
Heartbeat CPU 0 instructions: 120000019 cycles: 803790432 heartbeat IPC: 0.2883 cumulative IPC: 0.1493 (Simulation time: 01 hr 33 min 34 sec)
Heartbeat CPU 0 instructions: 130000020 cycles: 819425140 heartbeat IPC: 0.6396 cumulative IPC: 0.1586 (Simulation time: 01 hr 35 min 44 sec)
Heartbeat CPU 0 instructions: 140000022 cycles: 844241326 heartbeat IPC: 0.403 cumulative IPC: 0.1658 (Simulation time: 01 hr 38 min 44 sec)
[ERROR_CYCLE] Error added at CPU cycle 846388812, interval 12, pending count: 1
[DRAM_CYCLE_ERROR] Cycle-based error applied! address=0x506bd0f40 additional_latency=2459910500 cycles
Heartbeat CPU 0 instructions: 150000024 cycles: 869705268 heartbeat IPC: 0.3927 cumulative IPC: 0.1725 (Simulation time: 01 hr 41 min 52 sec)
Heartbeat CPU 0 instructions: 160000025 cycles: 894518568 heartbeat IPC: 0.403 cumulative IPC: 0.1789 (Simulation time: 01 hr 44 min 40 sec)
Heartbeat CPU 0 instructions: 170000025 cycles: 910112512 heartbeat IPC: 0.6413 cumulative IPC: 0.1868 (Simulation time: 01 hr 46 min 54 sec)
[ERROR_CYCLE] Error added at CPU cycle 916921213, interval 13, pending count: 1
[DRAM_CYCLE_ERROR] Cycle-based error applied! address=0x537cc1860 additional_latency=2459910500 cycles
Simulation CPU 0 panic: IPC 0 < 0.01
Heartbeat CPU 0 instructions: 180000026 cycles: 944760244 heartbeat IPC: 0.2886 cumulative IPC: 0.1905 (Simulation time: 01 hr 50 min 43 sec)
Heartbeat CPU 0 instructions: 190000027 cycles: 960315910 heartbeat IPC: 0.6429 cumulative IPC: 0.1979 (Simulation time: 01 hr 52 min 55 sec)
Heartbeat CPU 0 instructions: 200000029 cycles: 966641774 heartbeat IPC: 1.581 cumulative IPC: 0.2069 (Simulation time: 01 hr 53 min 44 sec)
[ERROR_CYCLE] Error added at CPU cycle 987453615, interval 14, pending count: 1
[DRAM_CYCLE_ERROR] Cycle-based error applied! address=0x335b00000 additional_latency=2459910500 cycles
Heartbeat CPU 0 instructions: 210000030 cycles: 1001307691 heartbeat IPC: 0.2885 cumulative IPC: 0.2097 (Simulation time: 01 hr 58 min 01 sec)
Heartbeat CPU 0 instructions: 220000032 cycles: 1007678850 heartbeat IPC: 1.57 cumulative IPC: 0.2183 (Simulation time: 01 hr 59 min 11 sec)
Heartbeat CPU 0 instructions: 230000034 cycles: 1023299929 heartbeat IPC: 0.6402 cumulative IPC: 0.2248 (Simulation time: 02 hr 01 min 25 sec)
Heartbeat CPU 0 instructions: 240000034 cycles: 1048219710 heartbeat IPC: 0.4013 cumulative IPC: 0.229 (Simulation time: 02 hr 04 min 47 sec)
[ERROR_CYCLE] Error added at CPU cycle 1057986016, interval 15, pending count: 1
[DRAM_CYCLE_ERROR] Cycle-based error applied! address=0x347200000 additional_latency=2459910500 cycles
Simulation CPU 0 panic: IPC 0 < 0.01
Heartbeat CPU 0 instructions: 250000034 cycles: 1073659565 heartbeat IPC: 0.3931 cumulative IPC: 0.2328 (Simulation time: 02 hr 07 min 42 sec)
Heartbeat CPU 0 instructions: 260000037 cycles: 1089290748 heartbeat IPC: 0.6397 cumulative IPC: 0.2387 (Simulation time: 02 hr 09 min 31 sec)
Heartbeat CPU 0 instructions: 270000041 cycles: 1095672902 heartbeat IPC: 1.567 cumulative IPC: 0.2464 (Simulation time: 02 hr 10 min 25 sec)
Heartbeat CPU 0 instructions: 280000041 cycles: 1120520191 heartbeat IPC: 0.4025 cumulative IPC: 0.2499 (Simulation time: 02 hr 13 min 20 sec)
[ERROR_CYCLE] Error added at CPU cycle 1128518416, interval 16, pending count: 1
[DRAM_CYCLE_ERROR] Cycle-based error applied! address=0xfcb00000 additional_latency=2459910500 cycles
Simulation CPU 0 panic: IPC 0 < 0.01
Heartbeat CPU 0 instructions: 290000042 cycles: 1145974493 heartbeat IPC: 0.3929 cumulative IPC: 0.2531 (Simulation time: 02 hr 16 min 10 sec)
Heartbeat CPU 0 instructions: 300000046 cycles: 1161602033 heartbeat IPC: 0.6399 cumulative IPC: 0.2583 (Simulation time: 02 hr 18 min 14 sec)
Heartbeat CPU 0 instructions: 310000049 cycles: 1195674030 heartbeat IPC: 0.2935 cumulative IPC: 0.2593 (Simulation time: 02 hr 22 min 15 sec)
[ERROR_CYCLE] Error added at CPU cycle 1199050817, interval 17, pending count: 1
[DRAM_CYCLE_ERROR] Cycle-based error applied! address=0x56bd3bb00 additional_latency=2459910500 cycles
Heartbeat CPU 0 instructions: 320000053 cycles: 1221068046 heartbeat IPC: 0.3938 cumulative IPC: 0.2621 (Simulation time: 02 hr 25 min 25 sec)
Heartbeat CPU 0 instructions: 330000054 cycles: 1227414887 heartbeat IPC: 1.576 cumulative IPC: 0.2689 (Simulation time: 02 hr 26 min 31 sec)
Heartbeat CPU 0 instructions: 340000056 cycles: 1261524404 heartbeat IPC: 0.2932 cumulative IPC: 0.2695 (Simulation time: 02 hr 29 min 49 sec)
Heartbeat CPU 0 instructions: 350000059 cycles: 1267840808 heartbeat IPC: 1.583 cumulative IPC: 0.2761 (Simulation time: 02 hr 30 min 52 sec)
[ERROR_CYCLE] Error added at CPU cycle 1269583218, interval 18, pending count: 1
[DRAM_CYCLE_ERROR] Cycle-based error applied! address=0x537cd6d78 additional_latency=2459910500 cycles
Simulation CPU 0 panic: IPC 0 < 0.01
Heartbeat CPU 0 instructions: 360000061 cycles: 1302456458 heartbeat IPC: 0.2889 cumulative IPC: 0.2764 (Simulation time: 02 hr 35 min 12 sec)
Heartbeat CPU 0 instructions: 370000061 cycles: 1308761751 heartbeat IPC: 1.586 cumulative IPC: 0.2827 (Simulation time: 02 hr 36 min 21 sec)
[ERROR_CYCLE] Error added at CPU cycle 1340115620, interval 19, pending count: 1
[DRAM_CYCLE_ERROR] Cycle-based error applied! address=0x793400000 additional_latency=2459910500 cycles
Simulation CPU 0 panic: IPC 0 < 0.01
Heartbeat CPU 0 instructions: 380000061 cycles: 1352653571 heartbeat IPC: 0.2278 cumulative IPC: 0.2809 (Simulation time: 02 hr 40 min 56 sec)
Heartbeat CPU 0 instructions: 390000065 cycles: 1359025607 heartbeat IPC: 1.569 cumulative IPC: 0.287 (Simulation time: 02 hr 41 min 54 sec)
Heartbeat CPU 0 instructions: 400000067 cycles: 1374617090 heartbeat IPC: 0.6414 cumulative IPC: 0.291 (Simulation time: 02 hr 44 min 07 sec)
Heartbeat CPU 0 instructions: 410000069 cycles: 1390215411 heartbeat IPC: 0.6411 cumulative IPC: 0.2949 (Simulation time: 02 hr 46 min 15 sec)
Heartbeat CPU 0 instructions: 420000070 cycles: 1396591816 heartbeat IPC: 1.568 cumulative IPC: 0.3007 (Simulation time: 02 hr 47 min 14 sec)
[ERROR_CYCLE] Error added at CPU cycle 1410648021, interval 20, pending count: 1
[DRAM_CYCLE_ERROR] Cycle-based error applied! address=0x537cdeeb0 additional_latency=2459910500 cycles
Simulation CPU 0 panic: IPC 0 < 0.01
Heartbeat CPU 0 instructions: 430000072 cycles: 1431379744 heartbeat IPC: 0.2875 cumulative IPC: 0.3004 (Simulation time: 02 hr 50 min 56 sec)
Heartbeat CPU 0 instructions: 440000074 cycles: 1437786762 heartbeat IPC: 1.561 cumulative IPC: 0.306 (Simulation time: 02 hr 51 min 49 sec)
Heartbeat CPU 0 instructions: 450000076 cycles: 1462626606 heartbeat IPC: 0.4026 cumulative IPC: 0.3077 (Simulation time: 02 hr 54 min 43 sec)
Heartbeat CPU 0 instructions: 460000077 cycles: 1478224194 heartbeat IPC: 0.6411 cumulative IPC: 0.3112 (Simulation time: 02 hr 56 min 47 sec)
[ERROR_CYCLE] Error added at CPU cycle 1481180421, interval 21, pending count: 1
[DRAM_CYCLE_ERROR] Cycle-based error applied! address=0x793433180 additional_latency=2459910500 cycles
Heartbeat CPU 0 instructions: 470000077 cycles: 1493814639 heartbeat IPC: 0.6414 cumulative IPC: 0.3146 (Simulation time: 02 hr 58 min 50 sec)
Heartbeat CPU 0 instructions: 480000079 cycles: 1509403919 heartbeat IPC: 0.6415 cumulative IPC: 0.318 (Simulation time: 03 hr 00 min 54 sec)
Heartbeat CPU 0 instructions: 490000079 cycles: 1524999266 heartbeat IPC: 0.6412 cumulative IPC: 0.3213 (Simulation time: 03 hr 03 min 08 sec)
Heartbeat CPU 0 instructions: 500000083 cycles: 1540614346 heartbeat IPC: 0.6404 cumulative IPC: 0.3245 (Simulation time: 03 hr 05 min 19 sec)
[ERROR_CYCLE] Error added at CPU cycle 1551712822, interval 22, pending count: 1
[DRAM_CYCLE_ERROR] Cycle-based error applied! address=0x4ab600000 additional_latency=2459910500 cycles
Simulation CPU 0 panic: IPC 0 < 0.01
Heartbeat CPU 0 instructions: 510000083 cycles: 1575315435 heartbeat IPC: 0.2882 cumulative IPC: 0.3237 (Simulation time: 03 hr 09 min 44 sec)
Heartbeat CPU 0 instructions: 520000083 cycles: 1600242783 heartbeat IPC: 0.4012 cumulative IPC: 0.325 (Simulation time: 03 hr 12 min 54 sec)
[ERROR_CYCLE] Error added at CPU cycle 1622245223, interval 23, pending count: 1
[DRAM_CYCLE_ERROR] Cycle-based error applied! address=0x5ce0d23c0 additional_latency=2459910500 cycles
Heartbeat CPU 0 instructions: 530000083 cycles: 1625128752 heartbeat IPC: 0.4018 cumulative IPC: 0.3261 (Simulation time: 03 hr 15 min 58 sec)
Heartbeat CPU 0 instructions: 540000085 cycles: 1640790985 heartbeat IPC: 0.6385 cumulative IPC: 0.3291 (Simulation time: 03 hr 18 min 03 sec)
Heartbeat CPU 0 instructions: 550000085 cycles: 1665671757 heartbeat IPC: 0.4019 cumulative IPC: 0.3302 (Simulation time: 03 hr 20 min 39 sec)
Heartbeat CPU 0 instructions: 560000085 cycles: 1681287916 heartbeat IPC: 0.6404 cumulative IPC: 0.3331 (Simulation time: 03 hr 22 min 46 sec)
Heartbeat CPU 0 instructions: 570000085 cycles: 1687652633 heartbeat IPC: 1.571 cumulative IPC: 0.3377 (Simulation time: 03 hr 23 min 54 sec)
[ERROR_CYCLE] Error added at CPU cycle 1692777625, interval 24, pending count: 1
[DRAM_CYCLE_ERROR] Cycle-based error applied! address=0x39d200000 additional_latency=2459910500 cycles
Simulation CPU 0 panic: IPC 0 < 0.01
Heartbeat CPU 0 instructions: 580000087 cycles: 1731581813 heartbeat IPC: 0.2276 cumulative IPC: 0.335 (Simulation time: 03 hr 29 min 28 sec)
Heartbeat CPU 0 instructions: 590000090 cycles: 1737966222 heartbeat IPC: 1.566 cumulative IPC: 0.3395 (Simulation time: 03 hr 30 min 39 sec)
[ERROR_CYCLE] Error added at CPU cycle 1763310025, interval 25, pending count: 1
[DRAM_CYCLE_ERROR] Cycle-based error applied! address=0x537cf53c8 additional_latency=2459910500 cycles
Simulation CPU 0 panic: IPC 0 < 0.01
Heartbeat CPU 0 instructions: 600000094 cycles: 1781899326 heartbeat IPC: 0.2276 cumulative IPC: 0.3367 (Simulation time: 03 hr 35 min 58 sec)
Heartbeat CPU 0 instructions: 610000096 cycles: 1788270444 heartbeat IPC: 1.57 cumulative IPC: 0.3411 (Simulation time: 03 hr 37 min 08 sec)
Heartbeat CPU 0 instructions: 620000098 cycles: 1813187846 heartbeat IPC: 0.4013 cumulative IPC: 0.3419 (Simulation time: 03 hr 40 min 01 sec)
Heartbeat CPU 0 instructions: 630000101 cycles: 1819578453 heartbeat IPC: 1.565 cumulative IPC: 0.3462 (Simulation time: 03 hr 41 min 04 sec)
[ERROR_CYCLE] Error added at CPU cycle 1833842426, interval 26, pending count: 1
[DRAM_CYCLE_ERROR] Cycle-based error applied! address=0x62ac00000 additional_latency=2459910500 cycles
Simulation CPU 0 panic: IPC 0 < 0.01
Heartbeat CPU 0 instructions: 640000105 cycles: 1845027905 heartbeat IPC: 0.3929 cumulative IPC: 0.3469 (Simulation time: 03 hr 44 min 29 sec)
Heartbeat CPU 0 instructions: 650000105 cycles: 1869878221 heartbeat IPC: 0.4024 cumulative IPC: 0.3476 (Simulation time: 03 hr 47 min 38 sec)
Heartbeat CPU 0 instructions: 660000105 cycles: 1876227222 heartbeat IPC: 1.575 cumulative IPC: 0.3518 (Simulation time: 03 hr 48 min 30 sec)
Heartbeat CPU 0 instructions: 670000107 cycles: 1891819050 heartbeat IPC: 0.6414 cumulative IPC: 0.3542 (Simulation time: 03 hr 50 min 23 sec)
[ERROR_CYCLE] Error added at CPU cycle 1904374827, interval 27, pending count: 1
[DRAM_CYCLE_ERROR] Cycle-based error applied! address=0xf2b57000 additional_latency=2459910500 cycles
Heartbeat CPU 0 instructions: 680000110 cycles: 1917254335 heartbeat IPC: 0.3932 cumulative IPC: 0.3547 (Simulation time: 03 hr 52 min 49 sec)
Heartbeat CPU 0 instructions: 690000112 cycles: 1932824008 heartbeat IPC: 0.6423 cumulative IPC: 0.357 (Simulation time: 03 hr 54 min 37 sec)
Heartbeat CPU 0 instructions: 700000113 cycles: 1948401672 heartbeat IPC: 0.6419 cumulative IPC: 0.3593 (Simulation time: 03 hr 56 min 55 sec)
Heartbeat CPU 0 instructions: 710000114 cycles: 1973283906 heartbeat IPC: 0.4019 cumulative IPC: 0.3598 (Simulation time: 04 hr 00 min 18 sec)
[ERROR_CYCLE] Error added at CPU cycle 1974907229, interval 28, pending count: 1
[DRAM_CYCLE_ERROR] Cycle-based error applied! address=0x5ea093fc0 additional_latency=2459910500 cycles
Heartbeat CPU 0 instructions: 720000116 cycles: 2007941433 heartbeat IPC: 0.2885 cumulative IPC: 0.3586 (Simulation time: 04 hr 04 min 54 sec)
Heartbeat CPU 0 instructions: 730000118 cycles: 2032761261 heartbeat IPC: 0.4029 cumulative IPC: 0.3591 (Simulation time: 04 hr 08 min 16 sec)
Heartbeat CPU 0 instructions: 740000120 cycles: 2039111857 heartbeat IPC: 1.575 cumulative IPC: 0.3629 (Simulation time: 04 hr 09 min 27 sec)
[ERROR_CYCLE] Error added at CPU cycle 2045439630, interval 29, pending count: 1
[DRAM_CYCLE_ERROR] Cycle-based error applied! address=0x3d5905638 additional_latency=2459910500 cycles
Simulation CPU 0 critical: IPC 0.013211 < 0.02
Heartbeat CPU 0 instructions: 750000120 cycles: 2073770220 heartbeat IPC: 0.2885 cumulative IPC: 0.3617 (Simulation time: 04 hr 14 min 03 sec)
Heartbeat CPU 0 instructions: 760000122 cycles: 2089356246 heartbeat IPC: 0.6416 cumulative IPC: 0.3637 (Simulation time: 04 hr 16 min 19 sec)
Heartbeat CPU 0 instructions: 770000124 cycles: 2114146734 heartbeat IPC: 0.4034 cumulative IPC: 0.3642 (Simulation time: 04 hr 19 min 43 sec)
[ERROR_CYCLE] Error added at CPU cycle 2115972030, interval 30, pending count: 1
[DRAM_CYCLE_ERROR] Cycle-based error applied! address=0x5ea0b8040 additional_latency=2459910500 cycles
Heartbeat CPU 0 instructions: 780000126 cycles: 2130306713 heartbeat IPC: 0.6188 cumulative IPC: 0.3661 (Simulation time: 04 hr 22 min 06 sec)
Heartbeat CPU 0 instructions: 790000126 cycles: 2145874086 heartbeat IPC: 0.6424 cumulative IPC: 0.3681 (Simulation time: 04 hr 24 min 24 sec)
Heartbeat CPU 0 instructions: 800000127 cycles: 2170721418 heartbeat IPC: 0.4025 cumulative IPC: 0.3685 (Simulation time: 04 hr 27 min 49 sec)
Heartbeat CPU 0 instructions: 810000128 cycles: 2177046926 heartbeat IPC: 1.581 cumulative IPC: 0.3721 (Simulation time: 04 hr 29 min 00 sec)
[ERROR_CYCLE] Error added at CPU cycle 2186504431, interval 31, pending count: 1
[DRAM_CYCLE_ERROR] Cycle-based error applied! address=0x28c700028 additional_latency=2459910500 cycles
Simulation CPU 0 panic: IPC 0 < 0.01
Heartbeat CPU 0 instructions: 820000131 cycles: 2211701024 heartbeat IPC: 0.2886 cumulative IPC: 0.3708 (Simulation time: 04 hr 33 min 34 sec)
Heartbeat CPU 0 instructions: 830000135 cycles: 2218061286 heartbeat IPC: 1.572 cumulative IPC: 0.3742 (Simulation time: 04 hr 34 min 45 sec)
Heartbeat CPU 0 instructions: 840000135 cycles: 2242940861 heartbeat IPC: 0.4019 cumulative IPC: 0.3745 (Simulation time: 04 hr 38 min 09 sec)
Heartbeat CPU 0 instructions: 850000139 cycles: 2249370047 heartbeat IPC: 1.555 cumulative IPC: 0.3779 (Simulation time: 04 hr 39 min 20 sec)
[ERROR_CYCLE] Error added at CPU cycle 2257036832, interval 32, pending count: 1
[DRAM_CYCLE_ERROR] Cycle-based error applied! address=0x3d59118c0 additional_latency=2459910500 cycles
Simulation CPU 0 panic: IPC 0 < 0.01
Heartbeat CPU 0 instructions: 860000143 cycles: 2274850382 heartbeat IPC: 0.3925 cumulative IPC: 0.378 (Simulation time: 04 hr 42 min 47 sec)
Heartbeat CPU 0 instructions: 870000143 cycles: 2299687570 heartbeat IPC: 0.4026 cumulative IPC: 0.3783 (Simulation time: 04 hr 46 min 11 sec)
Heartbeat CPU 0 instructions: 880000145 cycles: 2306035919 heartbeat IPC: 1.575 cumulative IPC: 0.3816 (Simulation time: 04 hr 47 min 22 sec)
Heartbeat CPU 0 instructions: 890000148 cycles: 2321607210 heartbeat IPC: 0.6422 cumulative IPC: 0.3834 (Simulation time: 04 hr 49 min 38 sec)
[ERROR_CYCLE] Error added at CPU cycle 2327569234, interval 33, pending count: 1
[DRAM_CYCLE_ERROR] Cycle-based error applied! address=0x89300000 additional_latency=2459910500 cycles
Simulation CPU 0 panic: IPC 0 < 0.01
Heartbeat CPU 0 instructions: 900000148 cycles: 2347098164 heartbeat IPC: 0.3923 cumulative IPC: 0.3835 (Simulation time: 04 hr 53 min 06 sec)
Heartbeat CPU 0 instructions: 910000148 cycles: 2362719162 heartbeat IPC: 0.6402 cumulative IPC: 0.3851 (Simulation time: 04 hr 55 min 22 sec)
Heartbeat CPU 0 instructions: 920000149 cycles: 2396812088 heartbeat IPC: 0.2933 cumulative IPC: 0.3838 (Simulation time: 05 hr 00 min 01 sec)
[ERROR_CYCLE] Error added at CPU cycle 2398101635, interval 34, pending count: 1
[DRAM_CYCLE_ERROR] Cycle-based error applied! address=0x5d59b4200 additional_latency=2459910500 cycles
Heartbeat CPU 0 instructions: 930000153 cycles: 2422263396 heartbeat IPC: 0.3929 cumulative IPC: 0.3839 (Simulation time: 05 hr 03 min 27 sec)
Heartbeat CPU 0 instructions: 940000154 cycles: 2456357254 heartbeat IPC: 0.2933 cumulative IPC: 0.3827 (Simulation time: 05 hr 07 min 57 sec)
[ERROR_CYCLE] Error added at CPU cycle 2468634035, interval 35, pending count: 1
[DRAM_CYCLE_ERROR] Cycle-based error applied! address=0x4cb00000 additional_latency=2459910500 cycles
Simulation CPU 0 panic: IPC 0 < 0.01
Heartbeat CPU 0 instructions: 950000154 cycles: 2481805898 heartbeat IPC: 0.3929 cumulative IPC: 0.3828 (Simulation time: 05 hr 11 min 23 sec)
Heartbeat CPU 0 instructions: 960000156 cycles: 2488205072 heartbeat IPC: 1.563 cumulative IPC: 0.3858 (Simulation time: 05 hr 12 min 34 sec)
Heartbeat CPU 0 instructions: 970000157 cycles: 2513021562 heartbeat IPC: 0.403 cumulative IPC: 0.386 (Simulation time: 05 hr 15 min 55 sec)
Heartbeat CPU 0 instructions: 980000158 cycles: 2528600489 heartbeat IPC: 0.6419 cumulative IPC: 0.3876 (Simulation time: 05 hr 18 min 11 sec)
[ERROR_CYCLE] Error added at CPU cycle 2539166436, interval 36, pending count: 1
[DRAM_CYCLE_ERROR] Cycle-based error applied! address=0x59ad00000 additional_latency=2459910500 cycles
Simulation CPU 0 panic: IPC 0 < 0.01
Simulation CPU 0 warning: IPC 0.025452 < 0.05
Heartbeat CPU 0 instructions: 990000158 cycles: 2572551249 heartbeat IPC: 0.2275 cumulative IPC: 0.3848 (Simulation time: 05 hr 23 min 52 sec)
Heartbeat CPU 0 instructions: 1000000159 cycles: 2578884414 heartbeat IPC: 1.579 cumulative IPC: 0.3878 (Simulation time: 05 hr 25 min 03 sec)
Heartbeat CPU 0 instructions: 1010000159 cycles: 2603692218 heartbeat IPC: 0.4031 cumulative IPC: 0.3879 (Simulation time: 05 hr 27 min 54 sec)
[ERROR_CYCLE] Error added at CPU cycle 2609698838, interval 37, pending count: 1
[DRAM_CYCLE_ERROR] Cycle-based error applied! address=0xdff00000 additional_latency=2459910500 cycles
Simulation CPU 0 panic: IPC 0 < 0.01
Heartbeat CPU 0 instructions: 1020000159 cycles: 2629121168 heartbeat IPC: 0.3933 cumulative IPC: 0.388 (Simulation time: 05 hr 31 min 15 sec)
Heartbeat CPU 0 instructions: 1030000163 cycles: 2635466686 heartbeat IPC: 1.576 cumulative IPC: 0.3908 (Simulation time: 05 hr 32 min 26 sec)
Heartbeat CPU 0 instructions: 1040000166 cycles: 2660319134 heartbeat IPC: 0.4024 cumulative IPC: 0.3909 (Simulation time: 05 hr 35 min 49 sec)
Heartbeat CPU 0 instructions: 1050000170 cycles: 2666712497 heartbeat IPC: 1.564 cumulative IPC: 0.3937 (Simulation time: 05 hr 37 min 01 sec)
[ERROR_CYCLE] Error added at CPU cycle 2680231239, interval 38, pending count: 1
[DRAM_CYCLE_ERROR] Cycle-based error applied! address=0x67f106940 additional_latency=2459910500 cycles
Simulation CPU 0 warning: IPC 0.03634 < 0.05
Heartbeat CPU 0 instructions: 1060000172 cycles: 2701418432 heartbeat IPC: 0.2881 cumulative IPC: 0.3924 (Simulation time: 05 hr 41 min 32 sec)
Heartbeat CPU 0 instructions: 1070000172 cycles: 2717040718 heartbeat IPC: 0.6401 cumulative IPC: 0.3938 (Simulation time: 05 hr 43 min 50 sec)
Heartbeat CPU 0 instructions: 1080000172 cycles: 2732691632 heartbeat IPC: 0.6389 cumulative IPC: 0.3952 (Simulation time: 05 hr 45 min 48 sec)
Heartbeat CPU 0 instructions: 1090000174 cycles: 2748287460 heartbeat IPC: 0.6412 cumulative IPC: 0.3966 (Simulation time: 05 hr 47 min 59 sec)
[ERROR_CYCLE] Error added at CPU cycle 2750763639, interval 39, pending count: 1
[DRAM_CYCLE_ERROR] Cycle-based error applied! address=0x67f11ed00 additional_latency=2459910500 cycles
Heartbeat CPU 0 instructions: 1100000174 cycles: 2773703551 heartbeat IPC: 0.3935 cumulative IPC: 0.3966 (Simulation time: 05 hr 51 min 16 sec)
Heartbeat CPU 0 instructions: 1110000176 cycles: 2789299345 heartbeat IPC: 0.6412 cumulative IPC: 0.3979 (Simulation time: 05 hr 53 min 30 sec)
Heartbeat CPU 0 instructions: 1120000177 cycles: 2804900236 heartbeat IPC: 0.641 cumulative IPC: 0.3993 (Simulation time: 05 hr 55 min 41 sec)
[ERROR_CYCLE] Error added at CPU cycle 2821296040, interval 40, pending count: 1
[DRAM_CYCLE_ERROR] Cycle-based error applied! address=0x3d5933398 additional_latency=2459910500 cycles
Simulation CPU 0 critical: IPC 0.017929 < 0.02
Heartbeat CPU 0 instructions: 1130000178 cycles: 2839573248 heartbeat IPC: 0.2884 cumulative IPC: 0.3979 (Simulation time: 06 hr 00 min 03 sec)
Heartbeat CPU 0 instructions: 1140000179 cycles: 2864371815 heartbeat IPC: 0.4032 cumulative IPC: 0.398 (Simulation time: 06 hr 03 min 16 sec)
Heartbeat CPU 0 instructions: 1150000182 cycles: 2879948824 heartbeat IPC: 0.642 cumulative IPC: 0.3993 (Simulation time: 06 hr 04 min 54 sec)
[ERROR_CYCLE] Error added at CPU cycle 2891828441, interval 41, pending count: 1
[DRAM_CYCLE_ERROR] Cycle-based error applied! address=0x53d00000 additional_latency=2459910500 cycles
Simulation CPU 0 panic: IPC 0 < 0.01
Heartbeat CPU 0 instructions: 1160000186 cycles: 2914622840 heartbeat IPC: 0.2884 cumulative IPC: 0.398 (Simulation time: 06 hr 08 min 53 sec)
Heartbeat CPU 0 instructions: 1170000186 cycles: 2930227805 heartbeat IPC: 0.6408 cumulative IPC: 0.3993 (Simulation time: 06 hr 11 min 08 sec)
Heartbeat CPU 0 instructions: 1180000189 cycles: 2955107983 heartbeat IPC: 0.4019 cumulative IPC: 0.3993 (Simulation time: 06 hr 14 min 29 sec)
Heartbeat CPU 0 instructions: 1190000189 cycles: 2961446340 heartbeat IPC: 1.578 cumulative IPC: 0.4018 (Simulation time: 06 hr 15 min 39 sec)
[ERROR_CYCLE] Error added at CPU cycle 2962360843, interval 42, pending count: 1
[DRAM_CYCLE_ERROR] Cycle-based error applied! address=0x54a04d140 additional_latency=2459910500 cycles
Heartbeat CPU 0 instructions: 1200000193 cycles: 2977620653 heartbeat IPC: 0.6183 cumulative IPC: 0.403 (Simulation time: 06 hr 17 min 58 sec)
Heartbeat CPU 0 instructions: 1210000195 cycles: 3011662946 heartbeat IPC: 0.2938 cumulative IPC: 0.4018 (Simulation time: 06 hr 22 min 26 sec)
Heartbeat CPU 0 instructions: 1220000198 cycles: 3017987449 heartbeat IPC: 1.581 cumulative IPC: 0.4042 (Simulation time: 06 hr 23 min 35 sec)
[ERROR_CYCLE] Error added at CPU cycle 3032893244, interval 43, pending count: 1
[DRAM_CYCLE_ERROR] Cycle-based error applied! address=0x22ba0bbc0 additional_latency=2459910500 cycles
Heartbeat CPU 0 instructions: 1230000200 cycles: 3042747600 heartbeat IPC: 0.4039 cumulative IPC: 0.4042 (Simulation time: 06 hr 26 min 58 sec)
Heartbeat CPU 0 instructions: 1240000204 cycles: 3049060854 heartbeat IPC: 1.584 cumulative IPC: 0.4067 (Simulation time: 06 hr 28 min 08 sec)
Heartbeat CPU 0 instructions: 1250000205 cycles: 3064633386 heartbeat IPC: 0.6422 cumulative IPC: 0.4079 (Simulation time: 06 hr 30 min 23 sec)
Heartbeat CPU 0 instructions: 1260000209 cycles: 3080251398 heartbeat IPC: 0.6403 cumulative IPC: 0.4091 (Simulation time: 06 hr 32 min 39 sec)
Heartbeat CPU 0 instructions: 1270000210 cycles: 3095914620 heartbeat IPC: 0.6384 cumulative IPC: 0.4102 (Simulation time: 06 hr 34 min 55 sec)
[ERROR_CYCLE] Error added at CPU cycle 3103425644, interval 44, pending count: 1
[DRAM_CYCLE_ERROR] Cycle-based error applied! address=0x247b00000 additional_latency=2459910500 cycles
Simulation CPU 0 panic: IPC 0 < 0.01
Heartbeat CPU 0 instructions: 1280000214 cycles: 3130577044 heartbeat IPC: 0.2885 cumulative IPC: 0.4089 (Simulation time: 06 hr 39 min 29 sec)
Heartbeat CPU 0 instructions: 1290000217 cycles: 3136912694 heartbeat IPC: 1.578 cumulative IPC: 0.4112 (Simulation time: 06 hr 40 min 39 sec)
Heartbeat CPU 0 instructions: 1300000220 cycles: 3152462455 heartbeat IPC: 0.6431 cumulative IPC: 0.4124 (Simulation time: 06 hr 42 min 53 sec)
Heartbeat CPU 0 instructions: 1310000222 cycles: 3168020533 heartbeat IPC: 0.6428 cumulative IPC: 0.4135 (Simulation time: 06 hr 45 min 09 sec)
[ERROR_CYCLE] Error added at CPU cycle 3173958045, interval 45, pending count: 1
[DRAM_CYCLE_ERROR] Cycle-based error applied! address=0x3d5948758 additional_latency=2459910500 cycles
Simulation CPU 0 panic: IPC 0 < 0.01
Heartbeat CPU 0 instructions: 1320000224 cycles: 3193429749 heartbeat IPC: 0.3936 cumulative IPC: 0.4133 (Simulation time: 06 hr 48 min 33 sec)
Heartbeat CPU 0 instructions: 1330000224 cycles: 3208987322 heartbeat IPC: 0.6428 cumulative IPC: 0.4145 (Simulation time: 06 hr 50 min 49 sec)
Heartbeat CPU 0 instructions: 1340000227 cycles: 3243014840 heartbeat IPC: 0.2939 cumulative IPC: 0.4132 (Simulation time: 06 hr 55 min 12 sec)
[ERROR_CYCLE] Error added at CPU cycle 3244490446, interval 46, pending count: 1
[DRAM_CYCLE_ERROR] Cycle-based error applied! address=0x67f1b7380 additional_latency=2459910500 cycles
Heartbeat CPU 0 instructions: 1350000231 cycles: 3268425531 heartbeat IPC: 0.3935 cumulative IPC: 0.413 (Simulation time: 06 hr 58 min 34 sec)
Heartbeat CPU 0 instructions: 1360000234 cycles: 3302517400 heartbeat IPC: 0.2933 cumulative IPC: 0.4118 (Simulation time: 07 hr 03 min 01 sec)
Heartbeat CPU 0 instructions: 1370000234 cycles: 3308873692 heartbeat IPC: 1.573 cumulative IPC: 0.414 (Simulation time: 07 hr 04 min 12 sec)
[ERROR_CYCLE] Error added at CPU cycle 3315022848, interval 47, pending count: 1
[DRAM_CYCLE_ERROR] Cycle-based error applied! address=0x3d59519e8 additional_latency=2459910500 cycles
Simulation CPU 0 panic: IPC 0 < 0.01
Heartbeat CPU 0 instructions: 1380000236 cycles: 3343494334 heartbeat IPC: 0.2888 cumulative IPC: 0.4127 (Simulation time: 07 hr 08 min 41 sec)
Heartbeat CPU 0 instructions: 1390000237 cycles: 3359047311 heartbeat IPC: 0.643 cumulative IPC: 0.4138 (Simulation time: 07 hr 10 min 57 sec)
Heartbeat CPU 0 instructions: 1400000239 cycles: 3383838634 heartbeat IPC: 0.4034 cumulative IPC: 0.4137 (Simulation time: 07 hr 14 min 19 sec)
[ERROR_CYCLE] Error added at CPU cycle 3385555249, interval 48, pending count: 1
[DRAM_CYCLE_ERROR] Cycle-based error applied! address=0x3d5956c90 additional_latency=2459910500 cycles
Simulation CPU 0 panic: IPC 0 < 0.01
Heartbeat CPU 0 instructions: 1410000242 cycles: 3409225220 heartbeat IPC: 0.3939 cumulative IPC: 0.4136 (Simulation time: 07 hr 17 min 47 sec)
Heartbeat CPU 0 instructions: 1420000244 cycles: 3415527776 heartbeat IPC: 1.587 cumulative IPC: 0.4157 (Simulation time: 07 hr 18 min 58 sec)
Heartbeat CPU 0 instructions: 1430000244 cycles: 3449553271 heartbeat IPC: 0.2939 cumulative IPC: 0.4145 (Simulation time: 07 hr 23 min 25 sec)
Heartbeat CPU 0 instructions: 1440000244 cycles: 3455875446 heartbeat IPC: 1.582 cumulative IPC: 0.4167 (Simulation time: 07 hr 24 min 36 sec)
[ERROR_CYCLE] Error added at CPU cycle 3456087649, interval 49, pending count: 1
[DRAM_CYCLE_ERROR] Cycle-based error applied! address=0x67f1f3c40 additional_latency=2459910500 cycles
Heartbeat CPU 0 instructions: 1450000247 cycles: 3490532072 heartbeat IPC: 0.2885 cumulative IPC: 0.4154 (Simulation time: 07 hr 29 min 08 sec)
Heartbeat CPU 0 instructions: 1460000251 cycles: 3496945726 heartbeat IPC: 1.559 cumulative IPC: 0.4175 (Simulation time: 07 hr 30 min 19 sec)
Heartbeat CPU 0 instructions: 1470000253 cycles: 3521776846 heartbeat IPC: 0.4027 cumulative IPC: 0.4174 (Simulation time: 07 hr 33 min 26 sec)
[ERROR_CYCLE] Error added at CPU cycle 3526620050, interval 50, pending count: 1
[DRAM_CYCLE_ERROR] Cycle-based error applied! address=0x3d595edc8 additional_latency=2459910500 cycles
Simulation CPU 0 panic: IPC 0 < 0.01
Heartbeat CPU 0 instructions: 1480000254 cycles: 3547206256 heartbeat IPC: 0.3932 cumulative IPC: 0.4172 (Simulation time: 07 hr 36 min 57 sec)
Heartbeat CPU 0 instructions: 1490000256 cycles: 3562770011 heartbeat IPC: 0.6425 cumulative IPC: 0.4182 (Simulation time: 07 hr 39 min 08 sec)
Heartbeat CPU 0 instructions: 1500000257 cycles: 3578326192 heartbeat IPC: 0.6428 cumulative IPC: 0.4192 (Simulation time: 07 hr 41 min 26 sec)
Heartbeat CPU 0 instructions: 1510000259 cycles: 3584636658 heartbeat IPC: 1.585 cumulative IPC: 0.4212 (Simulation time: 07 hr 42 min 36 sec)
[ERROR_CYCLE] Error added at CPU cycle 3597152452, interval 51, pending count: 1
[DRAM_CYCLE_ERROR] Cycle-based error applied! address=0xd0abbec0 additional_latency=2459910500 cycles
Heartbeat CPU 0 instructions: 1520000263 cycles: 3610014048 heartbeat IPC: 0.3941 cumulative IPC: 0.4211 (Simulation time: 07 hr 46 min 02 sec)
Heartbeat CPU 0 instructions: 1530000263 cycles: 3634794025 heartbeat IPC: 0.4036 cumulative IPC: 0.4209 (Simulation time: 07 hr 49 min 26 sec)
Heartbeat CPU 0 instructions: 1540000265 cycles: 3650347552 heartbeat IPC: 0.6429 cumulative IPC: 0.4219 (Simulation time: 07 hr 51 min 41 sec)
[ERROR_CYCLE] Error added at CPU cycle 3667684853, interval 52, pending count: 1
[DRAM_CYCLE_ERROR] Cycle-based error applied! address=0x3d5966f00 additional_latency=2459910500 cycles
Simulation CPU 0 panic: IPC 0 < 0.01
Heartbeat CPU 0 instructions: 1550000269 cycles: 3694275586 heartbeat IPC: 0.2276 cumulative IPC: 0.4196 (Simulation time: 07 hr 57 min 21 sec)
Heartbeat CPU 0 instructions: 1560000269 cycles: 3709790715 heartbeat IPC: 0.6445 cumulative IPC: 0.4205 (Simulation time: 07 hr 59 min 36 sec)
Heartbeat CPU 0 instructions: 1570000270 cycles: 3725326803 heartbeat IPC: 0.6437 cumulative IPC: 0.4214 (Simulation time: 08 hr 01 min 53 sec)
[ERROR_CYCLE] Error added at CPU cycle 3738217253, interval 53, pending count: 1
[DRAM_CYCLE_ERROR] Cycle-based error applied! address=0x4cb9de80 additional_latency=2459910500 cycles
Heartbeat CPU 0 instructions: 1580000270 cycles: 3759960046 heartbeat IPC: 0.2887 cumulative IPC: 0.4202 (Simulation time: 08 hr 06 min 24 sec)
Heartbeat CPU 0 instructions: 1590000270 cycles: 3766294543 heartbeat IPC: 1.579 cumulative IPC: 0.4222 (Simulation time: 08 hr 07 min 35 sec)
Heartbeat CPU 0 instructions: 1600000273 cycles: 3791105394 heartbeat IPC: 0.403 cumulative IPC: 0.422 (Simulation time: 08 hr 10 min 57 sec)
Heartbeat CPU 0 instructions: 1610000277 cycles: 3797427278 heartbeat IPC: 1.582 cumulative IPC: 0.424 (Simulation time: 08 hr 12 min 08 sec)
[ERROR_CYCLE] Error added at CPU cycle 3808749654, interval 54, pending count: 1
[DRAM_CYCLE_ERROR] Cycle-based error applied! address=0x7f4300000 additional_latency=2459910500 cycles
Simulation CPU 0 panic: IPC 0 < 0.01
Heartbeat CPU 0 instructions: 1620000279 cycles: 3832049254 heartbeat IPC: 0.2888 cumulative IPC: 0.4228 (Simulation time: 08 hr 16 min 37 sec)
Heartbeat CPU 0 instructions: 1630000279 cycles: 3847597141 heartbeat IPC: 0.6432 cumulative IPC: 0.4236 (Simulation time: 08 hr 18 min 55 sec)
Heartbeat CPU 0 instructions: 1640000279 cycles: 3863207398 heartbeat IPC: 0.6406 cumulative IPC: 0.4245 (Simulation time: 08 hr 21 min 10 sec)
Heartbeat CPU 0 instructions: 1650000280 cycles: 3878794999 heartbeat IPC: 0.6415 cumulative IPC: 0.4254 (Simulation time: 08 hr 23 min 28 sec)
[ERROR_CYCLE] Error added at CPU cycle 3879282055, interval 55, pending count: 1
[DRAM_CYCLE_ERROR] Cycle-based error applied! address=0xf09d87c0 additional_latency=2459910500 cycles
Heartbeat CPU 0 instructions: 1660000282 cycles: 3894978771 heartbeat IPC: 0.6179 cumulative IPC: 0.4262 (Simulation time: 08 hr 25 min 51 sec)
Heartbeat CPU 0 instructions: 1670000283 cycles: 3919843910 heartbeat IPC: 0.4022 cumulative IPC: 0.426 (Simulation time: 08 hr 29 min 14 sec)
Heartbeat CPU 0 instructions: 1680000285 cycles: 3926237501 heartbeat IPC: 1.564 cumulative IPC: 0.4279 (Simulation time: 08 hr 30 min 25 sec)
[ERROR_CYCLE] Error added at CPU cycle 3949814457, interval 56, pending count: 1
[DRAM_CYCLE_ERROR] Cycle-based error applied! address=0x1bd800000 additional_latency=2459910500 cycles
Simulation CPU 0 panic: IPC 0.0028126 < 0.01
Heartbeat CPU 0 instructions: 1690000288 cycles: 3960959074 heartbeat IPC: 0.288 cumulative IPC: 0.4267 (Simulation time: 08 hr 34 min 58 sec)
Heartbeat CPU 0 instructions: 1700000290 cycles: 3976581625 heartbeat IPC: 0.6401 cumulative IPC: 0.4275 (Simulation time: 08 hr 37 min 13 sec)
Heartbeat CPU 0 instructions: 1710000290 cycles: 3992217255 heartbeat IPC: 0.6396 cumulative IPC: 0.4283 (Simulation time: 08 hr 39 min 03 sec)
Heartbeat CPU 0 instructions: 1720000290 cycles: 4007851676 heartbeat IPC: 0.6396 cumulative IPC: 0.4292 (Simulation time: 08 hr 41 min 21 sec)
Heartbeat CPU 0 instructions: 1730000293 cycles: 4014238845 heartbeat IPC: 1.566 cumulative IPC: 0.431 (Simulation time: 08 hr 42 min 33 sec)
[ERROR_CYCLE] Error added at CPU cycle 4020346858, interval 57, pending count: 1
[DRAM_CYCLE_ERROR] Cycle-based error applied! address=0x174b00000 additional_latency=2459910500 cycles
Simulation CPU 0 panic: IPC 0 < 0.01
Heartbeat CPU 0 instructions: 1740000296 cycles: 4049008134 heartbeat IPC: 0.2876 cumulative IPC: 0.4297 (Simulation time: 08 hr 46 min 53 sec)
Heartbeat CPU 0 instructions: 1750000296 cycles: 4073893966 heartbeat IPC: 0.4018 cumulative IPC: 0.4296 (Simulation time: 08 hr 50 min 18 sec)
Heartbeat CPU 0 instructions: 1760000296 cycles: 4089531716 heartbeat IPC: 0.6395 cumulative IPC: 0.4304 (Simulation time: 08 hr 52 min 34 sec)
[ERROR_CYCLE] Error added at CPU cycle 4090879258, interval 58, pending count: 1
[DRAM_CYCLE_ERROR] Cycle-based error applied! address=0x3d597f748 additional_latency=2459910500 cycles
Simulation CPU 0 panic: IPC 0 < 0.01
Heartbeat CPU 0 instructions: 1770000297 cycles: 4133466937 heartbeat IPC: 0.2276 cumulative IPC: 0.4282 (Simulation time: 08 hr 58 min 27 sec)
Heartbeat CPU 0 instructions: 1780000299 cycles: 4149108400 heartbeat IPC: 0.6393 cumulative IPC: 0.429 (Simulation time: 09 hr 00 min 17 sec)
[ERROR_CYCLE] Error added at CPU cycle 4161411659, interval 59, pending count: 1
[DRAM_CYCLE_ERROR] Cycle-based error applied! address=0x764400000 additional_latency=2459910500 cycles
Simulation CPU 0 panic: IPC 0 < 0.01
Heartbeat CPU 0 instructions: 1790000303 cycles: 4174589771 heartbeat IPC: 0.3924 cumulative IPC: 0.4288 (Simulation time: 09 hr 03 min 42 sec)
Heartbeat CPU 0 instructions: 1800000305 cycles: 4199484176 heartbeat IPC: 0.4017 cumulative IPC: 0.4286 (Simulation time: 09 hr 07 min 04 sec)
Heartbeat CPU 0 instructions: 1810000306 cycles: 4205910890 heartbeat IPC: 1.556 cumulative IPC: 0.4303 (Simulation time: 09 hr 08 min 15 sec)
[ERROR_CYCLE] Error added at CPU cycle 4231944060, interval 60, pending count: 1
[DRAM_CYCLE_ERROR] Cycle-based error applied! address=0x3d5988c98 additional_latency=2459910500 cycles
Simulation CPU 0 panic: IPC 0 < 0.01
Heartbeat CPU 0 instructions: 1820000306 cycles: 4249869066 heartbeat IPC: 0.2275 cumulative IPC: 0.4282 (Simulation time: 09 hr 13 min 22 sec)
Heartbeat CPU 0 instructions: 1830000306 cycles: 4256344226 heartbeat IPC: 1.544 cumulative IPC: 0.4299 (Simulation time: 09 hr 14 min 33 sec)
Heartbeat CPU 0 instructions: 1840000310 cycles: 4290510488 heartbeat IPC: 0.2927 cumulative IPC: 0.4289 (Simulation time: 09 hr 18 min 21 sec)
Heartbeat CPU 0 instructions: 1850000311 cycles: 4296950082 heartbeat IPC: 1.553 cumulative IPC: 0.4305 (Simulation time: 09 hr 19 min 22 sec)
[ERROR_CYCLE] Error added at CPU cycle 4302476462, interval 61, pending count: 1
[DRAM_CYCLE_ERROR] Cycle-based error applied! address=0x3d598cde8 additional_latency=2459910500 cycles
Simulation CPU 0 panic: IPC 0 < 0.01
Heartbeat CPU 0 instructions: 1860000315 cycles: 4322427586 heartbeat IPC: 0.3925 cumulative IPC: 0.4303 (Simulation time: 09 hr 22 min 28 sec)
Heartbeat CPU 0 instructions: 1870000316 cycles: 4338091238 heartbeat IPC: 0.6384 cumulative IPC: 0.4311 (Simulation time: 09 hr 24 min 48 sec)
Heartbeat CPU 0 instructions: 1880000317 cycles: 4344498191 heartbeat IPC: 1.561 cumulative IPC: 0.4327 (Simulation time: 09 hr 25 min 59 sec)
[ERROR_CYCLE] Error added at CPU cycle 4373008862, interval 62, pending count: 1
[DRAM_CYCLE_ERROR] Cycle-based error applied! address=0x3d5990dd0 additional_latency=2459910500 cycles
Simulation CPU 0 panic: IPC 0 < 0.01
Heartbeat CPU 0 instructions: 1890000318 cycles: 4388444768 heartbeat IPC: 0.2275 cumulative IPC: 0.4307 (Simulation time: 09 hr 31 min 26 sec)
Heartbeat CPU 0 instructions: 1900000321 cycles: 4394830290 heartbeat IPC: 1.566 cumulative IPC: 0.4323 (Simulation time: 09 hr 32 min 37 sec)
Heartbeat CPU 0 instructions: 1910000321 cycles: 4410431182 heartbeat IPC: 0.641 cumulative IPC: 0.4331 (Simulation time: 09 hr 34 min 51 sec)
Heartbeat CPU 0 instructions: 1920000325 cycles: 4426090490 heartbeat IPC: 0.6386 cumulative IPC: 0.4338 (Simulation time: 09 hr 37 min 10 sec)
Heartbeat CPU 0 instructions: 1930000326 cycles: 4441689123 heartbeat IPC: 0.6411 cumulative IPC: 0.4345 (Simulation time: 09 hr 38 min 54 sec)
[ERROR_CYCLE] Error added at CPU cycle 4443541263, interval 63, pending count: 1
[DRAM_CYCLE_ERROR] Cycle-based error applied! address=0x3d5994c60 additional_latency=2459910500 cycles
Simulation CPU 0 panic: IPC 0 < 0.01
Heartbeat CPU 0 instructions: 1940000328 cycles: 4476382710 heartbeat IPC: 0.2882 cumulative IPC: 0.4334 (Simulation time: 09 hr 43 min 32 sec)
Heartbeat CPU 0 instructions: 1950000328 cycles: 4491998802 heartbeat IPC: 0.6404 cumulative IPC: 0.4341 (Simulation time: 09 hr 45 min 40 sec)
Heartbeat CPU 0 instructions: 1960000329 cycles: 4507591459 heartbeat IPC: 0.6413 cumulative IPC: 0.4348 (Simulation time: 09 hr 47 min 23 sec)
[ERROR_CYCLE] Error added at CPU cycle 4514073664, interval 64, pending count: 1
[DRAM_CYCLE_ERROR] Cycle-based error applied! address=0x2d5000000 additional_latency=2459910500 cycles
Simulation CPU 0 panic: IPC 0 < 0.01
Heartbeat CPU 0 instructions: 1970000332 cycles: 4542260119 heartbeat IPC: 0.2884 cumulative IPC: 0.4337 (Simulation time: 09 hr 51 min 30 sec)
Heartbeat CPU 0 instructions: 1980000335 cycles: 4557846679 heartbeat IPC: 0.6416 cumulative IPC: 0.4344 (Simulation time: 09 hr 53 min 42 sec)
Heartbeat CPU 0 instructions: 1990000338 cycles: 4582649363 heartbeat IPC: 0.4032 cumulative IPC: 0.4342 (Simulation time: 09 hr 56 min 42 sec)
[ERROR_CYCLE] Error added at CPU cycle 4584606066, interval 65, pending count: 1
[DRAM_CYCLE_ERROR] Cycle-based error applied! address=0x15f449fc0 additional_latency=2459910500 cycles

=== ERROR PAGE STATISTICS ===
Mode: CYCLE
Error Cycle Interval: 70532401 CPU cycles
Total Error Accesses: 65
==============================
Simulation finished CPU 0 instructions: 1999999507 cycles: 4608049942 cumulative IPC: 0.434 (Simulation time: 10 hr 00 min 06 sec)
Simulation complete CPU 0 instructions: 1999999507 cycles: 4608049942 cumulative IPC: 0.434 (Simulation time: 10 hr 00 min 06 sec)

ChampSim completed all CPUs

=== Simulation ===
CPU 0 runs test_traces/607.cactuBSSN_s-2421B.champsimtrace.xz

Region of Interest Statistics

CPU 0 cumulative IPC: 0.434 instructions: 1999999507 cycles: 4608049942
CPU 0 Branch Prediction Accuracy: 98.41% MPKI: 0.0223 Average ROB Occupancy at Mispredict: 322.7
Branch type MPKI
BRANCH_DIRECT_JUMP: 3.4e-05
BRANCH_INDIRECT: 4.45e-05
BRANCH_CONDITIONAL: 0.0122
BRANCH_DIRECT_CALL: 0.000332
BRANCH_INDIRECT_CALL: 1.5e-06
BRANCH_RETURN: 0.009687

cpu0->cpu0_STLB TOTAL        ACCESS:   38314828 HIT:   38314430 MISS:        398 MSHR_MERGE:          0
cpu0->cpu0_STLB LOAD         ACCESS:   38314828 HIT:   38314430 MISS:        398 MSHR_MERGE:          0
cpu0->cpu0_STLB RFO          ACCESS:          0 HIT:          0 MISS:          0 MSHR_MERGE:          0
cpu0->cpu0_STLB PREFETCH     ACCESS:          0 HIT:          0 MISS:          0 MSHR_MERGE:          0
cpu0->cpu0_STLB WRITE        ACCESS:          0 HIT:          0 MISS:          0 MSHR_MERGE:          0
cpu0->cpu0_STLB TRANSLATION  ACCESS:          0 HIT:          0 MISS:          0 MSHR_MERGE:          0
cpu0->cpu0_STLB PREFETCH REQUESTED:          0 ISSUED:          0 USEFUL:          0 USELESS:          0
cpu0->cpu0_STLB AVERAGE MISS LATENCY: 1.02e+07 cycles
cpu0->cpu0_L2C TOTAL        ACCESS:  251137792 HIT:  230755054 MISS:   20382738 MSHR_MERGE:          0
cpu0->cpu0_L2C LOAD         ACCESS:  216983849 HIT:  196631737 MISS:   20352112 MSHR_MERGE:          0
cpu0->cpu0_L2C RFO          ACCESS:   16173742 HIT:   16143134 MISS:      30608 MSHR_MERGE:          0
cpu0->cpu0_L2C PREFETCH     ACCESS:          0 HIT:          0 MISS:          0 MSHR_MERGE:          0
cpu0->cpu0_L2C WRITE        ACCESS:   17980201 HIT:   17980183 MISS:         18 MSHR_MERGE:          0
cpu0->cpu0_L2C TRANSLATION  ACCESS:          0 HIT:          0 MISS:          0 MSHR_MERGE:          0
cpu0->cpu0_L2C PREFETCH REQUESTED:          0 ISSUED:          0 USEFUL:          0 USELESS:          0
cpu0->cpu0_L2C AVERAGE MISS LATENCY: 118.6 cycles
cpu0->cpu0_L1I TOTAL        ACCESS:  395427449 HIT:  392770452 MISS:    2656997 MSHR_MERGE:    1306854
cpu0->cpu0_L1I LOAD         ACCESS:  395427449 HIT:  392770452 MISS:    2656997 MSHR_MERGE:    1306854
cpu0->cpu0_L1I RFO          ACCESS:          0 HIT:          0 MISS:          0 MSHR_MERGE:          0
cpu0->cpu0_L1I PREFETCH     ACCESS:          0 HIT:          0 MISS:          0 MSHR_MERGE:          0
cpu0->cpu0_L1I WRITE        ACCESS:          0 HIT:          0 MISS:          0 MSHR_MERGE:          0
cpu0->cpu0_L1I TRANSLATION  ACCESS:          0 HIT:          0 MISS:          0 MSHR_MERGE:          0
cpu0->cpu0_L1I PREFETCH REQUESTED:          0 ISSUED:          0 USEFUL:          0 USELESS:          0
cpu0->cpu0_L1I AVERAGE MISS LATENCY: 7.262 cycles
cpu0->cpu0_L1D TOTAL        ACCESS:  649309148 HIT:  374852833 MISS:  274456315 MSHR_MERGE:   41990387
cpu0->cpu0_L1D LOAD         ACCESS:  422559167 HIT:  165982728 MISS:  256576439 MSHR_MERGE:   40289715
cpu0->cpu0_L1D RFO          ACCESS:          0 HIT:          0 MISS:          0 MSHR_MERGE:          0
cpu0->cpu0_L1D PREFETCH     ACCESS:          0 HIT:          0 MISS:          0 MSHR_MERGE:          0
cpu0->cpu0_L1D WRITE        ACCESS:  226749981 HIT:  208870105 MISS:   17879876 MSHR_MERGE:    1700672
cpu0->cpu0_L1D TRANSLATION  ACCESS:          0 HIT:          0 MISS:          0 MSHR_MERGE:          0
cpu0->cpu0_L1D PREFETCH REQUESTED:          0 ISSUED:          0 USEFUL:          0 USELESS:          0
cpu0->cpu0_L1D AVERAGE MISS LATENCY: 19.46 cycles
cpu0->cpu0_ITLB TOTAL        ACCESS:  322041946 HIT:  322041932 MISS:         14 MSHR_MERGE:         10
cpu0->cpu0_ITLB LOAD         ACCESS:  322041946 HIT:  322041932 MISS:         14 MSHR_MERGE:         10
cpu0->cpu0_ITLB RFO          ACCESS:          0 HIT:          0 MISS:          0 MSHR_MERGE:          0
cpu0->cpu0_ITLB PREFETCH     ACCESS:          0 HIT:          0 MISS:          0 MSHR_MERGE:          0
cpu0->cpu0_ITLB WRITE        ACCESS:          0 HIT:          0 MISS:          0 MSHR_MERGE:          0
cpu0->cpu0_ITLB TRANSLATION  ACCESS:          0 HIT:          0 MISS:          0 MSHR_MERGE:          0
cpu0->cpu0_ITLB PREFETCH REQUESTED:          0 ISSUED:          0 USEFUL:          0 USELESS:          0
cpu0->cpu0_ITLB AVERAGE MISS LATENCY: 9.24e+06 cycles
cpu0->cpu0_DTLB TOTAL        ACCESS:  496392152 HIT:  419792722 MISS:   76599430 MSHR_MERGE:   38284606
cpu0->cpu0_DTLB LOAD         ACCESS:  496392152 HIT:  419792722 MISS:   76599430 MSHR_MERGE:   38284606
cpu0->cpu0_DTLB RFO          ACCESS:          0 HIT:          0 MISS:          0 MSHR_MERGE:          0
cpu0->cpu0_DTLB PREFETCH     ACCESS:          0 HIT:          0 MISS:          0 MSHR_MERGE:          0
cpu0->cpu0_DTLB WRITE        ACCESS:          0 HIT:          0 MISS:          0 MSHR_MERGE:          0
cpu0->cpu0_DTLB TRANSLATION  ACCESS:          0 HIT:          0 MISS:          0 MSHR_MERGE:          0
cpu0->cpu0_DTLB PREFETCH REQUESTED:          0 ISSUED:          0 USEFUL:          0 USELESS:          0
cpu0->cpu0_DTLB AVERAGE MISS LATENCY: 110.1 cycles
cpu0->LLC TOTAL        ACCESS:   22275860 HIT:    7173053 MISS:   15102807 MSHR_MERGE:          0
cpu0->LLC LOAD         ACCESS:   20352112 HIT:    5279961 MISS:   15072151 MSHR_MERGE:          0
cpu0->LLC RFO          ACCESS:      30608 HIT:          0 MISS:      30608 MSHR_MERGE:          0
cpu0->LLC PREFETCH     ACCESS:          0 HIT:          0 MISS:          0 MSHR_MERGE:          0
cpu0->LLC WRITE        ACCESS:    1893140 HIT:    1893092 MISS:         48 MSHR_MERGE:          0
cpu0->LLC TRANSLATION  ACCESS:          0 HIT:          0 MISS:          0 MSHR_MERGE:          0
cpu0->LLC PREFETCH REQUESTED:          0 ISSUED:          0 USEFUL:          0 USELESS:          0
cpu0->LLC AVERAGE MISS LATENCY: 138.8 cycles

DRAM Statistics

Channel 0 RQ ROW_BUFFER_HIT:      35597
  ROW_BUFFER_MISS:    7516242
  AVG DBUS CONGESTED CYCLE: 9.928
Channel 0 WQ ROW_BUFFER_HIT:     269976
  ROW_BUFFER_MISS:     674206
  FULL:          0
Channel 0 REFRESHES ISSUED:     383979

Channel 1 RQ ROW_BUFFER_HIT:      35787
  ROW_BUFFER_MISS:    7515921
  AVG DBUS CONGESTED CYCLE: 9.928
Channel 1 WQ ROW_BUFFER_HIT:     269433
  ROW_BUFFER_MISS:     674732
  FULL:          0
Channel 1 REFRESHES ISSUED:     383979
