
*** ChampSim Multicore Out-of-Order Simulator ***
Warmup Instructions: 0
Simulation Instructions: 9223372036854775807
Number of CPUs: 1
Page size: 1048576

Off-chip DRAM Size: 64 GiB Channels: 2 Width: 32-bit Data Rate: 4807 MT/s
[ERROR_PAGE_MANAGER] Error latency: 2459910500 
[ERROR_PAGE_MANAGER] Random seed: 54321 (fixed for preload reproducibility)
[ERROR_PAGE_MANAGER] Cycle-based error modeling enabled
[ERROR_PAGE_MANAGER] Errors per interval: 1
[ERROR_PAGE_MANAGER] Error cycle interval: 464841614 cycles

=== ERROR PAGE STATISTICS ===
Mode: CYCLE
Error Cycle Interval: 464841614 CPU cycles
Total Error Accesses: 0
==============================
Warmup finished CPU 0 instructions: 0 cycles: 1 cumulative IPC: 0 (Simulation time: 00 hr 00 min 00 sec)
Warmup complete CPU 0 instructions: 0 cycles: 1 cumulative IPC: 0 (Simulation time: 00 hr 00 min 00 sec)
Simulation CPU 0 panic: IPC 0 < 0.01
Simulation CPU 0 panic: IPC 1e-07 < 0.01
Simulation CPU 0 panic: IPC 7e-07 < 0.01
Simulation CPU 0 panic: IPC 1.6e-06 < 0.01
Simulation CPU 0 panic: IPC 0.0001073 < 0.01
Simulation CPU 0 panic: IPC 0.000294 < 0.01
Simulation CPU 0 panic: IPC 0.0026443 < 0.01
Simulation CPU 0 panic: IPC 2e-07 < 0.01
Simulation CPU 0 panic: IPC 1.1e-06 < 0.01
Simulation CPU 0 panic: IPC 7e-06 < 0.01
Simulation CPU 0 panic: IPC 6.2e-06 < 0.01
Simulation CPU 0 panic: IPC 1.93e-05 < 0.01
Simulation CPU 0 warning: IPC 0.046351 < 0.05
Simulation CPU 0 warning: IPC 0.034762 < 0.05
Simulation CPU 0 warning: IPC 0.026888 < 0.05
Heartbeat CPU 0 instructions: 10000003 cycles: 174805331 heartbeat IPC: 0.05721 cumulative IPC: 0.05721 (Simulation time: 00 hr 16 min 00 sec)
Heartbeat CPU 0 instructions: 20000006 cycles: 212645256 heartbeat IPC: 0.2643 cumulative IPC: 0.09405 (Simulation time: 00 hr 19 min 17 sec)
Simulation CPU 0 panic: IPC 2.99e-05 < 0.01
Simulation CPU 0 panic: IPC 0.0001586 < 0.01
Heartbeat CPU 0 instructions: 30000006 cycles: 270536190 heartbeat IPC: 0.1727 cumulative IPC: 0.1109 (Simulation time: 00 hr 25 min 12 sec)
Simulation CPU 0 panic: IPC 3e-07 < 0.01
Simulation CPU 0 panic: IPC 0.0014203 < 0.01
Simulation CPU 0 panic: IPC 3.12e-05 < 0.01
Simulation CPU 0 critical: IPC 0.011944 < 0.02
Simulation CPU 0 panic: IPC 0.0058584 < 0.01
Simulation CPU 0 panic: IPC 0.0026949 < 0.01
Simulation CPU 0 panic: IPC 1.78e-05 < 0.01
Simulation CPU 0 warning: IPC 0.030353 < 0.05
Simulation CPU 0 panic: IPC 0.0046933 < 0.01
Simulation CPU 0 panic: IPC 0.0064663 < 0.01
Simulation CPU 0 panic: IPC 2.76e-05 < 0.01
Simulation CPU 0 panic: IPC 4.04e-05 < 0.01
[ERROR_CYCLE] Error added at CPU cycle 464841614, interval 1, pending count: 1
[DRAM_CYCLE_ERROR] Cycle-based error applied! address=0x537c48320 additional_latency=2459910500 cycles
Simulation CPU 0 warning: IPC 0.025238 < 0.05
Simulation CPU 0 panic: IPC 0.000911 < 0.01
Heartbeat CPU 0 instructions: 40000008 cycles: 489657378 heartbeat IPC: 0.04564 cumulative IPC: 0.08169 (Simulation time: 00 hr 46 min 59 sec)
Simulation CPU 0 panic: IPC 1.35e-05 < 0.01
Simulation CPU 0 panic: IPC 2.49e-05 < 0.01
Heartbeat CPU 0 instructions: 50000009 cycles: 537054793 heartbeat IPC: 0.211 cumulative IPC: 0.0931 (Simulation time: 00 hr 51 min 34 sec)
Heartbeat CPU 0 instructions: 60000012 cycles: 557592742 heartbeat IPC: 0.4869 cumulative IPC: 0.1076 (Simulation time: 00 hr 54 min 08 sec)
Heartbeat CPU 0 instructions: 70000016 cycles: 571555811 heartbeat IPC: 0.7162 cumulative IPC: 0.1225 (Simulation time: 00 hr 55 min 59 sec)
Heartbeat CPU 0 instructions: 80000017 cycles: 582783823 heartbeat IPC: 0.8906 cumulative IPC: 0.1373 (Simulation time: 00 hr 57 min 31 sec)
Heartbeat CPU 0 instructions: 90000020 cycles: 594671632 heartbeat IPC: 0.8412 cumulative IPC: 0.1513 (Simulation time: 00 hr 59 min 11 sec)
Heartbeat CPU 0 instructions: 100000021 cycles: 620683017 heartbeat IPC: 0.3844 cumulative IPC: 0.1611 (Simulation time: 01 hr 02 min 23 sec)
Simulation CPU 0 critical: IPC 0.014196 < 0.02
Simulation CPU 0 panic: IPC 0.0001914 < 0.01
Heartbeat CPU 0 instructions: 110000024 cycles: 663458397 heartbeat IPC: 0.2338 cumulative IPC: 0.1658 (Simulation time: 01 hr 06 min 05 sec)
Simulation CPU 0 warning: IPC 0.033339 < 0.05
Simulation CPU 0 critical: IPC 0.015581 < 0.02
Simulation CPU 0 warning: IPC 0.030834 < 0.05
Heartbeat CPU 0 instructions: 120000024 cycles: 716648551 heartbeat IPC: 0.188 cumulative IPC: 0.1674 (Simulation time: 01 hr 11 min 16 sec)
Heartbeat CPU 0 instructions: 130000026 cycles: 722222652 heartbeat IPC: 1.794 cumulative IPC: 0.18 (Simulation time: 01 hr 12 min 02 sec)
Heartbeat CPU 0 instructions: 140000028 cycles: 748162683 heartbeat IPC: 0.3855 cumulative IPC: 0.1871 (Simulation time: 01 hr 14 min 29 sec)
Heartbeat CPU 0 instructions: 150000029 cycles: 763041877 heartbeat IPC: 0.6721 cumulative IPC: 0.1966 (Simulation time: 01 hr 16 min 22 sec)
Heartbeat CPU 0 instructions: 160000032 cycles: 779152949 heartbeat IPC: 0.6207 cumulative IPC: 0.2054 (Simulation time: 01 hr 18 min 10 sec)
Heartbeat CPU 0 instructions: 170000035 cycles: 795343102 heartbeat IPC: 0.6177 cumulative IPC: 0.2137 (Simulation time: 01 hr 20 min 05 sec)
Heartbeat CPU 0 instructions: 180000037 cycles: 800943928 heartbeat IPC: 1.785 cumulative IPC: 0.2247 (Simulation time: 01 hr 21 min 02 sec)
Heartbeat CPU 0 instructions: 190000038 cycles: 818120656 heartbeat IPC: 0.5822 cumulative IPC: 0.2322 (Simulation time: 01 hr 23 min 10 sec)
Heartbeat CPU 0 instructions: 200000039 cycles: 824445464 heartbeat IPC: 1.581 cumulative IPC: 0.2426 (Simulation time: 01 hr 24 min 14 sec)
Heartbeat CPU 0 instructions: 210000039 cycles: 830817545 heartbeat IPC: 1.569 cumulative IPC: 0.2528 (Simulation time: 01 hr 25 min 18 sec)
Heartbeat CPU 0 instructions: 220000040 cycles: 837231341 heartbeat IPC: 1.559 cumulative IPC: 0.2628 (Simulation time: 01 hr 26 min 22 sec)
Heartbeat CPU 0 instructions: 230000041 cycles: 849238956 heartbeat IPC: 0.8328 cumulative IPC: 0.2708 (Simulation time: 01 hr 28 min 06 sec)
Heartbeat CPU 0 instructions: 240000042 cycles: 861230494 heartbeat IPC: 0.8339 cumulative IPC: 0.2787 (Simulation time: 01 hr 29 min 53 sec)
Heartbeat CPU 0 instructions: 250000042 cycles: 866916404 heartbeat IPC: 1.759 cumulative IPC: 0.2884 (Simulation time: 01 hr 30 min 53 sec)
Heartbeat CPU 0 instructions: 260000045 cycles: 873217283 heartbeat IPC: 1.587 cumulative IPC: 0.2977 (Simulation time: 01 hr 31 min 56 sec)
Heartbeat CPU 0 instructions: 270000046 cycles: 879134635 heartbeat IPC: 1.69 cumulative IPC: 0.3071 (Simulation time: 01 hr 32 min 58 sec)
Heartbeat CPU 0 instructions: 280000049 cycles: 884637363 heartbeat IPC: 1.817 cumulative IPC: 0.3165 (Simulation time: 01 hr 33 min 55 sec)
Heartbeat CPU 0 instructions: 290000052 cycles: 890747267 heartbeat IPC: 1.637 cumulative IPC: 0.3256 (Simulation time: 01 hr 34 min 57 sec)
Heartbeat CPU 0 instructions: 300000054 cycles: 898209235 heartbeat IPC: 1.34 cumulative IPC: 0.334 (Simulation time: 01 hr 36 min 07 sec)
Heartbeat CPU 0 instructions: 310000054 cycles: 909607179 heartbeat IPC: 0.8774 cumulative IPC: 0.3408 (Simulation time: 01 hr 37 min 47 sec)
Heartbeat CPU 0 instructions: 320000058 cycles: 918118282 heartbeat IPC: 1.175 cumulative IPC: 0.3485 (Simulation time: 01 hr 39 min 07 sec)
Heartbeat CPU 0 instructions: 330000059 cycles: 928526586 heartbeat IPC: 0.9608 cumulative IPC: 0.3554 (Simulation time: 01 hr 40 min 38 sec)
[ERROR_CYCLE] Error added at CPU cycle 929683228, interval 2, pending count: 1
[DRAM_CYCLE_ERROR] Cycle-based error applied! address=0xa2abb70a4 additional_latency=2459910500 cycles
Heartbeat CPU 0 instructions: 340000061 cycles: 950225865 heartbeat IPC: 0.4608 cumulative IPC: 0.3578 (Simulation time: 01 hr 43 min 27 sec)
Heartbeat CPU 0 instructions: 350000062 cycles: 965726203 heartbeat IPC: 0.6451 cumulative IPC: 0.3624 (Simulation time: 01 hr 45 min 52 sec)
Heartbeat CPU 0 instructions: 360000064 cycles: 976729878 heartbeat IPC: 0.9088 cumulative IPC: 0.3686 (Simulation time: 01 hr 47 min 07 sec)
Heartbeat CPU 0 instructions: 370000064 cycles: 988312533 heartbeat IPC: 0.8634 cumulative IPC: 0.3744 (Simulation time: 01 hr 48 min 15 sec)
Heartbeat CPU 0 instructions: 380000065 cycles: 1002531059 heartbeat IPC: 0.7033 cumulative IPC: 0.379 (Simulation time: 01 hr 49 min 59 sec)
Heartbeat CPU 0 instructions: 390000066 cycles: 1014229859 heartbeat IPC: 0.8548 cumulative IPC: 0.3845 (Simulation time: 01 hr 51 min 34 sec)
Heartbeat CPU 0 instructions: 400000066 cycles: 1026425940 heartbeat IPC: 0.8199 cumulative IPC: 0.3897 (Simulation time: 01 hr 53 min 18 sec)
Heartbeat CPU 0 instructions: 410000068 cycles: 1040229864 heartbeat IPC: 0.7244 cumulative IPC: 0.3941 (Simulation time: 01 hr 54 min 52 sec)
Heartbeat CPU 0 instructions: 420000071 cycles: 1051837526 heartbeat IPC: 0.8615 cumulative IPC: 0.3993 (Simulation time: 01 hr 56 min 20 sec)
Heartbeat CPU 0 instructions: 430000073 cycles: 1065525268 heartbeat IPC: 0.7306 cumulative IPC: 0.4036 (Simulation time: 01 hr 58 min 12 sec)
Heartbeat CPU 0 instructions: 440000075 cycles: 1078691096 heartbeat IPC: 0.7595 cumulative IPC: 0.4079 (Simulation time: 02 hr 00 min 00 sec)
Heartbeat CPU 0 instructions: 450000079 cycles: 1090229454 heartbeat IPC: 0.8667 cumulative IPC: 0.4128 (Simulation time: 02 hr 01 min 38 sec)
Heartbeat CPU 0 instructions: 460000080 cycles: 1105506954 heartbeat IPC: 0.6546 cumulative IPC: 0.4161 (Simulation time: 02 hr 03 min 44 sec)
Heartbeat CPU 0 instructions: 470000083 cycles: 1140501467 heartbeat IPC: 0.2858 cumulative IPC: 0.4121 (Simulation time: 02 hr 07 min 50 sec)
Heartbeat CPU 0 instructions: 480000085 cycles: 1146461203 heartbeat IPC: 1.678 cumulative IPC: 0.4187 (Simulation time: 02 hr 08 min 54 sec)
Heartbeat CPU 0 instructions: 490000085 cycles: 1153543030 heartbeat IPC: 1.412 cumulative IPC: 0.4248 (Simulation time: 02 hr 10 min 07 sec)
Heartbeat CPU 0 instructions: 500000085 cycles: 1162298119 heartbeat IPC: 1.142 cumulative IPC: 0.4302 (Simulation time: 02 hr 11 min 31 sec)
Heartbeat CPU 0 instructions: 510000085 cycles: 1173164065 heartbeat IPC: 0.9203 cumulative IPC: 0.4347 (Simulation time: 02 hr 13 min 08 sec)
Heartbeat CPU 0 instructions: 520000087 cycles: 1179207031 heartbeat IPC: 1.655 cumulative IPC: 0.441 (Simulation time: 02 hr 14 min 13 sec)
Heartbeat CPU 0 instructions: 530000091 cycles: 1186359317 heartbeat IPC: 1.398 cumulative IPC: 0.4467 (Simulation time: 02 hr 15 min 21 sec)
Heartbeat CPU 0 instructions: 540000092 cycles: 1195860960 heartbeat IPC: 1.052 cumulative IPC: 0.4516 (Simulation time: 02 hr 16 min 33 sec)
Heartbeat CPU 0 instructions: 550000092 cycles: 1207082221 heartbeat IPC: 0.8912 cumulative IPC: 0.4556 (Simulation time: 02 hr 18 min 04 sec)
Heartbeat CPU 0 instructions: 560000093 cycles: 1213139115 heartbeat IPC: 1.651 cumulative IPC: 0.4616 (Simulation time: 02 hr 19 min 07 sec)
Heartbeat CPU 0 instructions: 570000093 cycles: 1220317529 heartbeat IPC: 1.393 cumulative IPC: 0.4671 (Simulation time: 02 hr 20 min 19 sec)
Heartbeat CPU 0 instructions: 580000093 cycles: 1229892968 heartbeat IPC: 1.044 cumulative IPC: 0.4716 (Simulation time: 02 hr 21 min 43 sec)
Heartbeat CPU 0 instructions: 590000093 cycles: 1240811460 heartbeat IPC: 0.9159 cumulative IPC: 0.4755 (Simulation time: 02 hr 23 min 13 sec)
Heartbeat CPU 0 instructions: 600000094 cycles: 1246959668 heartbeat IPC: 1.626 cumulative IPC: 0.4812 (Simulation time: 02 hr 24 min 17 sec)
Heartbeat CPU 0 instructions: 610000094 cycles: 1254239544 heartbeat IPC: 1.374 cumulative IPC: 0.4864 (Simulation time: 02 hr 25 min 30 sec)
Heartbeat CPU 0 instructions: 620000094 cycles: 1264104294 heartbeat IPC: 1.014 cumulative IPC: 0.4905 (Simulation time: 02 hr 26 min 53 sec)
Heartbeat CPU 0 instructions: 630000097 cycles: 1275120867 heartbeat IPC: 0.9077 cumulative IPC: 0.4941 (Simulation time: 02 hr 28 min 10 sec)
Heartbeat CPU 0 instructions: 640000097 cycles: 1281289890 heartbeat IPC: 1.621 cumulative IPC: 0.4995 (Simulation time: 02 hr 29 min 02 sec)
Heartbeat CPU 0 instructions: 650000097 cycles: 1288597676 heartbeat IPC: 1.368 cumulative IPC: 0.5044 (Simulation time: 02 hr 29 min 54 sec)
Heartbeat CPU 0 instructions: 660000098 cycles: 1298513544 heartbeat IPC: 1.008 cumulative IPC: 0.5083 (Simulation time: 02 hr 31 min 03 sec)
Heartbeat CPU 0 instructions: 670000098 cycles: 1310163852 heartbeat IPC: 0.8583 cumulative IPC: 0.5114 (Simulation time: 02 hr 32 min 25 sec)
Heartbeat CPU 0 instructions: 680000100 cycles: 1316489945 heartbeat IPC: 1.581 cumulative IPC: 0.5165 (Simulation time: 02 hr 33 min 28 sec)
Heartbeat CPU 0 instructions: 690000101 cycles: 1322859046 heartbeat IPC: 1.57 cumulative IPC: 0.5216 (Simulation time: 02 hr 34 min 30 sec)
Heartbeat CPU 0 instructions: 700000102 cycles: 1329218167 heartbeat IPC: 1.573 cumulative IPC: 0.5266 (Simulation time: 02 hr 35 min 32 sec)
Simulation CPU 0 warning: IPC 0.032186 < 0.05
Simulation CPU 0 warning: IPC 0.039717 < 0.05
Simulation CPU 0 panic: IPC 0.0041777 < 0.01
Heartbeat CPU 0 instructions: 710000102 cycles: 1373400764 heartbeat IPC: 0.2263 cumulative IPC: 0.517 (Simulation time: 02 hr 40 min 06 sec)
Heartbeat CPU 0 instructions: 720000103 cycles: 1380374762 heartbeat IPC: 1.434 cumulative IPC: 0.5216 (Simulation time: 02 hr 41 min 16 sec)
[ERROR_CYCLE] Error added at CPU cycle 1394524842, interval 3, pending count: 1
[DRAM_CYCLE_ERROR] Cycle-based error applied! address=0xd40b1a7c0 additional_latency=2459910500 cycles
Heartbeat CPU 0 instructions: 730000104 cycles: 1406404464 heartbeat IPC: 0.3842 cumulative IPC: 0.5191 (Simulation time: 02 hr 44 min 38 sec)
Simulation CPU 0 critical: IPC 0.014045 < 0.02
Heartbeat CPU 0 instructions: 740000105 cycles: 1432637237 heartbeat IPC: 0.3812 cumulative IPC: 0.5165 (Simulation time: 02 hr 47 min 26 sec)
Heartbeat CPU 0 instructions: 750000105 cycles: 1440325828 heartbeat IPC: 1.301 cumulative IPC: 0.5207 (Simulation time: 02 hr 48 min 25 sec)
Heartbeat CPU 0 instructions: 760000105 cycles: 1448115321 heartbeat IPC: 1.284 cumulative IPC: 0.5248 (Simulation time: 02 hr 49 min 24 sec)
Heartbeat CPU 0 instructions: 770000105 cycles: 1455880155 heartbeat IPC: 1.288 cumulative IPC: 0.5289 (Simulation time: 02 hr 50 min 23 sec)
Heartbeat CPU 0 instructions: 780000105 cycles: 1463654415 heartbeat IPC: 1.286 cumulative IPC: 0.5329 (Simulation time: 02 hr 51 min 24 sec)
Heartbeat CPU 0 instructions: 790000105 cycles: 1471527826 heartbeat IPC: 1.27 cumulative IPC: 0.5369 (Simulation time: 02 hr 52 min 24 sec)
Heartbeat CPU 0 instructions: 800000107 cycles: 1479274557 heartbeat IPC: 1.291 cumulative IPC: 0.5408 (Simulation time: 02 hr 53 min 21 sec)
Heartbeat CPU 0 instructions: 810000108 cycles: 1487096524 heartbeat IPC: 1.278 cumulative IPC: 0.5447 (Simulation time: 02 hr 54 min 00 sec)
Heartbeat CPU 0 instructions: 820000108 cycles: 1495017971 heartbeat IPC: 1.262 cumulative IPC: 0.5485 (Simulation time: 02 hr 54 min 46 sec)
Heartbeat CPU 0 instructions: 830000109 cycles: 1502669449 heartbeat IPC: 1.307 cumulative IPC: 0.5524 (Simulation time: 02 hr 55 min 30 sec)
Heartbeat CPU 0 instructions: 840000109 cycles: 1510725140 heartbeat IPC: 1.241 cumulative IPC: 0.556 (Simulation time: 02 hr 56 min 30 sec)
Heartbeat CPU 0 instructions: 850000111 cycles: 1518450243 heartbeat IPC: 1.294 cumulative IPC: 0.5598 (Simulation time: 02 hr 57 min 31 sec)
Heartbeat CPU 0 instructions: 860000115 cycles: 1526515809 heartbeat IPC: 1.24 cumulative IPC: 0.5634 (Simulation time: 02 hr 58 min 33 sec)
Heartbeat CPU 0 instructions: 870000115 cycles: 1534285362 heartbeat IPC: 1.287 cumulative IPC: 0.567 (Simulation time: 02 hr 59 min 33 sec)
Heartbeat CPU 0 instructions: 880000118 cycles: 1542263556 heartbeat IPC: 1.253 cumulative IPC: 0.5706 (Simulation time: 03 hr 00 min 35 sec)
Heartbeat CPU 0 instructions: 890000118 cycles: 1550307737 heartbeat IPC: 1.243 cumulative IPC: 0.5741 (Simulation time: 03 hr 01 min 37 sec)
Heartbeat CPU 0 instructions: 900000118 cycles: 1558040037 heartbeat IPC: 1.293 cumulative IPC: 0.5776 (Simulation time: 03 hr 02 min 37 sec)
Heartbeat CPU 0 instructions: 910000118 cycles: 1566371056 heartbeat IPC: 1.2 cumulative IPC: 0.581 (Simulation time: 03 hr 03 min 40 sec)
Heartbeat CPU 0 instructions: 920000118 cycles: 1574280880 heartbeat IPC: 1.264 cumulative IPC: 0.5844 (Simulation time: 03 hr 04 min 42 sec)
Heartbeat CPU 0 instructions: 930000121 cycles: 1582260095 heartbeat IPC: 1.253 cumulative IPC: 0.5878 (Simulation time: 03 hr 05 min 43 sec)
Heartbeat CPU 0 instructions: 940000124 cycles: 1590328463 heartbeat IPC: 1.239 cumulative IPC: 0.5911 (Simulation time: 03 hr 06 min 46 sec)
Heartbeat CPU 0 instructions: 950000124 cycles: 1598168142 heartbeat IPC: 1.276 cumulative IPC: 0.5944 (Simulation time: 03 hr 07 min 47 sec)
Heartbeat CPU 0 instructions: 960000124 cycles: 1606317835 heartbeat IPC: 1.227 cumulative IPC: 0.5976 (Simulation time: 03 hr 08 min 49 sec)
Heartbeat CPU 0 instructions: 970000124 cycles: 1614120170 heartbeat IPC: 1.282 cumulative IPC: 0.6009 (Simulation time: 03 hr 09 min 50 sec)
Heartbeat CPU 0 instructions: 980000124 cycles: 1622361301 heartbeat IPC: 1.213 cumulative IPC: 0.6041 (Simulation time: 03 hr 10 min 53 sec)
Heartbeat CPU 0 instructions: 990000125 cycles: 1630096157 heartbeat IPC: 1.293 cumulative IPC: 0.6073 (Simulation time: 03 hr 11 min 53 sec)
Heartbeat CPU 0 instructions: 1000000128 cycles: 1638329582 heartbeat IPC: 1.215 cumulative IPC: 0.6104 (Simulation time: 03 hr 12 min 56 sec)
Heartbeat CPU 0 instructions: 1010000128 cycles: 1646012137 heartbeat IPC: 1.302 cumulative IPC: 0.6136 (Simulation time: 03 hr 13 min 55 sec)
Heartbeat CPU 0 instructions: 1020000128 cycles: 1654142002 heartbeat IPC: 1.23 cumulative IPC: 0.6166 (Simulation time: 03 hr 14 min 56 sec)
Heartbeat CPU 0 instructions: 1030000128 cycles: 1662019542 heartbeat IPC: 1.269 cumulative IPC: 0.6197 (Simulation time: 03 hr 15 min 55 sec)
Heartbeat CPU 0 instructions: 1040000128 cycles: 1670205478 heartbeat IPC: 1.222 cumulative IPC: 0.6227 (Simulation time: 03 hr 16 min 56 sec)
Heartbeat CPU 0 instructions: 1050000129 cycles: 1678187229 heartbeat IPC: 1.253 cumulative IPC: 0.6257 (Simulation time: 03 hr 17 min 57 sec)
Heartbeat CPU 0 instructions: 1060000133 cycles: 1685921582 heartbeat IPC: 1.293 cumulative IPC: 0.6287 (Simulation time: 03 hr 18 min 56 sec)
Heartbeat CPU 0 instructions: 1070000136 cycles: 1694057649 heartbeat IPC: 1.229 cumulative IPC: 0.6316 (Simulation time: 03 hr 19 min 57 sec)
Heartbeat CPU 0 instructions: 1080000139 cycles: 1701976168 heartbeat IPC: 1.263 cumulative IPC: 0.6346 (Simulation time: 03 hr 20 min 57 sec)
Heartbeat CPU 0 instructions: 1090000139 cycles: 1709928399 heartbeat IPC: 1.258 cumulative IPC: 0.6375 (Simulation time: 03 hr 21 min 58 sec)
Heartbeat CPU 0 instructions: 1100000139 cycles: 1717728852 heartbeat IPC: 1.282 cumulative IPC: 0.6404 (Simulation time: 03 hr 22 min 58 sec)
Heartbeat CPU 0 instructions: 1110000140 cycles: 1725672351 heartbeat IPC: 1.259 cumulative IPC: 0.6432 (Simulation time: 03 hr 24 min 00 sec)
Heartbeat CPU 0 instructions: 1120000140 cycles: 1733310513 heartbeat IPC: 1.309 cumulative IPC: 0.6462 (Simulation time: 03 hr 25 min 00 sec)
Heartbeat CPU 0 instructions: 1130000142 cycles: 1741691007 heartbeat IPC: 1.193 cumulative IPC: 0.6488 (Simulation time: 03 hr 26 min 06 sec)
Heartbeat CPU 0 instructions: 1140000142 cycles: 1749495765 heartbeat IPC: 1.281 cumulative IPC: 0.6516 (Simulation time: 03 hr 27 min 07 sec)
Heartbeat CPU 0 instructions: 1150000143 cycles: 1755845554 heartbeat IPC: 1.575 cumulative IPC: 0.655 (Simulation time: 03 hr 27 min 56 sec)
Heartbeat CPU 0 instructions: 1160000147 cycles: 1762236813 heartbeat IPC: 1.565 cumulative IPC: 0.6583 (Simulation time: 03 hr 28 min 56 sec)
Simulation CPU 0 panic: IPC 0.0001115 < 0.01
Simulation CPU 0 warning: IPC 0.038593 < 0.05
Simulation CPU 0 panic: IPC 7.73e-05 < 0.01
Simulation CPU 0 panic: IPC 8.03e-05 < 0.01
Simulation CPU 0 panic: IPC 1.12e-05 < 0.01
Simulation CPU 0 panic: IPC 0.0044818 < 0.01
Heartbeat CPU 0 instructions: 1170000151 cycles: 1845917448 heartbeat IPC: 0.1195 cumulative IPC: 0.6338 (Simulation time: 03 hr 36 min 18 sec)
[ERROR_CYCLE] Error added at CPU cycle 1859366456, interval 4, pending count: 1
[DRAM_CYCLE_ERROR] Cycle-based error applied! address=0x737fdd2c4 additional_latency=2459910500 cycles
Heartbeat CPU 0 instructions: 1180000153 cycles: 1861241697 heartbeat IPC: 0.6526 cumulative IPC: 0.634 (Simulation time: 03 hr 38 min 02 sec)
Heartbeat CPU 0 instructions: 1190000154 cycles: 1879719049 heartbeat IPC: 0.5412 cumulative IPC: 0.6331 (Simulation time: 03 hr 40 min 05 sec)
Heartbeat CPU 0 instructions: 1200000154 cycles: 1886815329 heartbeat IPC: 1.409 cumulative IPC: 0.636 (Simulation time: 03 hr 40 min 57 sec)
Heartbeat CPU 0 instructions: 1210000157 cycles: 1893872707 heartbeat IPC: 1.417 cumulative IPC: 0.6389 (Simulation time: 03 hr 42 min 07 sec)
Heartbeat CPU 0 instructions: 1220000159 cycles: 1900919176 heartbeat IPC: 1.419 cumulative IPC: 0.6418 (Simulation time: 03 hr 43 min 17 sec)
Heartbeat CPU 0 instructions: 1230000163 cycles: 1944065617 heartbeat IPC: 0.2318 cumulative IPC: 0.6327 (Simulation time: 03 hr 47 min 38 sec)
Simulation CPU 0 critical: IPC 0.010368 < 0.02
Simulation CPU 0 warning: IPC 0.043459 < 0.05
Simulation CPU 0 warning: IPC 0.036379 < 0.05
Heartbeat CPU 0 instructions: 1240000163 cycles: 2019666618 heartbeat IPC: 0.1323 cumulative IPC: 0.614 (Simulation time: 03 hr 54 min 11 sec)
Simulation CPU 0 panic: IPC 0.0051742 < 0.01
Simulation CPU 0 panic: IPC 0.0002372 < 0.01
Heartbeat CPU 0 instructions: 1250000165 cycles: 2055184209 heartbeat IPC: 0.2816 cumulative IPC: 0.6082 (Simulation time: 03 hr 56 min 51 sec)
Heartbeat CPU 0 instructions: 1260000165 cycles: 2062938678 heartbeat IPC: 1.29 cumulative IPC: 0.6108 (Simulation time: 03 hr 57 min 31 sec)
Heartbeat CPU 0 instructions: 1270000168 cycles: 2070692902 heartbeat IPC: 1.29 cumulative IPC: 0.6133 (Simulation time: 03 hr 58 min 13 sec)
Heartbeat CPU 0 instructions: 1280000169 cycles: 2078444664 heartbeat IPC: 1.29 cumulative IPC: 0.6158 (Simulation time: 03 hr 58 min 55 sec)
Heartbeat CPU 0 instructions: 1290000171 cycles: 2086193220 heartbeat IPC: 1.291 cumulative IPC: 0.6184 (Simulation time: 03 hr 59 min 45 sec)
Heartbeat CPU 0 instructions: 1300000171 cycles: 2093942776 heartbeat IPC: 1.29 cumulative IPC: 0.6208 (Simulation time: 04 hr 00 min 24 sec)
Heartbeat CPU 0 instructions: 1310000175 cycles: 2101676113 heartbeat IPC: 1.293 cumulative IPC: 0.6233 (Simulation time: 04 hr 01 min 13 sec)
Heartbeat CPU 0 instructions: 1320000176 cycles: 2109394902 heartbeat IPC: 1.296 cumulative IPC: 0.6258 (Simulation time: 04 hr 01 min 56 sec)
Heartbeat CPU 0 instructions: 1330000180 cycles: 2117100923 heartbeat IPC: 1.298 cumulative IPC: 0.6282 (Simulation time: 04 hr 02 min 38 sec)
Heartbeat CPU 0 instructions: 1340000180 cycles: 2124796007 heartbeat IPC: 1.3 cumulative IPC: 0.6306 (Simulation time: 04 hr 03 min 22 sec)
Heartbeat CPU 0 instructions: 1350000181 cycles: 2132473647 heartbeat IPC: 1.302 cumulative IPC: 0.6331 (Simulation time: 04 hr 04 min 06 sec)
Heartbeat CPU 0 instructions: 1360000182 cycles: 2140136179 heartbeat IPC: 1.305 cumulative IPC: 0.6355 (Simulation time: 04 hr 04 min 58 sec)
Heartbeat CPU 0 instructions: 1370000185 cycles: 2147810755 heartbeat IPC: 1.303 cumulative IPC: 0.6379 (Simulation time: 04 hr 05 min 47 sec)
Heartbeat CPU 0 instructions: 1380000189 cycles: 2155477835 heartbeat IPC: 1.304 cumulative IPC: 0.6402 (Simulation time: 04 hr 06 min 32 sec)
Heartbeat CPU 0 instructions: 1390000190 cycles: 2163148845 heartbeat IPC: 1.304 cumulative IPC: 0.6426 (Simulation time: 04 hr 07 min 17 sec)
Heartbeat CPU 0 instructions: 1400000190 cycles: 2170822813 heartbeat IPC: 1.303 cumulative IPC: 0.6449 (Simulation time: 04 hr 07 min 56 sec)
Heartbeat CPU 0 instructions: 1410000193 cycles: 2178497681 heartbeat IPC: 1.303 cumulative IPC: 0.6472 (Simulation time: 04 hr 08 min 36 sec)
Heartbeat CPU 0 instructions: 1420000194 cycles: 2186184303 heartbeat IPC: 1.301 cumulative IPC: 0.6495 (Simulation time: 04 hr 09 min 24 sec)
Heartbeat CPU 0 instructions: 1430000194 cycles: 2193873226 heartbeat IPC: 1.301 cumulative IPC: 0.6518 (Simulation time: 04 hr 10 min 24 sec)
Heartbeat CPU 0 instructions: 1440000194 cycles: 2201561539 heartbeat IPC: 1.301 cumulative IPC: 0.6541 (Simulation time: 04 hr 11 min 08 sec)
Heartbeat CPU 0 instructions: 1450000194 cycles: 2209241424 heartbeat IPC: 1.302 cumulative IPC: 0.6563 (Simulation time: 04 hr 11 min 47 sec)
Heartbeat CPU 0 instructions: 1460000194 cycles: 2216922140 heartbeat IPC: 1.302 cumulative IPC: 0.6586 (Simulation time: 04 hr 12 min 27 sec)
Heartbeat CPU 0 instructions: 1470000194 cycles: 2224605550 heartbeat IPC: 1.302 cumulative IPC: 0.6608 (Simulation time: 04 hr 13 min 17 sec)
Heartbeat CPU 0 instructions: 1480000194 cycles: 2232292242 heartbeat IPC: 1.301 cumulative IPC: 0.663 (Simulation time: 04 hr 14 min 06 sec)
Heartbeat CPU 0 instructions: 1490000195 cycles: 2239981771 heartbeat IPC: 1.3 cumulative IPC: 0.6652 (Simulation time: 04 hr 14 min 50 sec)
Heartbeat CPU 0 instructions: 1500000196 cycles: 2247670550 heartbeat IPC: 1.301 cumulative IPC: 0.6674 (Simulation time: 04 hr 15 min 39 sec)
Heartbeat CPU 0 instructions: 1510000196 cycles: 2255359806 heartbeat IPC: 1.301 cumulative IPC: 0.6695 (Simulation time: 04 hr 16 min 40 sec)
Heartbeat CPU 0 instructions: 1520000196 cycles: 2263039055 heartbeat IPC: 1.302 cumulative IPC: 0.6717 (Simulation time: 04 hr 17 min 40 sec)
Heartbeat CPU 0 instructions: 1530000196 cycles: 2270724757 heartbeat IPC: 1.301 cumulative IPC: 0.6738 (Simulation time: 04 hr 18 min 41 sec)
Heartbeat CPU 0 instructions: 1540000197 cycles: 2278401631 heartbeat IPC: 1.303 cumulative IPC: 0.6759 (Simulation time: 04 hr 19 min 41 sec)
Heartbeat CPU 0 instructions: 1550000197 cycles: 2286071523 heartbeat IPC: 1.304 cumulative IPC: 0.678 (Simulation time: 04 hr 20 min 41 sec)
Heartbeat CPU 0 instructions: 1560000199 cycles: 2293706547 heartbeat IPC: 1.31 cumulative IPC: 0.6801 (Simulation time: 04 hr 21 min 41 sec)
Heartbeat CPU 0 instructions: 1570000199 cycles: 2301343595 heartbeat IPC: 1.309 cumulative IPC: 0.6822 (Simulation time: 04 hr 22 min 41 sec)
Heartbeat CPU 0 instructions: 1580000199 cycles: 2308994006 heartbeat IPC: 1.307 cumulative IPC: 0.6843 (Simulation time: 04 hr 23 min 41 sec)
Heartbeat CPU 0 instructions: 1590000200 cycles: 2316645659 heartbeat IPC: 1.307 cumulative IPC: 0.6863 (Simulation time: 04 hr 24 min 41 sec)
[ERROR_CYCLE] Error added at CPU cycle 2324208070, interval 5, pending count: 1
Heartbeat CPU 0 instructions: 1600000200 cycles: 2324289026 heartbeat IPC: 1.308 cumulative IPC: 0.6884 (Simulation time: 04 hr 25 min 41 sec)
[DRAM_CYCLE_ERROR] Cycle-based error applied! address=0xd0ba3db00 additional_latency=2459910500 cycles
Heartbeat CPU 0 instructions: 1610000200 cycles: 2341772228 heartbeat IPC: 0.572 cumulative IPC: 0.6875 (Simulation time: 04 hr 27 min 34 sec)
Heartbeat CPU 0 instructions: 1620000200 cycles: 2349410152 heartbeat IPC: 1.309 cumulative IPC: 0.6895 (Simulation time: 04 hr 28 min 26 sec)
Heartbeat CPU 0 instructions: 1630000202 cycles: 2357058203 heartbeat IPC: 1.308 cumulative IPC: 0.6915 (Simulation time: 04 hr 29 min 13 sec)
Heartbeat CPU 0 instructions: 1640000206 cycles: 2364706679 heartbeat IPC: 1.307 cumulative IPC: 0.6935 (Simulation time: 04 hr 30 min 04 sec)
Heartbeat CPU 0 instructions: 1650000206 cycles: 2372359783 heartbeat IPC: 1.307 cumulative IPC: 0.6955 (Simulation time: 04 hr 31 min 04 sec)
Heartbeat CPU 0 instructions: 1660000210 cycles: 2380024188 heartbeat IPC: 1.305 cumulative IPC: 0.6975 (Simulation time: 04 hr 31 min 51 sec)
Heartbeat CPU 0 instructions: 1670000210 cycles: 2387693396 heartbeat IPC: 1.304 cumulative IPC: 0.6994 (Simulation time: 04 hr 32 min 47 sec)
Heartbeat CPU 0 instructions: 1680000210 cycles: 2395371174 heartbeat IPC: 1.302 cumulative IPC: 0.7014 (Simulation time: 04 hr 33 min 47 sec)
Heartbeat CPU 0 instructions: 1690000210 cycles: 2403056276 heartbeat IPC: 1.301 cumulative IPC: 0.7033 (Simulation time: 04 hr 34 min 47 sec)
Heartbeat CPU 0 instructions: 1700000211 cycles: 2410732782 heartbeat IPC: 1.303 cumulative IPC: 0.7052 (Simulation time: 04 hr 35 min 47 sec)
Heartbeat CPU 0 instructions: 1710000214 cycles: 2418411417 heartbeat IPC: 1.302 cumulative IPC: 0.7071 (Simulation time: 04 hr 36 min 46 sec)
Heartbeat CPU 0 instructions: 1720000215 cycles: 2426091244 heartbeat IPC: 1.302 cumulative IPC: 0.709 (Simulation time: 04 hr 37 min 45 sec)
Heartbeat CPU 0 instructions: 1730000215 cycles: 2433770399 heartbeat IPC: 1.302 cumulative IPC: 0.7108 (Simulation time: 04 hr 38 min 33 sec)
Heartbeat CPU 0 instructions: 1740000215 cycles: 2441447999 heartbeat IPC: 1.302 cumulative IPC: 0.7127 (Simulation time: 04 hr 39 min 19 sec)
Heartbeat CPU 0 instructions: 1750000216 cycles: 2449125098 heartbeat IPC: 1.303 cumulative IPC: 0.7145 (Simulation time: 04 hr 40 min 05 sec)
Heartbeat CPU 0 instructions: 1760000220 cycles: 2456803158 heartbeat IPC: 1.302 cumulative IPC: 0.7164 (Simulation time: 04 hr 41 min 00 sec)
Heartbeat CPU 0 instructions: 1770000220 cycles: 2464486315 heartbeat IPC: 1.302 cumulative IPC: 0.7182 (Simulation time: 04 hr 41 min 41 sec)
Heartbeat CPU 0 instructions: 1780000220 cycles: 2472165295 heartbeat IPC: 1.302 cumulative IPC: 0.72 (Simulation time: 04 hr 42 min 38 sec)
Heartbeat CPU 0 instructions: 1790000221 cycles: 2479854656 heartbeat IPC: 1.3 cumulative IPC: 0.7218 (Simulation time: 04 hr 43 min 18 sec)
Heartbeat CPU 0 instructions: 1800000221 cycles: 2487531928 heartbeat IPC: 1.303 cumulative IPC: 0.7236 (Simulation time: 04 hr 44 min 01 sec)
Heartbeat CPU 0 instructions: 1810000221 cycles: 2495210465 heartbeat IPC: 1.302 cumulative IPC: 0.7254 (Simulation time: 04 hr 44 min 45 sec)
Heartbeat CPU 0 instructions: 1820000221 cycles: 2502890816 heartbeat IPC: 1.302 cumulative IPC: 0.7272 (Simulation time: 04 hr 45 min 31 sec)
Simulation CPU 0 panic: IPC 0.0028983 < 0.01
Heartbeat CPU 0 instructions: 1830000223 cycles: 2528457161 heartbeat IPC: 0.3911 cumulative IPC: 0.7238 (Simulation time: 04 hr 48 min 11 sec)
Heartbeat CPU 0 instructions: 1840000224 cycles: 2534581291 heartbeat IPC: 1.633 cumulative IPC: 0.726 (Simulation time: 04 hr 49 min 09 sec)
Heartbeat CPU 0 instructions: 1850000225 cycles: 2540873666 heartbeat IPC: 1.589 cumulative IPC: 0.7281 (Simulation time: 04 hr 50 min 07 sec)
Heartbeat CPU 0 instructions: 1860000226 cycles: 2547253265 heartbeat IPC: 1.567 cumulative IPC: 0.7302 (Simulation time: 04 hr 51 min 05 sec)
Heartbeat CPU 0 instructions: 1870000227 cycles: 2553671705 heartbeat IPC: 1.558 cumulative IPC: 0.7323 (Simulation time: 04 hr 52 min 03 sec)
Heartbeat CPU 0 instructions: 1880000228 cycles: 2560195477 heartbeat IPC: 1.533 cumulative IPC: 0.7343 (Simulation time: 04 hr 53 min 03 sec)
Heartbeat CPU 0 instructions: 1890000228 cycles: 2576036602 heartbeat IPC: 0.6313 cumulative IPC: 0.7337 (Simulation time: 04 hr 55 min 11 sec)
Heartbeat CPU 0 instructions: 1900000230 cycles: 2581340136 heartbeat IPC: 1.886 cumulative IPC: 0.7361 (Simulation time: 04 hr 56 min 04 sec)
Heartbeat CPU 0 instructions: 1910000230 cycles: 2586589765 heartbeat IPC: 1.905 cumulative IPC: 0.7384 (Simulation time: 04 hr 56 min 55 sec)
Heartbeat CPU 0 instructions: 1920000232 cycles: 2591989053 heartbeat IPC: 1.852 cumulative IPC: 0.7407 (Simulation time: 04 hr 57 min 48 sec)
Heartbeat CPU 0 instructions: 1930000233 cycles: 2597281673 heartbeat IPC: 1.889 cumulative IPC: 0.7431 (Simulation time: 04 hr 58 min 41 sec)
Heartbeat CPU 0 instructions: 1940000236 cycles: 2602526836 heartbeat IPC: 1.907 cumulative IPC: 0.7454 (Simulation time: 04 hr 59 min 33 sec)
Heartbeat CPU 0 instructions: 1950000236 cycles: 2607856705 heartbeat IPC: 1.876 cumulative IPC: 0.7477 (Simulation time: 05 hr 00 min 25 sec)
Heartbeat CPU 0 instructions: 1960000239 cycles: 2613139212 heartbeat IPC: 1.893 cumulative IPC: 0.7501 (Simulation time: 05 hr 01 min 17 sec)
Heartbeat CPU 0 instructions: 1970000239 cycles: 2618420219 heartbeat IPC: 1.894 cumulative IPC: 0.7524 (Simulation time: 05 hr 02 min 09 sec)
Heartbeat CPU 0 instructions: 1980000239 cycles: 2623663038 heartbeat IPC: 1.907 cumulative IPC: 0.7547 (Simulation time: 05 hr 03 min 02 sec)
Heartbeat CPU 0 instructions: 1990000240 cycles: 2638117382 heartbeat IPC: 0.6918 cumulative IPC: 0.7543 (Simulation time: 05 hr 04 min 59 sec)

=== ERROR PAGE STATISTICS ===
Mode: CYCLE
Error Cycle Interval: 464841614 CPU cycles
Total Error Accesses: 5
==============================
Simulation finished CPU 0 instructions: 1999999905 cycles: 2646656087 cumulative IPC: 0.7557 (Simulation time: 05 hr 06 min 15 sec)
Simulation complete CPU 0 instructions: 1999999905 cycles: 2646656087 cumulative IPC: 0.7557 (Simulation time: 05 hr 06 min 15 sec)

ChampSim completed all CPUs

=== Simulation ===
CPU 0 runs test_traces/621.wrf_s-6673B.champsimtrace.xz

Region of Interest Statistics

CPU 0 cumulative IPC: 0.7557 instructions: 1999999905 cycles: 2646656087
CPU 0 Branch Prediction Accuracy: 93.25% MPKI: 6.743 Average ROB Occupancy at Mispredict: 67.1
Branch type MPKI
BRANCH_DIRECT_JUMP: 0.00112
BRANCH_INDIRECT: 6.95e-05
BRANCH_CONDITIONAL: 5.98
BRANCH_DIRECT_CALL: 0.002089
BRANCH_INDIRECT_CALL: 2e-06
BRANCH_RETURN: 0.7595

cpu0->cpu0_STLB TOTAL        ACCESS:        696 HIT:        563 MISS:        133 MSHR_MERGE:          0
cpu0->cpu0_STLB LOAD         ACCESS:        696 HIT:        563 MISS:        133 MSHR_MERGE:          0
cpu0->cpu0_STLB RFO          ACCESS:          0 HIT:          0 MISS:          0 MSHR_MERGE:          0
cpu0->cpu0_STLB PREFETCH     ACCESS:          0 HIT:          0 MISS:          0 MSHR_MERGE:          0
cpu0->cpu0_STLB WRITE        ACCESS:          0 HIT:          0 MISS:          0 MSHR_MERGE:          0
cpu0->cpu0_STLB TRANSLATION  ACCESS:          0 HIT:          0 MISS:          0 MSHR_MERGE:          0
cpu0->cpu0_STLB PREFETCH REQUESTED:          0 ISSUED:          0 USEFUL:          0 USELESS:          0
cpu0->cpu0_STLB AVERAGE MISS LATENCY: 9.835e+06 cycles
cpu0->cpu0_L2C TOTAL        ACCESS:   24596817 HIT:   13030363 MISS:   11566454 MSHR_MERGE:          0
cpu0->cpu0_L2C LOAD         ACCESS:   13803389 HIT:    4690786 MISS:    9112603 MSHR_MERGE:          0
cpu0->cpu0_L2C RFO          ACCESS:    3870352 HIT:    1420498 MISS:    2449854 MSHR_MERGE:          0
cpu0->cpu0_L2C PREFETCH     ACCESS:          0 HIT:          0 MISS:          0 MSHR_MERGE:          0
cpu0->cpu0_L2C WRITE        ACCESS:    6923076 HIT:    6919079 MISS:       3997 MSHR_MERGE:          0
cpu0->cpu0_L2C TRANSLATION  ACCESS:          0 HIT:          0 MISS:          0 MSHR_MERGE:          0
cpu0->cpu0_L2C PREFETCH REQUESTED:          0 ISSUED:          0 USEFUL:          0 USELESS:          0
cpu0->cpu0_L2C AVERAGE MISS LATENCY: 114.2 cycles
cpu0->cpu0_L1I TOTAL        ACCESS:  172631717 HIT:  171505431 MISS:    1126286 MSHR_MERGE:     423991
cpu0->cpu0_L1I LOAD         ACCESS:  172631717 HIT:  171505431 MISS:    1126286 MSHR_MERGE:     423991
cpu0->cpu0_L1I RFO          ACCESS:          0 HIT:          0 MISS:          0 MSHR_MERGE:          0
cpu0->cpu0_L1I PREFETCH     ACCESS:          0 HIT:          0 MISS:          0 MSHR_MERGE:          0
cpu0->cpu0_L1I WRITE        ACCESS:          0 HIT:          0 MISS:          0 MSHR_MERGE:          0
cpu0->cpu0_L1I TRANSLATION  ACCESS:          0 HIT:          0 MISS:          0 MSHR_MERGE:          0
cpu0->cpu0_L1I PREFETCH REQUESTED:          0 ISSUED:          0 USEFUL:          0 USELESS:          0
cpu0->cpu0_L1I AVERAGE MISS LATENCY: 13.8 cycles
cpu0->cpu0_L1D TOTAL        ACCESS:  525447440 HIT:  487776088 MISS:   37671352 MSHR_MERGE:   20699689
cpu0->cpu0_L1D LOAD         ACCESS:  412280178 HIT:  388388462 MISS:   23891716 MSHR_MERGE:   10790534
cpu0->cpu0_L1D RFO          ACCESS:          0 HIT:          0 MISS:          0 MSHR_MERGE:          0
cpu0->cpu0_L1D PREFETCH     ACCESS:          0 HIT:          0 MISS:          0 MSHR_MERGE:          0
cpu0->cpu0_L1D WRITE        ACCESS:  113167262 HIT:   99387626 MISS:   13779636 MSHR_MERGE:    9909155
cpu0->cpu0_L1D TRANSLATION  ACCESS:          0 HIT:          0 MISS:          0 MSHR_MERGE:          0
cpu0->cpu0_L1D PREFETCH REQUESTED:          0 ISSUED:          0 USEFUL:          0 USELESS:          0
cpu0->cpu0_L1D AVERAGE MISS LATENCY: 86.39 cycles
cpu0->cpu0_ITLB TOTAL        ACCESS:  147669049 HIT:  147668994 MISS:         55 MSHR_MERGE:         40
cpu0->cpu0_ITLB LOAD         ACCESS:  147669049 HIT:  147668994 MISS:         55 MSHR_MERGE:         40
cpu0->cpu0_ITLB RFO          ACCESS:          0 HIT:          0 MISS:          0 MSHR_MERGE:          0
cpu0->cpu0_ITLB PREFETCH     ACCESS:          0 HIT:          0 MISS:          0 MSHR_MERGE:          0
cpu0->cpu0_ITLB WRITE        ACCESS:          0 HIT:          0 MISS:          0 MSHR_MERGE:          0
cpu0->cpu0_ITLB TRANSLATION  ACCESS:          0 HIT:          0 MISS:          0 MSHR_MERGE:          0
cpu0->cpu0_ITLB PREFETCH REQUESTED:          0 ISSUED:          0 USEFUL:          0 USELESS:          0
cpu0->cpu0_ITLB AVERAGE MISS LATENCY: 9.24e+06 cycles
cpu0->cpu0_DTLB TOTAL        ACCESS:  455351746 HIT:  455350353 MISS:       1393 MSHR_MERGE:        712
cpu0->cpu0_DTLB LOAD         ACCESS:  455351746 HIT:  455350353 MISS:       1393 MSHR_MERGE:        712
cpu0->cpu0_DTLB RFO          ACCESS:          0 HIT:          0 MISS:          0 MSHR_MERGE:          0
cpu0->cpu0_DTLB PREFETCH     ACCESS:          0 HIT:          0 MISS:          0 MSHR_MERGE:          0
cpu0->cpu0_DTLB WRITE        ACCESS:          0 HIT:          0 MISS:          0 MSHR_MERGE:          0
cpu0->cpu0_DTLB TRANSLATION  ACCESS:          0 HIT:          0 MISS:          0 MSHR_MERGE:          0
cpu0->cpu0_DTLB PREFETCH REQUESTED:          0 ISSUED:          0 USEFUL:          0 USELESS:          0
cpu0->cpu0_DTLB AVERAGE MISS LATENCY: 1.717e+06 cycles
cpu0->LLC TOTAL        ACCESS:   16402709 HIT:    6357222 MISS:   10045487 MSHR_MERGE:          0
cpu0->LLC LOAD         ACCESS:    9112603 HIT:    1198512 MISS:    7914091 MSHR_MERGE:          0
cpu0->LLC RFO          ACCESS:    2449854 HIT:     330210 MISS:    2119644 MSHR_MERGE:          0
cpu0->LLC PREFETCH     ACCESS:          0 HIT:          0 MISS:          0 MSHR_MERGE:          0
cpu0->LLC WRITE        ACCESS:    4840252 HIT:    4828500 MISS:      11752 MSHR_MERGE:          0
cpu0->LLC TRANSLATION  ACCESS:          0 HIT:          0 MISS:          0 MSHR_MERGE:          0
cpu0->LLC PREFETCH REQUESTED:          0 ISSUED:          0 USEFUL:          0 USELESS:          0
cpu0->LLC AVERAGE MISS LATENCY: 113.2 cycles

DRAM Statistics

Channel 0 RQ ROW_BUFFER_HIT:     279140
  ROW_BUFFER_MISS:    4737771
  AVG DBUS CONGESTED CYCLE: 10.71
Channel 0 WQ ROW_BUFFER_HIT:     582927
  ROW_BUFFER_MISS:    1424127
  FULL:        265
Channel 0 REFRESHES ISSUED:     220540

Channel 1 RQ ROW_BUFFER_HIT:     278561
  ROW_BUFFER_MISS:    4738325
  AVG DBUS CONGESTED CYCLE: 10.71
Channel 1 WQ ROW_BUFFER_HIT:     579727
  ROW_BUFFER_MISS:    1427491
  FULL:        243
Channel 1 REFRESHES ISSUED:     220540
