[VMEM] WARNING: physical memory size is smaller than virtual memory size.

*** ChampSim Multicore Out-of-Order Simulator ***
Warmup Instructions: 0
Simulation Instructions: 9223372036854775807
Number of CPUs: 1
Page size: 2097152

Off-chip DRAM Size: 32 GiB Channels: 2 Width: 32-bit Data Rate: 4807 MT/s
[ERROR_PAGE_MANAGER] Error latency: 1990500 
[ERROR_PAGE_MANAGER] Random seed: 54321 (fixed for preload reproducibility)
[ERROR_PAGE_MANAGER] Cycle-based error modeling enabled
[ERROR_PAGE_MANAGER] Errors per interval: 1
[ERROR_PAGE_MANAGER] Error cycle interval: 70532401 cycles

=== ERROR PAGE STATISTICS ===
Mode: CYCLE
Error Cycle Interval: 70532401 CPU cycles
Total Error Accesses: 0
==============================
Warmup finished CPU 0 instructions: 0 cycles: 1 cumulative IPC: 0 (Simulation time: 00 hr 00 min 00 sec)
Warmup complete CPU 0 instructions: 0 cycles: 1 cumulative IPC: 0 (Simulation time: 00 hr 00 min 00 sec)
Heartbeat CPU 0 instructions: 10000004 cycles: 7777938 heartbeat IPC: 1.286 cumulative IPC: 1.286 (Simulation time: 00 hr 01 min 13 sec)
Heartbeat CPU 0 instructions: 20000004 cycles: 15541985 heartbeat IPC: 1.288 cumulative IPC: 1.287 (Simulation time: 00 hr 02 min 26 sec)
Heartbeat CPU 0 instructions: 30000004 cycles: 23683304 heartbeat IPC: 1.228 cumulative IPC: 1.267 (Simulation time: 00 hr 03 min 42 sec)
Heartbeat CPU 0 instructions: 40000008 cycles: 31409445 heartbeat IPC: 1.294 cumulative IPC: 1.274 (Simulation time: 00 hr 04 min 32 sec)
Heartbeat CPU 0 instructions: 50000009 cycles: 39568740 heartbeat IPC: 1.226 cumulative IPC: 1.264 (Simulation time: 00 hr 05 min 28 sec)
Heartbeat CPU 0 instructions: 60000010 cycles: 47801686 heartbeat IPC: 1.215 cumulative IPC: 1.255 (Simulation time: 00 hr 06 min 38 sec)
Heartbeat CPU 0 instructions: 70000013 cycles: 55534803 heartbeat IPC: 1.293 cumulative IPC: 1.26 (Simulation time: 00 hr 07 min 50 sec)
Heartbeat CPU 0 instructions: 80000013 cycles: 63740227 heartbeat IPC: 1.219 cumulative IPC: 1.255 (Simulation time: 00 hr 08 min 46 sec)
[ERROR_CYCLE] Error added at CPU cycle 70532402, interval 1, pending count: 1
[DRAM_CYCLE_ERROR] Cycle-based error applied! address=0x6e371e000 additional_latency=1990500 cycles
Heartbeat CPU 0 instructions: 90000014 cycles: 71407919 heartbeat IPC: 1.304 cumulative IPC: 1.26 (Simulation time: 00 hr 09 min 58 sec)
Heartbeat CPU 0 instructions: 100000015 cycles: 79233742 heartbeat IPC: 1.278 cumulative IPC: 1.262 (Simulation time: 00 hr 11 min 10 sec)
Heartbeat CPU 0 instructions: 110000018 cycles: 87161988 heartbeat IPC: 1.261 cumulative IPC: 1.262 (Simulation time: 00 hr 12 min 08 sec)
Heartbeat CPU 0 instructions: 120000022 cycles: 95052978 heartbeat IPC: 1.267 cumulative IPC: 1.262 (Simulation time: 00 hr 13 min 06 sec)
Heartbeat CPU 0 instructions: 130000024 cycles: 103224122 heartbeat IPC: 1.224 cumulative IPC: 1.259 (Simulation time: 00 hr 14 min 22 sec)
Heartbeat CPU 0 instructions: 140000025 cycles: 111022781 heartbeat IPC: 1.282 cumulative IPC: 1.261 (Simulation time: 00 hr 15 min 34 sec)
Heartbeat CPU 0 instructions: 150000028 cycles: 118760826 heartbeat IPC: 1.292 cumulative IPC: 1.263 (Simulation time: 00 hr 16 min 29 sec)
Heartbeat CPU 0 instructions: 160000029 cycles: 126474553 heartbeat IPC: 1.296 cumulative IPC: 1.265 (Simulation time: 00 hr 17 min 30 sec)
Heartbeat CPU 0 instructions: 170000032 cycles: 134081493 heartbeat IPC: 1.315 cumulative IPC: 1.268 (Simulation time: 00 hr 18 min 27 sec)
[ERROR_CYCLE] Error added at CPU cycle 141064802, interval 2, pending count: 1
[DRAM_CYCLE_ERROR] Cycle-based error applied! address=0x206bc6300 additional_latency=1990500 cycles
Heartbeat CPU 0 instructions: 180000035 cycles: 141706579 heartbeat IPC: 1.311 cumulative IPC: 1.27 (Simulation time: 00 hr 19 min 40 sec)
Heartbeat CPU 0 instructions: 190000037 cycles: 149503550 heartbeat IPC: 1.283 cumulative IPC: 1.271 (Simulation time: 00 hr 20 min 49 sec)
Heartbeat CPU 0 instructions: 200000039 cycles: 157211159 heartbeat IPC: 1.297 cumulative IPC: 1.272 (Simulation time: 00 hr 21 min 50 sec)
Heartbeat CPU 0 instructions: 210000042 cycles: 165153258 heartbeat IPC: 1.259 cumulative IPC: 1.272 (Simulation time: 00 hr 22 min 59 sec)
Heartbeat CPU 0 instructions: 220000046 cycles: 173052664 heartbeat IPC: 1.266 cumulative IPC: 1.271 (Simulation time: 00 hr 24 min 12 sec)
Heartbeat CPU 0 instructions: 230000048 cycles: 180954362 heartbeat IPC: 1.266 cumulative IPC: 1.271 (Simulation time: 00 hr 25 min 26 sec)
Heartbeat CPU 0 instructions: 240000049 cycles: 188738795 heartbeat IPC: 1.285 cumulative IPC: 1.272 (Simulation time: 00 hr 26 min 38 sec)
Heartbeat CPU 0 instructions: 250000050 cycles: 196533947 heartbeat IPC: 1.283 cumulative IPC: 1.272 (Simulation time: 00 hr 27 min 51 sec)
Heartbeat CPU 0 instructions: 260000052 cycles: 204519418 heartbeat IPC: 1.252 cumulative IPC: 1.271 (Simulation time: 00 hr 29 min 06 sec)
[ERROR_CYCLE] Error added at CPU cycle 211597203, interval 3, pending count: 1
[DRAM_CYCLE_ERROR] Cycle-based error applied! address=0x1b06fcd40 additional_latency=1990500 cycles
Heartbeat CPU 0 instructions: 270000054 cycles: 212123545 heartbeat IPC: 1.315 cumulative IPC: 1.273 (Simulation time: 00 hr 30 min 17 sec)
Heartbeat CPU 0 instructions: 280000055 cycles: 219883934 heartbeat IPC: 1.289 cumulative IPC: 1.273 (Simulation time: 00 hr 31 min 31 sec)
Heartbeat CPU 0 instructions: 290000059 cycles: 227519638 heartbeat IPC: 1.31 cumulative IPC: 1.275 (Simulation time: 00 hr 32 min 43 sec)
Heartbeat CPU 0 instructions: 300000062 cycles: 235235623 heartbeat IPC: 1.296 cumulative IPC: 1.275 (Simulation time: 00 hr 33 min 53 sec)
Heartbeat CPU 0 instructions: 310000062 cycles: 242920199 heartbeat IPC: 1.301 cumulative IPC: 1.276 (Simulation time: 00 hr 35 min 03 sec)
Heartbeat CPU 0 instructions: 320000065 cycles: 250522997 heartbeat IPC: 1.315 cumulative IPC: 1.277 (Simulation time: 00 hr 36 min 11 sec)
Heartbeat CPU 0 instructions: 330000065 cycles: 258136240 heartbeat IPC: 1.314 cumulative IPC: 1.278 (Simulation time: 00 hr 37 min 20 sec)
Heartbeat CPU 0 instructions: 340000066 cycles: 265856564 heartbeat IPC: 1.295 cumulative IPC: 1.279 (Simulation time: 00 hr 38 min 30 sec)
Heartbeat CPU 0 instructions: 350000070 cycles: 273563886 heartbeat IPC: 1.297 cumulative IPC: 1.279 (Simulation time: 00 hr 39 min 42 sec)
Heartbeat CPU 0 instructions: 360000070 cycles: 281278571 heartbeat IPC: 1.296 cumulative IPC: 1.28 (Simulation time: 00 hr 40 min 54 sec)
[ERROR_CYCLE] Error added at CPU cycle 282129604, interval 4, pending count: 1
[DRAM_CYCLE_ERROR] Cycle-based error applied! address=0x5b5a0b440 additional_latency=1990500 cycles
Heartbeat CPU 0 instructions: 370000071 cycles: 289323032 heartbeat IPC: 1.243 cumulative IPC: 1.279 (Simulation time: 00 hr 42 min 09 sec)
Heartbeat CPU 0 instructions: 380000075 cycles: 297116443 heartbeat IPC: 1.283 cumulative IPC: 1.279 (Simulation time: 00 hr 43 min 22 sec)
Heartbeat CPU 0 instructions: 390000077 cycles: 304967866 heartbeat IPC: 1.274 cumulative IPC: 1.279 (Simulation time: 00 hr 44 min 36 sec)
Heartbeat CPU 0 instructions: 400000078 cycles: 312766243 heartbeat IPC: 1.282 cumulative IPC: 1.279 (Simulation time: 00 hr 45 min 48 sec)
Heartbeat CPU 0 instructions: 410000081 cycles: 320524994 heartbeat IPC: 1.289 cumulative IPC: 1.279 (Simulation time: 00 hr 46 min 43 sec)
Heartbeat CPU 0 instructions: 420000081 cycles: 328453105 heartbeat IPC: 1.261 cumulative IPC: 1.279 (Simulation time: 00 hr 47 min 40 sec)
Heartbeat CPU 0 instructions: 430000081 cycles: 336382947 heartbeat IPC: 1.261 cumulative IPC: 1.278 (Simulation time: 00 hr 48 min 52 sec)
Heartbeat CPU 0 instructions: 440000085 cycles: 344341680 heartbeat IPC: 1.256 cumulative IPC: 1.278 (Simulation time: 00 hr 50 min 05 sec)
Heartbeat CPU 0 instructions: 450000086 cycles: 352231717 heartbeat IPC: 1.267 cumulative IPC: 1.278 (Simulation time: 00 hr 51 min 17 sec)
[ERROR_CYCLE] Error added at CPU cycle 352662006, interval 5, pending count: 1
[DRAM_CYCLE_ERROR] Cycle-based error applied! address=0x68e464bc0 additional_latency=1990500 cycles
Heartbeat CPU 0 instructions: 460000087 cycles: 359945395 heartbeat IPC: 1.296 cumulative IPC: 1.278 (Simulation time: 00 hr 52 min 19 sec)
Heartbeat CPU 0 instructions: 470000088 cycles: 367720927 heartbeat IPC: 1.286 cumulative IPC: 1.278 (Simulation time: 00 hr 53 min 16 sec)
Heartbeat CPU 0 instructions: 480000089 cycles: 375457883 heartbeat IPC: 1.292 cumulative IPC: 1.278 (Simulation time: 00 hr 54 min 09 sec)
Heartbeat CPU 0 instructions: 490000091 cycles: 383119060 heartbeat IPC: 1.305 cumulative IPC: 1.279 (Simulation time: 00 hr 55 min 17 sec)
Heartbeat CPU 0 instructions: 500000092 cycles: 390686491 heartbeat IPC: 1.321 cumulative IPC: 1.28 (Simulation time: 00 hr 56 min 28 sec)
Heartbeat CPU 0 instructions: 510000092 cycles: 398293951 heartbeat IPC: 1.314 cumulative IPC: 1.28 (Simulation time: 00 hr 57 min 39 sec)
Heartbeat CPU 0 instructions: 520000096 cycles: 406120291 heartbeat IPC: 1.278 cumulative IPC: 1.28 (Simulation time: 00 hr 58 min 49 sec)
Heartbeat CPU 0 instructions: 530000100 cycles: 413768511 heartbeat IPC: 1.307 cumulative IPC: 1.281 (Simulation time: 00 hr 59 min 54 sec)
Heartbeat CPU 0 instructions: 540000104 cycles: 421446954 heartbeat IPC: 1.302 cumulative IPC: 1.281 (Simulation time: 01 hr 00 min 53 sec)
[ERROR_CYCLE] Error added at CPU cycle 423194407, interval 6, pending count: 1
[DRAM_CYCLE_ERROR] Cycle-based error applied! address=0x6f0cb2b40 additional_latency=1990500 cycles
Heartbeat CPU 0 instructions: 550000108 cycles: 429055822 heartbeat IPC: 1.314 cumulative IPC: 1.282 (Simulation time: 01 hr 01 min 50 sec)
Heartbeat CPU 0 instructions: 560000111 cycles: 436655896 heartbeat IPC: 1.316 cumulative IPC: 1.282 (Simulation time: 01 hr 02 min 50 sec)
Heartbeat CPU 0 instructions: 570000112 cycles: 444278807 heartbeat IPC: 1.312 cumulative IPC: 1.283 (Simulation time: 01 hr 03 min 58 sec)
Heartbeat CPU 0 instructions: 580000116 cycles: 451882113 heartbeat IPC: 1.315 cumulative IPC: 1.284 (Simulation time: 01 hr 05 min 08 sec)
Heartbeat CPU 0 instructions: 590000117 cycles: 459506081 heartbeat IPC: 1.312 cumulative IPC: 1.284 (Simulation time: 01 hr 06 min 00 sec)
Heartbeat CPU 0 instructions: 600000120 cycles: 467155720 heartbeat IPC: 1.307 cumulative IPC: 1.284 (Simulation time: 01 hr 07 min 12 sec)
Heartbeat CPU 0 instructions: 610000122 cycles: 475224301 heartbeat IPC: 1.239 cumulative IPC: 1.284 (Simulation time: 01 hr 08 min 26 sec)
Heartbeat CPU 0 instructions: 620000123 cycles: 483347258 heartbeat IPC: 1.231 cumulative IPC: 1.283 (Simulation time: 01 hr 09 min 38 sec)
Heartbeat CPU 0 instructions: 630000125 cycles: 491038895 heartbeat IPC: 1.3 cumulative IPC: 1.283 (Simulation time: 01 hr 10 min 50 sec)
[ERROR_CYCLE] Error added at CPU cycle 493726807, interval 7, pending count: 1
[DRAM_CYCLE_ERROR] Cycle-based error applied! address=0x22c223080 additional_latency=1990500 cycles
Heartbeat CPU 0 instructions: 640000128 cycles: 498798477 heartbeat IPC: 1.289 cumulative IPC: 1.283 (Simulation time: 01 hr 12 min 01 sec)
Heartbeat CPU 0 instructions: 650000132 cycles: 506551293 heartbeat IPC: 1.29 cumulative IPC: 1.283 (Simulation time: 01 hr 13 min 11 sec)
Heartbeat CPU 0 instructions: 660000133 cycles: 514159147 heartbeat IPC: 1.314 cumulative IPC: 1.284 (Simulation time: 01 hr 14 min 21 sec)
Heartbeat CPU 0 instructions: 670000137 cycles: 521789513 heartbeat IPC: 1.311 cumulative IPC: 1.284 (Simulation time: 01 hr 15 min 30 sec)
Heartbeat CPU 0 instructions: 680000141 cycles: 529447573 heartbeat IPC: 1.306 cumulative IPC: 1.284 (Simulation time: 01 hr 16 min 40 sec)
Heartbeat CPU 0 instructions: 690000141 cycles: 537309848 heartbeat IPC: 1.272 cumulative IPC: 1.284 (Simulation time: 01 hr 17 min 51 sec)
Heartbeat CPU 0 instructions: 700000141 cycles: 545187778 heartbeat IPC: 1.269 cumulative IPC: 1.284 (Simulation time: 01 hr 19 min 02 sec)
Heartbeat CPU 0 instructions: 710000144 cycles: 552852182 heartbeat IPC: 1.305 cumulative IPC: 1.284 (Simulation time: 01 hr 20 min 12 sec)
Heartbeat CPU 0 instructions: 720000148 cycles: 560458011 heartbeat IPC: 1.315 cumulative IPC: 1.285 (Simulation time: 01 hr 21 min 21 sec)
[ERROR_CYCLE] Error added at CPU cycle 564259208, interval 8, pending count: 1
[DRAM_CYCLE_ERROR] Cycle-based error applied! address=0x3ba0e4480 additional_latency=1990500 cycles
Heartbeat CPU 0 instructions: 730000148 cycles: 568207443 heartbeat IPC: 1.29 cumulative IPC: 1.285 (Simulation time: 01 hr 22 min 33 sec)
Heartbeat CPU 0 instructions: 740000148 cycles: 576123333 heartbeat IPC: 1.263 cumulative IPC: 1.284 (Simulation time: 01 hr 23 min 47 sec)
Heartbeat CPU 0 instructions: 750000149 cycles: 584252112 heartbeat IPC: 1.23 cumulative IPC: 1.284 (Simulation time: 01 hr 25 min 01 sec)
Heartbeat CPU 0 instructions: 760000150 cycles: 592422054 heartbeat IPC: 1.224 cumulative IPC: 1.283 (Simulation time: 01 hr 26 min 18 sec)
Heartbeat CPU 0 instructions: 770000150 cycles: 600536620 heartbeat IPC: 1.232 cumulative IPC: 1.282 (Simulation time: 01 hr 27 min 33 sec)
Heartbeat CPU 0 instructions: 780000152 cycles: 608335671 heartbeat IPC: 1.282 cumulative IPC: 1.282 (Simulation time: 01 hr 28 min 47 sec)
Heartbeat CPU 0 instructions: 790000153 cycles: 616016054 heartbeat IPC: 1.302 cumulative IPC: 1.282 (Simulation time: 01 hr 29 min 59 sec)
Heartbeat CPU 0 instructions: 800000155 cycles: 623675188 heartbeat IPC: 1.306 cumulative IPC: 1.283 (Simulation time: 01 hr 31 min 11 sec)
Heartbeat CPU 0 instructions: 810000158 cycles: 631316599 heartbeat IPC: 1.309 cumulative IPC: 1.283 (Simulation time: 01 hr 32 min 24 sec)
[ERROR_CYCLE] Error added at CPU cycle 634791609, interval 9, pending count: 1
[DRAM_CYCLE_ERROR] Cycle-based error applied! address=0x5ad4a780 additional_latency=1990500 cycles
Heartbeat CPU 0 instructions: 820000159 cycles: 638965298 heartbeat IPC: 1.307 cumulative IPC: 1.283 (Simulation time: 01 hr 33 min 36 sec)
Heartbeat CPU 0 instructions: 830000161 cycles: 646683636 heartbeat IPC: 1.296 cumulative IPC: 1.283 (Simulation time: 01 hr 34 min 49 sec)
Heartbeat CPU 0 instructions: 840000162 cycles: 654805425 heartbeat IPC: 1.231 cumulative IPC: 1.283 (Simulation time: 01 hr 36 min 04 sec)
Heartbeat CPU 0 instructions: 850000162 cycles: 662913313 heartbeat IPC: 1.233 cumulative IPC: 1.282 (Simulation time: 01 hr 37 min 20 sec)
Heartbeat CPU 0 instructions: 860000162 cycles: 670543516 heartbeat IPC: 1.311 cumulative IPC: 1.283 (Simulation time: 01 hr 38 min 32 sec)
Heartbeat CPU 0 instructions: 870000163 cycles: 678153567 heartbeat IPC: 1.314 cumulative IPC: 1.283 (Simulation time: 01 hr 39 min 44 sec)
Heartbeat CPU 0 instructions: 880000164 cycles: 685745114 heartbeat IPC: 1.317 cumulative IPC: 1.283 (Simulation time: 01 hr 40 min 55 sec)
Heartbeat CPU 0 instructions: 890000167 cycles: 693327114 heartbeat IPC: 1.319 cumulative IPC: 1.284 (Simulation time: 01 hr 42 min 07 sec)
Heartbeat CPU 0 instructions: 900000167 cycles: 700896897 heartbeat IPC: 1.321 cumulative IPC: 1.284 (Simulation time: 01 hr 43 min 19 sec)
[ERROR_CYCLE] Error added at CPU cycle 705324011, interval 10, pending count: 1
[DRAM_CYCLE_ERROR] Cycle-based error applied! address=0x2c36d9940 additional_latency=1990500 cycles
Heartbeat CPU 0 instructions: 910000170 cycles: 708486028 heartbeat IPC: 1.318 cumulative IPC: 1.284 (Simulation time: 01 hr 44 min 30 sec)
Heartbeat CPU 0 instructions: 920000172 cycles: 716128417 heartbeat IPC: 1.308 cumulative IPC: 1.285 (Simulation time: 01 hr 45 min 42 sec)
Heartbeat CPU 0 instructions: 930000172 cycles: 723858945 heartbeat IPC: 1.294 cumulative IPC: 1.285 (Simulation time: 01 hr 46 min 55 sec)
Heartbeat CPU 0 instructions: 940000173 cycles: 732026089 heartbeat IPC: 1.224 cumulative IPC: 1.284 (Simulation time: 01 hr 48 min 11 sec)
Heartbeat CPU 0 instructions: 950000174 cycles: 739831076 heartbeat IPC: 1.281 cumulative IPC: 1.284 (Simulation time: 01 hr 49 min 25 sec)
Heartbeat CPU 0 instructions: 960000177 cycles: 747569157 heartbeat IPC: 1.292 cumulative IPC: 1.284 (Simulation time: 01 hr 50 min 37 sec)
Heartbeat CPU 0 instructions: 970000177 cycles: 755494077 heartbeat IPC: 1.262 cumulative IPC: 1.284 (Simulation time: 01 hr 51 min 41 sec)
Heartbeat CPU 0 instructions: 980000178 cycles: 763601911 heartbeat IPC: 1.233 cumulative IPC: 1.283 (Simulation time: 01 hr 52 min 41 sec)
Heartbeat CPU 0 instructions: 990000178 cycles: 771409319 heartbeat IPC: 1.281 cumulative IPC: 1.283 (Simulation time: 01 hr 53 min 37 sec)
[ERROR_CYCLE] Error added at CPU cycle 775856412, interval 11, pending count: 1
[DRAM_CYCLE_ERROR] Cycle-based error applied! address=0x3d06b2a80 additional_latency=1990500 cycles
Heartbeat CPU 0 instructions: 1000000180 cycles: 779336583 heartbeat IPC: 1.261 cumulative IPC: 1.283 (Simulation time: 01 hr 54 min 37 sec)
Heartbeat CPU 0 instructions: 1010000180 cycles: 787043416 heartbeat IPC: 1.298 cumulative IPC: 1.283 (Simulation time: 01 hr 55 min 30 sec)
Heartbeat CPU 0 instructions: 1020000183 cycles: 794679335 heartbeat IPC: 1.31 cumulative IPC: 1.284 (Simulation time: 01 hr 56 min 23 sec)
Heartbeat CPU 0 instructions: 1030000184 cycles: 802608557 heartbeat IPC: 1.261 cumulative IPC: 1.283 (Simulation time: 01 hr 57 min 36 sec)
Heartbeat CPU 0 instructions: 1040000185 cycles: 810458869 heartbeat IPC: 1.274 cumulative IPC: 1.283 (Simulation time: 01 hr 58 min 49 sec)
Heartbeat CPU 0 instructions: 1050000186 cycles: 818090000 heartbeat IPC: 1.31 cumulative IPC: 1.283 (Simulation time: 01 hr 59 min 52 sec)
Heartbeat CPU 0 instructions: 1060000190 cycles: 825736118 heartbeat IPC: 1.308 cumulative IPC: 1.284 (Simulation time: 02 hr 00 min 55 sec)
Heartbeat CPU 0 instructions: 1070000194 cycles: 833439651 heartbeat IPC: 1.298 cumulative IPC: 1.284 (Simulation time: 02 hr 02 min 07 sec)
Heartbeat CPU 0 instructions: 1080000194 cycles: 841057016 heartbeat IPC: 1.313 cumulative IPC: 1.284 (Simulation time: 02 hr 02 min 58 sec)
[ERROR_CYCLE] Error added at CPU cycle 846388812, interval 12, pending count: 1
[DRAM_CYCLE_ERROR] Cycle-based error applied! address=0x730eee880 additional_latency=1990500 cycles
Heartbeat CPU 0 instructions: 1090000194 cycles: 848733539 heartbeat IPC: 1.303 cumulative IPC: 1.284 (Simulation time: 02 hr 03 min 47 sec)
Heartbeat CPU 0 instructions: 1100000194 cycles: 856448215 heartbeat IPC: 1.296 cumulative IPC: 1.284 (Simulation time: 02 hr 04 min 48 sec)
Heartbeat CPU 0 instructions: 1110000195 cycles: 864197504 heartbeat IPC: 1.29 cumulative IPC: 1.284 (Simulation time: 02 hr 06 min 01 sec)
Heartbeat CPU 0 instructions: 1120000195 cycles: 872036805 heartbeat IPC: 1.276 cumulative IPC: 1.284 (Simulation time: 02 hr 07 min 14 sec)
Heartbeat CPU 0 instructions: 1130000196 cycles: 879829796 heartbeat IPC: 1.283 cumulative IPC: 1.284 (Simulation time: 02 hr 08 min 26 sec)
Heartbeat CPU 0 instructions: 1140000199 cycles: 887539340 heartbeat IPC: 1.297 cumulative IPC: 1.284 (Simulation time: 02 hr 09 min 38 sec)
Heartbeat CPU 0 instructions: 1150000199 cycles: 895263329 heartbeat IPC: 1.295 cumulative IPC: 1.285 (Simulation time: 02 hr 10 min 50 sec)
Heartbeat CPU 0 instructions: 1160000201 cycles: 903038315 heartbeat IPC: 1.286 cumulative IPC: 1.285 (Simulation time: 02 hr 12 min 02 sec)
Heartbeat CPU 0 instructions: 1170000204 cycles: 910813351 heartbeat IPC: 1.286 cumulative IPC: 1.285 (Simulation time: 02 hr 13 min 14 sec)
[ERROR_CYCLE] Error added at CPU cycle 916921213, interval 13, pending count: 1
[DRAM_CYCLE_ERROR] Cycle-based error applied! address=0x487866000 additional_latency=1990500 cycles
Heartbeat CPU 0 instructions: 1180000204 cycles: 918613824 heartbeat IPC: 1.282 cumulative IPC: 1.285 (Simulation time: 02 hr 14 min 26 sec)
Heartbeat CPU 0 instructions: 1190000205 cycles: 926211672 heartbeat IPC: 1.316 cumulative IPC: 1.285 (Simulation time: 02 hr 15 min 36 sec)
Heartbeat CPU 0 instructions: 1200000206 cycles: 933985595 heartbeat IPC: 1.286 cumulative IPC: 1.285 (Simulation time: 02 hr 16 min 48 sec)
Heartbeat CPU 0 instructions: 1210000206 cycles: 941591792 heartbeat IPC: 1.315 cumulative IPC: 1.285 (Simulation time: 02 hr 17 min 42 sec)
Heartbeat CPU 0 instructions: 1220000209 cycles: 949208794 heartbeat IPC: 1.313 cumulative IPC: 1.285 (Simulation time: 02 hr 18 min 40 sec)
Heartbeat CPU 0 instructions: 1230000210 cycles: 956844370 heartbeat IPC: 1.31 cumulative IPC: 1.285 (Simulation time: 02 hr 19 min 52 sec)
Heartbeat CPU 0 instructions: 1240000210 cycles: 964500347 heartbeat IPC: 1.306 cumulative IPC: 1.286 (Simulation time: 02 hr 21 min 04 sec)
Heartbeat CPU 0 instructions: 1250000211 cycles: 972151651 heartbeat IPC: 1.307 cumulative IPC: 1.286 (Simulation time: 02 hr 22 min 15 sec)
Heartbeat CPU 0 instructions: 1260000215 cycles: 979756847 heartbeat IPC: 1.315 cumulative IPC: 1.286 (Simulation time: 02 hr 23 min 27 sec)
Heartbeat CPU 0 instructions: 1270000215 cycles: 987383280 heartbeat IPC: 1.311 cumulative IPC: 1.286 (Simulation time: 02 hr 24 min 38 sec)
[ERROR_CYCLE] Error added at CPU cycle 987453615, interval 14, pending count: 1
[DRAM_CYCLE_ERROR] Cycle-based error applied! address=0x143dc9c0 additional_latency=1990500 cycles
Heartbeat CPU 0 instructions: 1280000216 cycles: 995076346 heartbeat IPC: 1.3 cumulative IPC: 1.286 (Simulation time: 02 hr 25 min 50 sec)
Heartbeat CPU 0 instructions: 1290000217 cycles: 1002708889 heartbeat IPC: 1.31 cumulative IPC: 1.287 (Simulation time: 02 hr 27 min 02 sec)
Heartbeat CPU 0 instructions: 1300000220 cycles: 1010586769 heartbeat IPC: 1.269 cumulative IPC: 1.286 (Simulation time: 02 hr 28 min 15 sec)
Heartbeat CPU 0 instructions: 1310000221 cycles: 1018330560 heartbeat IPC: 1.291 cumulative IPC: 1.286 (Simulation time: 02 hr 29 min 28 sec)
Heartbeat CPU 0 instructions: 1320000221 cycles: 1025961760 heartbeat IPC: 1.31 cumulative IPC: 1.287 (Simulation time: 02 hr 30 min 39 sec)
Heartbeat CPU 0 instructions: 1330000221 cycles: 1033672001 heartbeat IPC: 1.297 cumulative IPC: 1.287 (Simulation time: 02 hr 31 min 52 sec)
Heartbeat CPU 0 instructions: 1340000223 cycles: 1041391460 heartbeat IPC: 1.295 cumulative IPC: 1.287 (Simulation time: 02 hr 33 min 04 sec)
Heartbeat CPU 0 instructions: 1350000226 cycles: 1049171384 heartbeat IPC: 1.285 cumulative IPC: 1.287 (Simulation time: 02 hr 34 min 17 sec)
Heartbeat CPU 0 instructions: 1360000227 cycles: 1057388748 heartbeat IPC: 1.217 cumulative IPC: 1.286 (Simulation time: 02 hr 35 min 32 sec)
[ERROR_CYCLE] Error added at CPU cycle 1057986016, interval 15, pending count: 1
[DRAM_CYCLE_ERROR] Cycle-based error applied! address=0x314278500 additional_latency=1990500 cycles
Heartbeat CPU 0 instructions: 1370000228 cycles: 1065527904 heartbeat IPC: 1.229 cumulative IPC: 1.286 (Simulation time: 02 hr 36 min 47 sec)
Heartbeat CPU 0 instructions: 1380000231 cycles: 1073283170 heartbeat IPC: 1.289 cumulative IPC: 1.286 (Simulation time: 02 hr 37 min 59 sec)
Heartbeat CPU 0 instructions: 1390000231 cycles: 1080934442 heartbeat IPC: 1.307 cumulative IPC: 1.286 (Simulation time: 02 hr 39 min 11 sec)
Heartbeat CPU 0 instructions: 1400000232 cycles: 1088956451 heartbeat IPC: 1.247 cumulative IPC: 1.286 (Simulation time: 02 hr 40 min 26 sec)
Heartbeat CPU 0 instructions: 1410000233 cycles: 1096921442 heartbeat IPC: 1.255 cumulative IPC: 1.285 (Simulation time: 02 hr 41 min 40 sec)
Heartbeat CPU 0 instructions: 1420000237 cycles: 1104625254 heartbeat IPC: 1.298 cumulative IPC: 1.286 (Simulation time: 02 hr 42 min 52 sec)
Heartbeat CPU 0 instructions: 1430000239 cycles: 1112380152 heartbeat IPC: 1.29 cumulative IPC: 1.286 (Simulation time: 02 hr 44 min 05 sec)
Heartbeat CPU 0 instructions: 1440000242 cycles: 1120014098 heartbeat IPC: 1.31 cumulative IPC: 1.286 (Simulation time: 02 hr 45 min 17 sec)
Heartbeat CPU 0 instructions: 1450000243 cycles: 1127624344 heartbeat IPC: 1.314 cumulative IPC: 1.286 (Simulation time: 02 hr 46 min 28 sec)
[ERROR_CYCLE] Error added at CPU cycle 1128518416, interval 16, pending count: 1
[DRAM_CYCLE_ERROR] Cycle-based error applied! address=0x931caf80 additional_latency=1990500 cycles
Heartbeat CPU 0 instructions: 1460000243 cycles: 1135491082 heartbeat IPC: 1.271 cumulative IPC: 1.286 (Simulation time: 02 hr 47 min 42 sec)
Heartbeat CPU 0 instructions: 1470000245 cycles: 1143233731 heartbeat IPC: 1.292 cumulative IPC: 1.286 (Simulation time: 02 hr 48 min 54 sec)
Heartbeat CPU 0 instructions: 1480000245 cycles: 1150872814 heartbeat IPC: 1.309 cumulative IPC: 1.286 (Simulation time: 02 hr 50 min 06 sec)
Heartbeat CPU 0 instructions: 1490000248 cycles: 1158506317 heartbeat IPC: 1.31 cumulative IPC: 1.286 (Simulation time: 02 hr 51 min 18 sec)
Heartbeat CPU 0 instructions: 1500000249 cycles: 1166341960 heartbeat IPC: 1.276 cumulative IPC: 1.286 (Simulation time: 02 hr 52 min 31 sec)
Heartbeat CPU 0 instructions: 1510000252 cycles: 1174334523 heartbeat IPC: 1.251 cumulative IPC: 1.286 (Simulation time: 02 hr 53 min 45 sec)
Heartbeat CPU 0 instructions: 1520000256 cycles: 1182478481 heartbeat IPC: 1.228 cumulative IPC: 1.285 (Simulation time: 02 hr 55 min 00 sec)
Heartbeat CPU 0 instructions: 1530000258 cycles: 1190641316 heartbeat IPC: 1.225 cumulative IPC: 1.285 (Simulation time: 02 hr 56 min 15 sec)
Heartbeat CPU 0 instructions: 1540000259 cycles: 1198757306 heartbeat IPC: 1.232 cumulative IPC: 1.285 (Simulation time: 02 hr 57 min 30 sec)
[ERROR_CYCLE] Error added at CPU cycle 1199050817, interval 17, pending count: 1
[DRAM_CYCLE_ERROR] Cycle-based error applied! address=0x119e8c680 additional_latency=1990500 cycles
Heartbeat CPU 0 instructions: 1550000260 cycles: 1206796938 heartbeat IPC: 1.244 cumulative IPC: 1.284 (Simulation time: 02 hr 58 min 42 sec)
Heartbeat CPU 0 instructions: 1560000263 cycles: 1214445033 heartbeat IPC: 1.308 cumulative IPC: 1.285 (Simulation time: 02 hr 59 min 30 sec)
Heartbeat CPU 0 instructions: 1570000264 cycles: 1222338789 heartbeat IPC: 1.267 cumulative IPC: 1.284 (Simulation time: 03 hr 00 min 17 sec)
Heartbeat CPU 0 instructions: 1580000264 cycles: 1229921128 heartbeat IPC: 1.319 cumulative IPC: 1.285 (Simulation time: 03 hr 01 min 04 sec)
Heartbeat CPU 0 instructions: 1590000267 cycles: 1237680896 heartbeat IPC: 1.289 cumulative IPC: 1.285 (Simulation time: 03 hr 01 min 51 sec)
Heartbeat CPU 0 instructions: 1600000268 cycles: 1245443853 heartbeat IPC: 1.288 cumulative IPC: 1.285 (Simulation time: 03 hr 02 min 39 sec)
Heartbeat CPU 0 instructions: 1610000269 cycles: 1253608755 heartbeat IPC: 1.225 cumulative IPC: 1.284 (Simulation time: 03 hr 03 min 29 sec)
Heartbeat CPU 0 instructions: 1620000270 cycles: 1261191502 heartbeat IPC: 1.319 cumulative IPC: 1.284 (Simulation time: 03 hr 04 min 22 sec)
Heartbeat CPU 0 instructions: 1630000271 cycles: 1268797147 heartbeat IPC: 1.315 cumulative IPC: 1.285 (Simulation time: 03 hr 05 min 11 sec)
[ERROR_CYCLE] Error added at CPU cycle 1269583218, interval 18, pending count: 1
[DRAM_CYCLE_ERROR] Cycle-based error applied! address=0x64c9ed8c0 additional_latency=1990500 cycles
Heartbeat CPU 0 instructions: 1640000271 cycles: 1276473431 heartbeat IPC: 1.303 cumulative IPC: 1.285 (Simulation time: 03 hr 05 min 58 sec)
Heartbeat CPU 0 instructions: 1650000274 cycles: 1284119232 heartbeat IPC: 1.308 cumulative IPC: 1.285 (Simulation time: 03 hr 06 min 50 sec)
Heartbeat CPU 0 instructions: 1660000275 cycles: 1291902525 heartbeat IPC: 1.285 cumulative IPC: 1.285 (Simulation time: 03 hr 07 min 54 sec)
Heartbeat CPU 0 instructions: 1670000278 cycles: 1299639713 heartbeat IPC: 1.292 cumulative IPC: 1.285 (Simulation time: 03 hr 09 min 07 sec)
Heartbeat CPU 0 instructions: 1680000280 cycles: 1307317965 heartbeat IPC: 1.302 cumulative IPC: 1.285 (Simulation time: 03 hr 10 min 19 sec)
Heartbeat CPU 0 instructions: 1690000284 cycles: 1315175771 heartbeat IPC: 1.273 cumulative IPC: 1.285 (Simulation time: 03 hr 11 min 33 sec)
Heartbeat CPU 0 instructions: 1700000285 cycles: 1322820523 heartbeat IPC: 1.308 cumulative IPC: 1.285 (Simulation time: 03 hr 12 min 39 sec)
Heartbeat CPU 0 instructions: 1710000286 cycles: 1330444331 heartbeat IPC: 1.312 cumulative IPC: 1.285 (Simulation time: 03 hr 13 min 50 sec)
Heartbeat CPU 0 instructions: 1720000287 cycles: 1338001725 heartbeat IPC: 1.323 cumulative IPC: 1.285 (Simulation time: 03 hr 15 min 01 sec)
[ERROR_CYCLE] Error added at CPU cycle 1340115620, interval 19, pending count: 1
[DRAM_CYCLE_ERROR] Cycle-based error applied! address=0xb3695b80 additional_latency=1990500 cycles
Heartbeat CPU 0 instructions: 1730000288 cycles: 1345832131 heartbeat IPC: 1.277 cumulative IPC: 1.285 (Simulation time: 03 hr 16 min 13 sec)
Heartbeat CPU 0 instructions: 1740000288 cycles: 1353454173 heartbeat IPC: 1.312 cumulative IPC: 1.286 (Simulation time: 03 hr 17 min 24 sec)
Heartbeat CPU 0 instructions: 1750000291 cycles: 1361426721 heartbeat IPC: 1.254 cumulative IPC: 1.285 (Simulation time: 03 hr 18 min 38 sec)
Heartbeat CPU 0 instructions: 1760000294 cycles: 1369422041 heartbeat IPC: 1.251 cumulative IPC: 1.285 (Simulation time: 03 hr 19 min 52 sec)
Heartbeat CPU 0 instructions: 1770000294 cycles: 1377339090 heartbeat IPC: 1.263 cumulative IPC: 1.285 (Simulation time: 03 hr 20 min 58 sec)
Heartbeat CPU 0 instructions: 1780000298 cycles: 1385322948 heartbeat IPC: 1.253 cumulative IPC: 1.285 (Simulation time: 03 hr 22 min 00 sec)
Heartbeat CPU 0 instructions: 1790000301 cycles: 1392995616 heartbeat IPC: 1.303 cumulative IPC: 1.285 (Simulation time: 03 hr 23 min 11 sec)
Heartbeat CPU 0 instructions: 1800000303 cycles: 1400670950 heartbeat IPC: 1.303 cumulative IPC: 1.285 (Simulation time: 03 hr 24 min 23 sec)
Heartbeat CPU 0 instructions: 1810000303 cycles: 1408267948 heartbeat IPC: 1.316 cumulative IPC: 1.285 (Simulation time: 03 hr 25 min 34 sec)
[ERROR_CYCLE] Error added at CPU cycle 1410648021, interval 20, pending count: 1
[DRAM_CYCLE_ERROR] Cycle-based error applied! address=0x2ba961240 additional_latency=1990500 cycles
Heartbeat CPU 0 instructions: 1820000304 cycles: 1415920527 heartbeat IPC: 1.307 cumulative IPC: 1.285 (Simulation time: 03 hr 26 min 45 sec)
Heartbeat CPU 0 instructions: 1830000305 cycles: 1423496526 heartbeat IPC: 1.32 cumulative IPC: 1.286 (Simulation time: 03 hr 27 min 56 sec)
Heartbeat CPU 0 instructions: 1840000309 cycles: 1431546308 heartbeat IPC: 1.242 cumulative IPC: 1.285 (Simulation time: 03 hr 29 min 10 sec)
Heartbeat CPU 0 instructions: 1850000310 cycles: 1439178406 heartbeat IPC: 1.31 cumulative IPC: 1.285 (Simulation time: 03 hr 30 min 21 sec)
Heartbeat CPU 0 instructions: 1860000310 cycles: 1447136220 heartbeat IPC: 1.257 cumulative IPC: 1.285 (Simulation time: 03 hr 31 min 34 sec)
Heartbeat CPU 0 instructions: 1870000310 cycles: 1454794006 heartbeat IPC: 1.306 cumulative IPC: 1.285 (Simulation time: 03 hr 32 min 36 sec)
Heartbeat CPU 0 instructions: 1880000313 cycles: 1462597688 heartbeat IPC: 1.281 cumulative IPC: 1.285 (Simulation time: 03 hr 33 min 33 sec)
Heartbeat CPU 0 instructions: 1890000314 cycles: 1470267195 heartbeat IPC: 1.304 cumulative IPC: 1.285 (Simulation time: 03 hr 34 min 37 sec)
Heartbeat CPU 0 instructions: 1900000314 cycles: 1478006693 heartbeat IPC: 1.292 cumulative IPC: 1.286 (Simulation time: 03 hr 35 min 35 sec)
[ERROR_CYCLE] Error added at CPU cycle 1481180421, interval 21, pending count: 1
[DRAM_CYCLE_ERROR] Cycle-based error applied! address=0x307f5a880 additional_latency=1990500 cycles
Heartbeat CPU 0 instructions: 1910000317 cycles: 1485754939 heartbeat IPC: 1.291 cumulative IPC: 1.286 (Simulation time: 03 hr 36 min 35 sec)
Heartbeat CPU 0 instructions: 1920000318 cycles: 1493640492 heartbeat IPC: 1.268 cumulative IPC: 1.285 (Simulation time: 03 hr 37 min 26 sec)
Heartbeat CPU 0 instructions: 1930000318 cycles: 1501315669 heartbeat IPC: 1.303 cumulative IPC: 1.286 (Simulation time: 03 hr 38 min 32 sec)
Heartbeat CPU 0 instructions: 1940000319 cycles: 1509436716 heartbeat IPC: 1.231 cumulative IPC: 1.285 (Simulation time: 03 hr 39 min 48 sec)
Heartbeat CPU 0 instructions: 1950000321 cycles: 1517124535 heartbeat IPC: 1.301 cumulative IPC: 1.285 (Simulation time: 03 hr 40 min 47 sec)
Heartbeat CPU 0 instructions: 1960000325 cycles: 1524797635 heartbeat IPC: 1.303 cumulative IPC: 1.285 (Simulation time: 03 hr 41 min 56 sec)
Heartbeat CPU 0 instructions: 1970000329 cycles: 1532530265 heartbeat IPC: 1.293 cumulative IPC: 1.285 (Simulation time: 03 hr 43 min 08 sec)
Heartbeat CPU 0 instructions: 1980000330 cycles: 1540241915 heartbeat IPC: 1.297 cumulative IPC: 1.286 (Simulation time: 03 hr 44 min 20 sec)
Heartbeat CPU 0 instructions: 1990000331 cycles: 1547869386 heartbeat IPC: 1.311 cumulative IPC: 1.286 (Simulation time: 03 hr 45 min 32 sec)
[ERROR_CYCLE] Error added at CPU cycle 1551712822, interval 22, pending count: 1
[DRAM_CYCLE_ERROR] Cycle-based error applied! address=0x5632de600 additional_latency=1990500 cycles

=== ERROR PAGE STATISTICS ===
Mode: CYCLE
Error Cycle Interval: 70532401 CPU cycles
Total Error Accesses: 22
==============================
Simulation finished CPU 0 instructions: 1999999656 cycles: 1555701345 cumulative IPC: 1.286 (Simulation time: 03 hr 46 min 45 sec)
Simulation complete CPU 0 instructions: 1999999656 cycles: 1555701345 cumulative IPC: 1.286 (Simulation time: 03 hr 46 min 45 sec)

ChampSim completed all CPUs

=== Simulation ===
CPU 0 runs test_traces/603.bwaves_s-2931B.champsimtrace.xz

Region of Interest Statistics

CPU 0 cumulative IPC: 1.286 instructions: 1999999656 cycles: 1555701345
CPU 0 Branch Prediction Accuracy: 80.62% MPKI: 1.636 Average ROB Occupancy at Mispredict: 300.1
Branch type MPKI
BRANCH_DIRECT_JUMP: 0
BRANCH_INDIRECT: 0
BRANCH_CONDITIONAL: 1.636
BRANCH_DIRECT_CALL: 0
BRANCH_INDIRECT_CALL: 0
BRANCH_RETURN: 0

cpu0->cpu0_STLB TOTAL        ACCESS:        759 HIT:          8 MISS:        751 MSHR_MERGE:          0
cpu0->cpu0_STLB LOAD         ACCESS:        759 HIT:          8 MISS:        751 MSHR_MERGE:          0
cpu0->cpu0_STLB RFO          ACCESS:          0 HIT:          0 MISS:          0 MSHR_MERGE:          0
cpu0->cpu0_STLB PREFETCH     ACCESS:          0 HIT:          0 MISS:          0 MSHR_MERGE:          0
cpu0->cpu0_STLB WRITE        ACCESS:          0 HIT:          0 MISS:          0 MSHR_MERGE:          0
cpu0->cpu0_STLB TRANSLATION  ACCESS:          0 HIT:          0 MISS:          0 MSHR_MERGE:          0
cpu0->cpu0_STLB PREFETCH REQUESTED:          0 ISSUED:          0 USEFUL:          0 USELESS:          0
cpu0->cpu0_STLB AVERAGE MISS LATENCY: 8764 cycles
cpu0->cpu0_L2C TOTAL        ACCESS:   46479385 HIT:   16679554 MISS:   29799831 MSHR_MERGE:          0
cpu0->cpu0_L2C LOAD         ACCESS:   20689572 HIT:    2797611 MISS:   17891961 MSHR_MERGE:          0
cpu0->cpu0_L2C RFO          ACCESS:   12817944 HIT:     910251 MISS:   11907693 MSHR_MERGE:          0
cpu0->cpu0_L2C PREFETCH     ACCESS:          0 HIT:          0 MISS:          0 MSHR_MERGE:          0
cpu0->cpu0_L2C WRITE        ACCESS:   12971869 HIT:   12971692 MISS:        177 MSHR_MERGE:          0
cpu0->cpu0_L2C TRANSLATION  ACCESS:          0 HIT:          0 MISS:          0 MSHR_MERGE:          0
cpu0->cpu0_L2C PREFETCH REQUESTED:          0 ISSUED:          0 USEFUL:          0 USELESS:          0
cpu0->cpu0_L2C AVERAGE MISS LATENCY: 116.9 cycles
cpu0->cpu0_L1I TOTAL        ACCESS:  226252469 HIT:  226252396 MISS:         73 MSHR_MERGE:         24
cpu0->cpu0_L1I LOAD         ACCESS:  226252469 HIT:  226252396 MISS:         73 MSHR_MERGE:         24
cpu0->cpu0_L1I RFO          ACCESS:          0 HIT:          0 MISS:          0 MSHR_MERGE:          0
cpu0->cpu0_L1I PREFETCH     ACCESS:          0 HIT:          0 MISS:          0 MSHR_MERGE:          0
cpu0->cpu0_L1I WRITE        ACCESS:          0 HIT:          0 MISS:          0 MSHR_MERGE:          0
cpu0->cpu0_L1I TRANSLATION  ACCESS:          0 HIT:          0 MISS:          0 MSHR_MERGE:          0
cpu0->cpu0_L1I PREFETCH REQUESTED:          0 ISSUED:          0 USEFUL:          0 USELESS:          0
cpu0->cpu0_L1I AVERAGE MISS LATENCY: 142.9 cycles
cpu0->cpu0_L1D TOTAL        ACCESS:  656936934 HIT:  604623020 MISS:   52313914 MSHR_MERGE:   18792115
cpu0->cpu0_L1D LOAD         ACCESS:  290998550 HIT:  270054518 MISS:   20944032 MSHR_MERGE:     254203
cpu0->cpu0_L1D RFO          ACCESS:          0 HIT:          0 MISS:          0 MSHR_MERGE:          0
cpu0->cpu0_L1D PREFETCH     ACCESS:          0 HIT:          0 MISS:          0 MSHR_MERGE:          0
cpu0->cpu0_L1D WRITE        ACCESS:  365938384 HIT:  334568502 MISS:   31369882 MSHR_MERGE:   18537912
cpu0->cpu0_L1D TRANSLATION  ACCESS:          0 HIT:          0 MISS:          0 MSHR_MERGE:          0
cpu0->cpu0_L1D PREFETCH REQUESTED:          0 ISSUED:          0 USEFUL:          0 USELESS:          0
cpu0->cpu0_L1D AVERAGE MISS LATENCY: 113 cycles
cpu0->cpu0_ITLB TOTAL        ACCESS:  180600811 HIT:  180600804 MISS:          7 MSHR_MERGE:          6
cpu0->cpu0_ITLB LOAD         ACCESS:  180600811 HIT:  180600804 MISS:          7 MSHR_MERGE:          6
cpu0->cpu0_ITLB RFO          ACCESS:          0 HIT:          0 MISS:          0 MSHR_MERGE:          0
cpu0->cpu0_ITLB PREFETCH     ACCESS:          0 HIT:          0 MISS:          0 MSHR_MERGE:          0
cpu0->cpu0_ITLB WRITE        ACCESS:          0 HIT:          0 MISS:          0 MSHR_MERGE:          0
cpu0->cpu0_ITLB TRANSLATION  ACCESS:          0 HIT:          0 MISS:          0 MSHR_MERGE:          0
cpu0->cpu0_ITLB PREFETCH REQUESTED:          0 ISSUED:          0 USEFUL:          0 USELESS:          0
cpu0->cpu0_ITLB AVERAGE MISS LATENCY: 1.722e+04 cycles
cpu0->cpu0_DTLB TOTAL        ACCESS:  551837072 HIT:  551830831 MISS:       6241 MSHR_MERGE:       5483
cpu0->cpu0_DTLB LOAD         ACCESS:  551837072 HIT:  551830831 MISS:       6241 MSHR_MERGE:       5483
cpu0->cpu0_DTLB RFO          ACCESS:          0 HIT:          0 MISS:          0 MSHR_MERGE:          0
cpu0->cpu0_DTLB PREFETCH     ACCESS:          0 HIT:          0 MISS:          0 MSHR_MERGE:          0
cpu0->cpu0_DTLB WRITE        ACCESS:          0 HIT:          0 MISS:          0 MSHR_MERGE:          0
cpu0->cpu0_DTLB TRANSLATION  ACCESS:          0 HIT:          0 MISS:          0 MSHR_MERGE:          0
cpu0->cpu0_DTLB PREFETCH REQUESTED:          0 ISSUED:          0 USEFUL:          0 USELESS:          0
cpu0->cpu0_DTLB AVERAGE MISS LATENCY: 8666 cycles
cpu0->LLC TOTAL        ACCESS:   41705051 HIT:   14445915 MISS:   27259136 MSHR_MERGE:          0
cpu0->LLC LOAD         ACCESS:   17891961 HIT:    2540757 MISS:   15351204 MSHR_MERGE:          0
cpu0->LLC RFO          ACCESS:   11907693 HIT:          0 MISS:   11907693 MSHR_MERGE:          0
cpu0->LLC PREFETCH     ACCESS:          0 HIT:          0 MISS:          0 MSHR_MERGE:          0
cpu0->LLC WRITE        ACCESS:   11905397 HIT:   11905158 MISS:        239 MSHR_MERGE:          0
cpu0->LLC TRANSLATION  ACCESS:          0 HIT:          0 MISS:          0 MSHR_MERGE:          0
cpu0->LLC PREFETCH REQUESTED:          0 ISSUED:          0 USEFUL:          0 USELESS:          0
cpu0->LLC AVERAGE MISS LATENCY: 110.4 cycles

DRAM Statistics

Channel 0 RQ ROW_BUFFER_HIT:     256978
  ROW_BUFFER_MISS:   13373308
  AVG DBUS CONGESTED CYCLE: 10.88
Channel 0 WQ ROW_BUFFER_HIT:    2707351
  ROW_BUFFER_MISS:    3239658
  FULL:          0
Channel 0 REFRESHES ISSUED:     129633

Channel 1 RQ ROW_BUFFER_HIT:     257299
  ROW_BUFFER_MISS:   13372823
  AVG DBUS CONGESTED CYCLE: 10.87
Channel 1 WQ ROW_BUFFER_HIT:    2704882
  ROW_BUFFER_MISS:    3242218
  FULL:          0
Channel 1 REFRESHES ISSUED:     129633
