
*** ChampSim Multicore Out-of-Order Simulator ***
Warmup Instructions: 0
Simulation Instructions: 9223372036854775807
Number of CPUs: 1
Page size: 1048576

Off-chip DRAM Size: 64 GiB Channels: 2 Width: 32-bit Data Rate: 4807 MT/s
[ERROR_PAGE_MANAGER] Error latency: 2459910500 
[ERROR_PAGE_MANAGER] Random seed: 54321 (fixed for preload reproducibility)
[ERROR_PAGE_MANAGER] Cycle-based error modeling enabled
[ERROR_PAGE_MANAGER] Errors per interval: 1
[ERROR_PAGE_MANAGER] Error cycle interval: 4648416149 cycles

=== ERROR PAGE STATISTICS ===
Mode: CYCLE
Error Cycle Interval: 4648416149 CPU cycles
Total Error Accesses: 0
==============================
Warmup finished CPU 0 instructions: 0 cycles: 1 cumulative IPC: 0 (Simulation time: 00 hr 00 min 00 sec)
Warmup complete CPU 0 instructions: 0 cycles: 1 cumulative IPC: 0 (Simulation time: 00 hr 00 min 00 sec)
Simulation CPU 0 panic: IPC 0 < 0.01
Simulation CPU 0 panic: IPC 0 < 0.01
Simulation CPU 0 panic: IPC 0 < 0.01
Simulation CPU 0 panic: IPC 5e-07 < 0.01
Simulation CPU 0 panic: IPC 1.1e-06 < 0.01
Simulation CPU 0 panic: IPC 0 < 0.01
Simulation CPU 0 panic: IPC 8e-06 < 0.01
Simulation CPU 0 panic: IPC 4.54e-05 < 0.01
Simulation CPU 0 panic: IPC 0.0001128 < 0.01
Simulation CPU 0 panic: IPC 0.0001051 < 0.01
Simulation CPU 0 panic: IPC 0.0026152 < 0.01
Simulation CPU 0 panic: IPC 3.34e-05 < 0.01
Simulation CPU 0 panic: IPC 0.0010197 < 0.01
Simulation CPU 0 panic: IPC 7e-06 < 0.01
Simulation CPU 0 panic: IPC 6.5e-06 < 0.01
Simulation CPU 0 panic: IPC 2.05e-05 < 0.01
Simulation CPU 0 panic: IPC 1.14e-05 < 0.01
Simulation CPU 0 panic: IPC 2.72e-05 < 0.01
Simulation CPU 0 panic: IPC 0.00025 < 0.01
Simulation CPU 0 panic: IPC 0.0001349 < 0.01
Simulation CPU 0 panic: IPC 0 < 0.01
Simulation CPU 0 panic: IPC 0.0004092 < 0.01
Simulation CPU 0 panic: IPC 0.000361 < 0.01
Simulation CPU 0 panic: IPC 0.0001798 < 0.01
Simulation CPU 0 panic: IPC 0.0005803 < 0.01
Simulation CPU 0 warning: IPC 0.026295 < 0.05
Simulation CPU 0 panic: IPC 4.9e-06 < 0.01
Simulation CPU 0 panic: IPC 4.4e-06 < 0.01
Simulation CPU 0 panic: IPC 1.52e-05 < 0.01
Simulation CPU 0 panic: IPC 7.6e-06 < 0.01
Simulation CPU 0 panic: IPC 7.1e-06 < 0.01
Simulation CPU 0 panic: IPC 1.75e-05 < 0.01
Simulation CPU 0 panic: IPC 1e-05 < 0.01
Simulation CPU 0 panic: IPC 4.3e-06 < 0.01
Simulation CPU 0 panic: IPC 9.6e-06 < 0.01
Simulation CPU 0 panic: IPC 2.45e-05 < 0.01
Simulation CPU 0 panic: IPC 2.87e-05 < 0.01
Simulation CPU 0 panic: IPC 1.96e-05 < 0.01
Simulation CPU 0 panic: IPC 4.6e-06 < 0.01
Simulation CPU 0 panic: IPC 1.42e-05 < 0.01
Simulation CPU 0 panic: IPC 1.24e-05 < 0.01
Simulation CPU 0 panic: IPC 3e-05 < 0.01
Simulation CPU 0 panic: IPC 5.34e-05 < 0.01
Simulation CPU 0 panic: IPC 3.88e-05 < 0.01
Simulation CPU 0 panic: IPC 2.17e-05 < 0.01
Simulation CPU 0 panic: IPC 3.42e-05 < 0.01
Simulation CPU 0 panic: IPC 6.8e-06 < 0.01
Simulation CPU 0 panic: IPC 4.24e-05 < 0.01
Simulation CPU 0 panic: IPC 5.63e-05 < 0.01
Simulation CPU 0 panic: IPC 4.17e-05 < 0.01
Simulation CPU 0 panic: IPC 1.71e-05 < 0.01
Simulation CPU 0 panic: IPC 1.43e-05 < 0.01
Simulation CPU 0 panic: IPC 5.89e-05 < 0.01
Simulation CPU 0 panic: IPC 6.6e-06 < 0.01
Simulation CPU 0 panic: IPC 1.53e-05 < 0.01
Simulation CPU 0 panic: IPC 1.18e-05 < 0.01
Simulation CPU 0 panic: IPC 0.0001261 < 0.01
Simulation CPU 0 panic: IPC 2.42e-05 < 0.01
Simulation CPU 0 panic: IPC 0.0001872 < 0.01
Simulation CPU 0 panic: IPC 7.6e-06 < 0.01
Simulation CPU 0 panic: IPC 5.06e-05 < 0.01
Simulation CPU 0 panic: IPC 0.0001728 < 0.01
Simulation CPU 0 panic: IPC 0.0001305 < 0.01
Simulation CPU 0 panic: IPC 6.93e-05 < 0.01
Simulation CPU 0 panic: IPC 8.56e-05 < 0.01
Simulation CPU 0 panic: IPC 0 < 0.01
Simulation CPU 0 panic: IPC 0.0001422 < 0.01
Simulation CPU 0 panic: IPC 0.0002701 < 0.01
Simulation CPU 0 panic: IPC 9.4e-06 < 0.01
Simulation CPU 0 panic: IPC 4.54e-05 < 0.01
Simulation CPU 0 panic: IPC 7.23e-05 < 0.01
Simulation CPU 0 panic: IPC 2.85e-05 < 0.01
Simulation CPU 0 panic: IPC 3.84e-05 < 0.01
Simulation CPU 0 panic: IPC 1.47e-05 < 0.01
Simulation CPU 0 panic: IPC 0.0002031 < 0.01
Simulation CPU 0 panic: IPC 0.0001284 < 0.01
Simulation CPU 0 panic: IPC 0.0002105 < 0.01
Simulation CPU 0 panic: IPC 0.0007568 < 0.01
Simulation CPU 0 panic: IPC 9.6e-05 < 0.01
Simulation CPU 0 panic: IPC 0.0002754 < 0.01
Simulation CPU 0 panic: IPC 9.35e-05 < 0.01
Simulation CPU 0 panic: IPC 0.0002402 < 0.01
Simulation CPU 0 panic: IPC 7.99e-05 < 0.01
Simulation CPU 0 panic: IPC 8.3e-05 < 0.01
Simulation CPU 0 panic: IPC 0.0001353 < 0.01
Simulation CPU 0 panic: IPC 0.0005871 < 0.01
Simulation CPU 0 panic: IPC 1.46e-05 < 0.01
Simulation CPU 0 panic: IPC 0.0003208 < 0.01
Simulation CPU 0 panic: IPC 0.0003422 < 0.01
Simulation CPU 0 panic: IPC 0.0001082 < 0.01
Simulation CPU 0 panic: IPC 9.6e-06 < 0.01
Simulation CPU 0 panic: IPC 0.0001903 < 0.01
Simulation CPU 0 panic: IPC 0.0006171 < 0.01
Simulation CPU 0 panic: IPC 0.0001232 < 0.01
Simulation CPU 0 panic: IPC 0.0010295 < 0.01
Simulation CPU 0 panic: IPC 0.0008541 < 0.01
Simulation CPU 0 panic: IPC 0.0006314 < 0.01
Simulation CPU 0 panic: IPC 0.0001833 < 0.01
Simulation CPU 0 panic: IPC 0.0001434 < 0.01
Simulation CPU 0 panic: IPC 4.77e-05 < 0.01
Simulation CPU 0 panic: IPC 0.0008204 < 0.01
Simulation CPU 0 panic: IPC 1.22e-05 < 0.01
Simulation CPU 0 panic: IPC 0.0001603 < 0.01
Simulation CPU 0 panic: IPC 0.0001364 < 0.01
Simulation CPU 0 panic: IPC 0.0009266 < 0.01
Simulation CPU 0 panic: IPC 0.0004779 < 0.01
Simulation CPU 0 panic: IPC 0.0005578 < 0.01
Simulation CPU 0 panic: IPC 7.93e-05 < 0.01
Simulation CPU 0 panic: IPC 0.000243 < 0.01
Simulation CPU 0 panic: IPC 0.0002813 < 0.01
Simulation CPU 0 panic: IPC 5.3e-06 < 0.01
Simulation CPU 0 panic: IPC 0.0004785 < 0.01
Simulation CPU 0 panic: IPC 0.0005448 < 0.01
Simulation CPU 0 panic: IPC 0.0004207 < 0.01
Simulation CPU 0 panic: IPC 0.0004945 < 0.01
Simulation CPU 0 panic: IPC 0.0003328 < 0.01
Simulation CPU 0 panic: IPC 0.0009242 < 0.01
Simulation CPU 0 panic: IPC 0.0010043 < 0.01
Simulation CPU 0 panic: IPC 0.0001551 < 0.01
Simulation CPU 0 panic: IPC 0.0002527 < 0.01
Simulation CPU 0 panic: IPC 0.0006688 < 0.01
Simulation CPU 0 panic: IPC 4.36e-05 < 0.01
Simulation CPU 0 panic: IPC 0.0008939 < 0.01
Simulation CPU 0 panic: IPC 2e-07 < 0.01
Simulation CPU 0 panic: IPC 1.12e-05 < 0.01
Simulation CPU 0 panic: IPC 2.01e-05 < 0.01
Simulation CPU 0 panic: IPC 7.1e-06 < 0.01
Simulation CPU 0 panic: IPC 5.1e-06 < 0.01
Simulation CPU 0 panic: IPC 6.6e-06 < 0.01
Simulation CPU 0 panic: IPC 4.6e-06 < 0.01
Simulation CPU 0 panic: IPC 9.2e-06 < 0.01
Simulation CPU 0 panic: IPC 7.4e-06 < 0.01
Simulation CPU 0 panic: IPC 9.4e-06 < 0.01
Simulation CPU 0 panic: IPC 7.1e-06 < 0.01
Simulation CPU 0 panic: IPC 2.5e-06 < 0.01
Simulation CPU 0 panic: IPC 6.6e-06 < 0.01
Simulation CPU 0 panic: IPC 2.18e-05 < 0.01
Simulation CPU 0 panic: IPC 1.14e-05 < 0.01
Simulation CPU 0 panic: IPC 2.3e-06 < 0.01
Simulation CPU 0 panic: IPC 9.4e-06 < 0.01
Simulation CPU 0 panic: IPC 1.63e-05 < 0.01
Simulation CPU 0 panic: IPC 2.57e-05 < 0.01
Simulation CPU 0 panic: IPC 9.4e-06 < 0.01
Simulation CPU 0 panic: IPC 2.8e-06 < 0.01
Simulation CPU 0 panic: IPC 6.6e-06 < 0.01
Simulation CPU 0 panic: IPC 1.91e-05 < 0.01
Simulation CPU 0 panic: IPC 1.67e-05 < 0.01
Simulation CPU 0 panic: IPC 8.9e-06 < 0.01
Simulation CPU 0 panic: IPC 5.19e-05 < 0.01
Simulation CPU 0 panic: IPC 1.65e-05 < 0.01
Simulation CPU 0 panic: IPC 1.19e-05 < 0.01
Simulation CPU 0 panic: IPC 4.65e-05 < 0.01
Simulation CPU 0 panic: IPC 9.7e-06 < 0.01
Simulation CPU 0 panic: IPC 2.34e-05 < 0.01
Simulation CPU 0 panic: IPC 9.1e-06 < 0.01
Simulation CPU 0 panic: IPC 4.75e-05 < 0.01
Simulation CPU 0 panic: IPC 7.1e-06 < 0.01
Simulation CPU 0 panic: IPC 6.09e-05 < 0.01
Simulation CPU 0 panic: IPC 1.4e-05 < 0.01
Simulation CPU 0 panic: IPC 2.85e-05 < 0.01
Simulation CPU 0 panic: IPC 2.59e-05 < 0.01
Simulation CPU 0 panic: IPC 1.81e-05 < 0.01
Simulation CPU 0 panic: IPC 2.8e-06 < 0.01
Simulation CPU 0 panic: IPC 1.65e-05 < 0.01
Simulation CPU 0 panic: IPC 1.65e-05 < 0.01
Simulation CPU 0 panic: IPC 4.94e-05 < 0.01
Simulation CPU 0 panic: IPC 4.72e-05 < 0.01
Simulation CPU 0 panic: IPC 5.42e-05 < 0.01
Simulation CPU 0 panic: IPC 7e-05 < 0.01
Simulation CPU 0 panic: IPC 0.0001075 < 0.01
Simulation CPU 0 panic: IPC 4.66e-05 < 0.01
Simulation CPU 0 panic: IPC 1.2e-05 < 0.01
Simulation CPU 0 panic: IPC 1.6e-05 < 0.01
Simulation CPU 0 panic: IPC 9.11e-05 < 0.01
Simulation CPU 0 panic: IPC 5.83e-05 < 0.01
Simulation CPU 0 panic: IPC 7.4e-06 < 0.01
Simulation CPU 0 panic: IPC 9.64e-05 < 0.01
Simulation CPU 0 panic: IPC 3.93e-05 < 0.01
Simulation CPU 0 panic: IPC 4.01e-05 < 0.01
Simulation CPU 0 panic: IPC 5.43e-05 < 0.01
Simulation CPU 0 panic: IPC 3.28e-05 < 0.01
Simulation CPU 0 panic: IPC 8.15e-05 < 0.01
Simulation CPU 0 panic: IPC 0.0001264 < 0.01
Simulation CPU 0 panic: IPC 5.18e-05 < 0.01
Simulation CPU 0 panic: IPC 1.15e-05 < 0.01
Simulation CPU 0 panic: IPC 0.0002277 < 0.01
Simulation CPU 0 panic: IPC 0.0001174 < 0.01
Simulation CPU 0 panic: IPC 0.0001295 < 0.01
Simulation CPU 0 panic: IPC 1.22e-05 < 0.01
Simulation CPU 0 panic: IPC 0.0001157 < 0.01
Simulation CPU 0 panic: IPC 0.0001207 < 0.01
Simulation CPU 0 panic: IPC 8.65e-05 < 0.01
Simulation CPU 0 panic: IPC 0.0002114 < 0.01
Simulation CPU 0 panic: IPC 0.0002879 < 0.01
Simulation CPU 0 panic: IPC 3.03e-05 < 0.01
Simulation CPU 0 panic: IPC 7.25e-05 < 0.01
Simulation CPU 0 panic: IPC 6.12e-05 < 0.01
Simulation CPU 0 panic: IPC 6.54e-05 < 0.01
Simulation CPU 0 panic: IPC 3.01e-05 < 0.01
Simulation CPU 0 panic: IPC 8.75e-05 < 0.01
Simulation CPU 0 panic: IPC 0.0002192 < 0.01
Simulation CPU 0 panic: IPC 5.18e-05 < 0.01
Simulation CPU 0 panic: IPC 0.0001361 < 0.01
Simulation CPU 0 panic: IPC 9.2e-06 < 0.01
Simulation CPU 0 panic: IPC 3.28e-05 < 0.01
Simulation CPU 0 panic: IPC 3.54e-05 < 0.01
Simulation CPU 0 panic: IPC 0.0001211 < 0.01
Simulation CPU 0 panic: IPC 7.1e-06 < 0.01
Simulation CPU 0 panic: IPC 2.11e-05 < 0.01
Simulation CPU 0 panic: IPC 9.65e-05 < 0.01
Simulation CPU 0 panic: IPC 0.0001952 < 0.01
Simulation CPU 0 panic: IPC 5.38e-05 < 0.01
Simulation CPU 0 panic: IPC 0.0003188 < 0.01
Simulation CPU 0 panic: IPC 8.4e-05 < 0.01
Simulation CPU 0 panic: IPC 5.62e-05 < 0.01
Simulation CPU 0 panic: IPC 0.0001369 < 0.01
Simulation CPU 0 panic: IPC 1.35e-05 < 0.01
Simulation CPU 0 panic: IPC 9.4e-06 < 0.01
Simulation CPU 0 panic: IPC 3.56e-05 < 0.01
Simulation CPU 0 panic: IPC 0.0001177 < 0.01
Simulation CPU 0 panic: IPC 5.19e-05 < 0.01
Simulation CPU 0 panic: IPC 0.0001791 < 0.01
Simulation CPU 0 panic: IPC 0.0002348 < 0.01
Simulation CPU 0 panic: IPC 1.17e-05 < 0.01
Simulation CPU 0 panic: IPC 0.0001456 < 0.01
Simulation CPU 0 panic: IPC 7e-05 < 0.01
Simulation CPU 0 panic: IPC 7.07e-05 < 0.01
Simulation CPU 0 panic: IPC 0.0001799 < 0.01
Simulation CPU 0 panic: IPC 0.0002571 < 0.01
Simulation CPU 0 panic: IPC 8.01e-05 < 0.01
Simulation CPU 0 panic: IPC 2.09e-05 < 0.01
Simulation CPU 0 panic: IPC 0.0001618 < 0.01
Simulation CPU 0 panic: IPC 2.83e-05 < 0.01
Simulation CPU 0 panic: IPC 0.0003312 < 0.01
Simulation CPU 0 panic: IPC 0.0001744 < 0.01
Simulation CPU 0 panic: IPC 0.0002223 < 0.01
Simulation CPU 0 panic: IPC 5.1e-06 < 0.01
Simulation CPU 0 panic: IPC 5e-05 < 0.01
Simulation CPU 0 panic: IPC 3.24e-05 < 0.01
Simulation CPU 0 panic: IPC 7.56e-05 < 0.01
Simulation CPU 0 panic: IPC 0.0001378 < 0.01
Simulation CPU 0 panic: IPC 0.0001715 < 0.01
Simulation CPU 0 panic: IPC 4.89e-05 < 0.01
Simulation CPU 0 panic: IPC 2.37e-05 < 0.01
Simulation CPU 0 panic: IPC 4.61e-05 < 0.01
Simulation CPU 0 panic: IPC 4.7e-05 < 0.01
Simulation CPU 0 panic: IPC 0.0002478 < 0.01
Simulation CPU 0 panic: IPC 2.82e-05 < 0.01
Simulation CPU 0 panic: IPC 0.0003203 < 0.01
Simulation CPU 0 panic: IPC 0.0002769 < 0.01
Simulation CPU 0 panic: IPC 0.0005878 < 0.01
Simulation CPU 0 panic: IPC 0.0002437 < 0.01
Simulation CPU 0 panic: IPC 2.82e-05 < 0.01
Simulation CPU 0 panic: IPC 1.66e-05 < 0.01
Simulation CPU 0 panic: IPC 0.0002559 < 0.01
Simulation CPU 0 panic: IPC 0.0002372 < 0.01
Simulation CPU 0 panic: IPC 3.95e-05 < 0.01
Simulation CPU 0 panic: IPC 0.0001235 < 0.01
Simulation CPU 0 panic: IPC 0.0002071 < 0.01
Simulation CPU 0 panic: IPC 0.0002414 < 0.01
Simulation CPU 0 panic: IPC 4.16e-05 < 0.01
Simulation CPU 0 panic: IPC 3.72e-05 < 0.01
Simulation CPU 0 panic: IPC 0.0001227 < 0.01
Simulation CPU 0 panic: IPC 0.0002476 < 0.01
Simulation CPU 0 panic: IPC 0.0001958 < 0.01
Simulation CPU 0 panic: IPC 0.0003686 < 0.01
Simulation CPU 0 panic: IPC 0.0001047 < 0.01
Simulation CPU 0 panic: IPC 0.0001047 < 0.01
Simulation CPU 0 panic: IPC 7.88e-05 < 0.01
Simulation CPU 0 panic: IPC 0.000428 < 0.01
Simulation CPU 0 panic: IPC 0.0003212 < 0.01
Simulation CPU 0 panic: IPC 4.22e-05 < 0.01
Simulation CPU 0 panic: IPC 3.03e-05 < 0.01
Simulation CPU 0 panic: IPC 0.0006245 < 0.01
Simulation CPU 0 panic: IPC 3.49e-05 < 0.01
Simulation CPU 0 panic: IPC 7.48e-05 < 0.01
Simulation CPU 0 panic: IPC 0.0002813 < 0.01
Simulation CPU 0 panic: IPC 0.0002666 < 0.01
Simulation CPU 0 panic: IPC 0.0003522 < 0.01
Simulation CPU 0 panic: IPC 0.0005807 < 0.01
Simulation CPU 0 panic: IPC 0.0004421 < 0.01
Simulation CPU 0 panic: IPC 0.000318 < 0.01
Simulation CPU 0 panic: IPC 0.0001644 < 0.01
Simulation CPU 0 panic: IPC 2.53e-05 < 0.01
Simulation CPU 0 panic: IPC 0.0003332 < 0.01
Simulation CPU 0 panic: IPC 7.25e-05 < 0.01
Simulation CPU 0 panic: IPC 2.8e-06 < 0.01
Simulation CPU 0 panic: IPC 7.21e-05 < 0.01
Simulation CPU 0 panic: IPC 0.0003807 < 0.01
Simulation CPU 0 panic: IPC 0.0004946 < 0.01
Simulation CPU 0 panic: IPC 0.0003261 < 0.01
Simulation CPU 0 panic: IPC 0.0004985 < 0.01
Simulation CPU 0 panic: IPC 0.0001152 < 0.01
Simulation CPU 0 panic: IPC 0.0009513 < 0.01
Simulation CPU 0 panic: IPC 0.0009612 < 0.01
Simulation CPU 0 panic: IPC 8.32e-05 < 0.01
Simulation CPU 0 panic: IPC 0.0004864 < 0.01
Simulation CPU 0 panic: IPC 8.65e-05 < 0.01
Simulation CPU 0 panic: IPC 0.0007665 < 0.01
Simulation CPU 0 panic: IPC 0.0004636 < 0.01
Simulation CPU 0 panic: IPC 0.0003405 < 0.01
Simulation CPU 0 panic: IPC 0.0001647 < 0.01
Simulation CPU 0 panic: IPC 3.01e-05 < 0.01
Simulation CPU 0 panic: IPC 0.000104 < 0.01
Simulation CPU 0 panic: IPC 6.9e-06 < 0.01
Simulation CPU 0 panic: IPC 4.2e-05 < 0.01
Simulation CPU 0 panic: IPC 0.0002971 < 0.01
Simulation CPU 0 panic: IPC 0.0008249 < 0.01
Simulation CPU 0 panic: IPC 4.2e-05 < 0.01
Simulation CPU 0 panic: IPC 7.98e-05 < 0.01
Simulation CPU 0 panic: IPC 0.0001563 < 0.01
Simulation CPU 0 panic: IPC 0.0002212 < 0.01
Simulation CPU 0 panic: IPC 0.0002193 < 0.01
Simulation CPU 0 panic: IPC 0.0001872 < 0.01
Simulation CPU 0 panic: IPC 0.0014846 < 0.01
Simulation CPU 0 panic: IPC 0.0002043 < 0.01
Simulation CPU 0 panic: IPC 0.0003212 < 0.01
Simulation CPU 0 panic: IPC 0.0006029 < 0.01
Simulation CPU 0 panic: IPC 0.0002415 < 0.01
Simulation CPU 0 panic: IPC 0.0018835 < 0.01
Simulation CPU 0 panic: IPC 0.000788 < 0.01
Simulation CPU 0 panic: IPC 6.58e-05 < 0.01
Simulation CPU 0 panic: IPC 0.000169 < 0.01
Simulation CPU 0 panic: IPC 0.0048339 < 0.01
Simulation CPU 0 panic: IPC 0.0019413 < 0.01
Simulation CPU 0 panic: IPC 7.95e-05 < 0.01
Simulation CPU 0 panic: IPC 0.000563 < 0.01
Simulation CPU 0 panic: IPC 6.52e-05 < 0.01
Simulation CPU 0 panic: IPC 0.0007563 < 0.01
Simulation CPU 0 panic: IPC 0.0006593 < 0.01
Simulation CPU 0 panic: IPC 0.0006741 < 0.01
Simulation CPU 0 panic: IPC 0.0005227 < 0.01
Simulation CPU 0 panic: IPC 0.0034973 < 0.01
Heartbeat CPU 0 instructions: 10000001 cycles: 3353829921 heartbeat IPC: 0.002982 cumulative IPC: 0.002982 (Simulation time: 04 hr 37 min 23 sec)
Simulation CPU 0 panic: IPC 7e-06 < 0.01
Simulation CPU 0 panic: IPC 4.4e-06 < 0.01
Simulation CPU 0 panic: IPC 1.3e-05 < 0.01
Simulation CPU 0 panic: IPC 9.6e-06 < 0.01
Simulation CPU 0 panic: IPC 2.3e-06 < 0.01
Simulation CPU 0 panic: IPC 7.6e-06 < 0.01
Simulation CPU 0 panic: IPC 6.8e-06 < 0.01
Simulation CPU 0 panic: IPC 2.3e-06 < 0.01
Simulation CPU 0 panic: IPC 9.2e-06 < 0.01
Simulation CPU 0 panic: IPC 2.8e-06 < 0.01
Simulation CPU 0 panic: IPC 4.3e-06 < 0.01
Simulation CPU 0 panic: IPC 5.1e-06 < 0.01
Simulation CPU 0 panic: IPC 7.1e-06 < 0.01
Simulation CPU 0 panic: IPC 9.4e-06 < 0.01
Simulation CPU 0 panic: IPC 1.42e-05 < 0.01
Simulation CPU 0 panic: IPC 6.6e-06 < 0.01
Simulation CPU 0 panic: IPC 2.3e-06 < 0.01
Simulation CPU 0 panic: IPC 1.22e-05 < 0.01
Simulation CPU 0 panic: IPC 3.32e-05 < 0.01
Simulation CPU 0 panic: IPC 2.12e-05 < 0.01
Simulation CPU 0 panic: IPC 9.6e-06 < 0.01
Simulation CPU 0 panic: IPC 1.24e-05 < 0.01
Simulation CPU 0 panic: IPC 1.14e-05 < 0.01
Simulation CPU 0 panic: IPC 6.9e-06 < 0.01
Simulation CPU 0 panic: IPC 2.8e-06 < 0.01
Simulation CPU 0 panic: IPC 7.1e-06 < 0.01
Simulation CPU 0 panic: IPC 2.5e-06 < 0.01
Simulation CPU 0 panic: IPC 9.6e-06 < 0.01
Simulation CPU 0 panic: IPC 1.19e-05 < 0.01
Simulation CPU 0 panic: IPC 3.52e-05 < 0.01
Simulation CPU 0 panic: IPC 5.3e-06 < 0.01
Simulation CPU 0 panic: IPC 9.6e-06 < 0.01
Simulation CPU 0 panic: IPC 1.25e-05 < 0.01
Simulation CPU 0 panic: IPC 9.6e-06 < 0.01
Simulation CPU 0 panic: IPC 2.37e-05 < 0.01
Simulation CPU 0 panic: IPC 5.1e-06 < 0.01
Simulation CPU 0 panic: IPC 1.85e-05 < 0.01
Simulation CPU 0 panic: IPC 2.3e-06 < 0.01
Simulation CPU 0 panic: IPC 2.3e-06 < 0.01
Simulation CPU 0 panic: IPC 5.3e-06 < 0.01
Simulation CPU 0 panic: IPC 2.58e-05 < 0.01
Simulation CPU 0 panic: IPC 4.51e-05 < 0.01
Simulation CPU 0 panic: IPC 1.93e-05 < 0.01
Simulation CPU 0 panic: IPC 1.88e-05 < 0.01
Simulation CPU 0 panic: IPC 1.42e-05 < 0.01
Simulation CPU 0 panic: IPC 2.34e-05 < 0.01
Simulation CPU 0 panic: IPC 9.6e-06 < 0.01
Simulation CPU 0 panic: IPC 9.6e-06 < 0.01
Simulation CPU 0 panic: IPC 9.4e-06 < 0.01
Simulation CPU 0 panic: IPC 1.67e-05 < 0.01
Simulation CPU 0 panic: IPC 1.64e-05 < 0.01
Simulation CPU 0 panic: IPC 3.13e-05 < 0.01
Simulation CPU 0 panic: IPC 2.36e-05 < 0.01
Simulation CPU 0 panic: IPC 3.12e-05 < 0.01
Simulation CPU 0 panic: IPC 7.1e-06 < 0.01
Simulation CPU 0 panic: IPC 2.38e-05 < 0.01
Simulation CPU 0 panic: IPC 5.25e-05 < 0.01
Simulation CPU 0 panic: IPC 2.3e-06 < 0.01
Simulation CPU 0 panic: IPC 1.7e-05 < 0.01
Simulation CPU 0 panic: IPC 3.25e-05 < 0.01
Simulation CPU 0 panic: IPC 2.91e-05 < 0.01
Simulation CPU 0 panic: IPC 4.96e-05 < 0.01
Simulation CPU 0 panic: IPC 8.05e-05 < 0.01
Simulation CPU 0 panic: IPC 3.07e-05 < 0.01
Simulation CPU 0 panic: IPC 7.36e-05 < 0.01
Simulation CPU 0 panic: IPC 0.0002783 < 0.01
Simulation CPU 0 panic: IPC 2.43e-05 < 0.01
Simulation CPU 0 panic: IPC 3.09e-05 < 0.01
Simulation CPU 0 panic: IPC 1.92e-05 < 0.01
Simulation CPU 0 panic: IPC 3.12e-05 < 0.01
Simulation CPU 0 panic: IPC 0.0001283 < 0.01
Simulation CPU 0 panic: IPC 2.5e-06 < 0.01
Simulation CPU 0 panic: IPC 1.83e-05 < 0.01
Simulation CPU 0 panic: IPC 1.63e-05 < 0.01
Simulation CPU 0 panic: IPC 5.45e-05 < 0.01
Simulation CPU 0 panic: IPC 1.74e-05 < 0.01
Simulation CPU 0 panic: IPC 3.55e-05 < 0.01
Simulation CPU 0 panic: IPC 0.0001108 < 0.01
Simulation CPU 0 panic: IPC 3.51e-05 < 0.01
Simulation CPU 0 panic: IPC 9.4e-06 < 0.01
Simulation CPU 0 panic: IPC 4.29e-05 < 0.01
Simulation CPU 0 panic: IPC 0.0002013 < 0.01
Simulation CPU 0 panic: IPC 7.34e-05 < 0.01
Simulation CPU 0 panic: IPC 1.88e-05 < 0.01
Simulation CPU 0 panic: IPC 5.3e-06 < 0.01
Simulation CPU 0 panic: IPC 4.03e-05 < 0.01
Simulation CPU 0 panic: IPC 1.6e-05 < 0.01
Simulation CPU 0 panic: IPC 2.85e-05 < 0.01
Simulation CPU 0 panic: IPC 4.93e-05 < 0.01
Simulation CPU 0 panic: IPC 4.85e-05 < 0.01
Simulation CPU 0 panic: IPC 0.0001422 < 0.01
Simulation CPU 0 panic: IPC 5.04e-05 < 0.01
Simulation CPU 0 panic: IPC 4e-05 < 0.01
Simulation CPU 0 panic: IPC 7.85e-05 < 0.01
Simulation CPU 0 panic: IPC 3.83e-05 < 0.01
Simulation CPU 0 panic: IPC 2.5e-06 < 0.01
Simulation CPU 0 panic: IPC 0.0001909 < 0.01
Simulation CPU 0 panic: IPC 9.9e-06 < 0.01
Simulation CPU 0 panic: IPC 0.0001807 < 0.01
Simulation CPU 0 panic: IPC 0.0001314 < 0.01
Simulation CPU 0 panic: IPC 0.0001063 < 0.01
Simulation CPU 0 panic: IPC 0.0001095 < 0.01
Simulation CPU 0 panic: IPC 0.0002187 < 0.01
Simulation CPU 0 panic: IPC 0.0001561 < 0.01
Simulation CPU 0 panic: IPC 0.0001679 < 0.01
Simulation CPU 0 panic: IPC 5.89e-05 < 0.01
Simulation CPU 0 panic: IPC 0.0001449 < 0.01
Simulation CPU 0 panic: IPC 3.41e-05 < 0.01
Simulation CPU 0 panic: IPC 0.0004179 < 0.01
Simulation CPU 0 panic: IPC 0.0002767 < 0.01
Simulation CPU 0 panic: IPC 0.0002127 < 0.01
Simulation CPU 0 panic: IPC 0.0009855 < 0.01
Simulation CPU 0 panic: IPC 0.0002115 < 0.01
Simulation CPU 0 panic: IPC 5.75e-05 < 0.01
Simulation CPU 0 panic: IPC 0.0001526 < 0.01
Simulation CPU 0 panic: IPC 0.0006533 < 0.01
Simulation CPU 0 panic: IPC 0.0002484 < 0.01
Simulation CPU 0 panic: IPC 0.0001168 < 0.01
Simulation CPU 0 panic: IPC 1.62e-05 < 0.01
Simulation CPU 0 panic: IPC 2.41e-05 < 0.01
Simulation CPU 0 panic: IPC 3.78e-05 < 0.01
Simulation CPU 0 panic: IPC 5.17e-05 < 0.01
Simulation CPU 0 panic: IPC 4.95e-05 < 0.01
Simulation CPU 0 panic: IPC 0.0002053 < 0.01
Simulation CPU 0 panic: IPC 0.0003816 < 0.01
Simulation CPU 0 panic: IPC 0.0003535 < 0.01
Simulation CPU 0 panic: IPC 0.000252 < 0.01
Simulation CPU 0 panic: IPC 0.0006812 < 0.01
[ERROR_CYCLE] Error added at CPU cycle 4648416150, interval 1, pending count: 1
[DRAM_CYCLE_ERROR] Cycle-based error applied! address=0x5af504d88 additional_latency=2459910500 cycles
Simulation CPU 0 panic: IPC 4e-07 < 0.01
Simulation CPU 0 panic: IPC 3.92e-05 < 0.01
Simulation CPU 0 panic: IPC 0.0001518 < 0.01
Simulation CPU 0 panic: IPC 0.0003459 < 0.01
Simulation CPU 0 panic: IPC 1.39e-05 < 0.01
Simulation CPU 0 panic: IPC 0.0004057 < 0.01
Simulation CPU 0 panic: IPC 3.12e-05 < 0.01
Simulation CPU 0 panic: IPC 1.88e-05 < 0.01
Simulation CPU 0 panic: IPC 1.14e-05 < 0.01
Simulation CPU 0 panic: IPC 0.000274 < 0.01
Simulation CPU 0 panic: IPC 9.67e-05 < 0.01
Simulation CPU 0 panic: IPC 0.0003371 < 0.01
Simulation CPU 0 panic: IPC 0.0002117 < 0.01
Simulation CPU 0 panic: IPC 0.0008982 < 0.01
Simulation CPU 0 panic: IPC 0.0002563 < 0.01
Simulation CPU 0 panic: IPC 0.000161 < 0.01
Simulation CPU 0 panic: IPC 0.0001234 < 0.01
Simulation CPU 0 panic: IPC 0.0001119 < 0.01
Simulation CPU 0 panic: IPC 7.83e-05 < 0.01
Simulation CPU 0 panic: IPC 0.0006044 < 0.01
Simulation CPU 0 panic: IPC 1.49e-05 < 0.01
Simulation CPU 0 panic: IPC 0.0003012 < 0.01
Simulation CPU 0 panic: IPC 0.0002754 < 0.01
Simulation CPU 0 panic: IPC 5.3e-06 < 0.01
Simulation CPU 0 panic: IPC 0.0005412 < 0.01
Simulation CPU 0 panic: IPC 0.0002292 < 0.01
Simulation CPU 0 panic: IPC 0.0006179 < 0.01
Simulation CPU 0 panic: IPC 1.62e-05 < 0.01
Simulation CPU 0 panic: IPC 0.000624 < 0.01
Simulation CPU 0 panic: IPC 0.0004406 < 0.01
Simulation CPU 0 panic: IPC 0.0002682 < 0.01
Simulation CPU 0 panic: IPC 0.0004035 < 0.01
Simulation CPU 0 panic: IPC 0.0007626 < 0.01
Simulation CPU 0 panic: IPC 0.0001954 < 0.01
Simulation CPU 0 panic: IPC 4.92e-05 < 0.01
Simulation CPU 0 panic: IPC 0.0002524 < 0.01
Simulation CPU 0 panic: IPC 0.0003848 < 0.01
Simulation CPU 0 panic: IPC 0.0001417 < 0.01
Simulation CPU 0 panic: IPC 0.0002578 < 0.01
Simulation CPU 0 panic: IPC 0.0002692 < 0.01
Simulation CPU 0 panic: IPC 5.2e-05 < 0.01
Simulation CPU 0 panic: IPC 2.56e-05 < 0.01
Simulation CPU 0 panic: IPC 0.0006772 < 0.01
Simulation CPU 0 panic: IPC 6.41e-05 < 0.01
Simulation CPU 0 panic: IPC 7.36e-05 < 0.01
Simulation CPU 0 panic: IPC 0.0001944 < 0.01
Simulation CPU 0 panic: IPC 7.32e-05 < 0.01
Simulation CPU 0 panic: IPC 0.0009355 < 0.01
Simulation CPU 0 panic: IPC 0.0015133 < 0.01
Simulation CPU 0 panic: IPC 0.0006471 < 0.01
Simulation CPU 0 panic: IPC 0.0002276 < 0.01
Simulation CPU 0 panic: IPC 0.0006109 < 0.01
Simulation CPU 0 panic: IPC 0.0003269 < 0.01
Simulation CPU 0 panic: IPC 0.0001231 < 0.01
Simulation CPU 0 panic: IPC 5.91e-05 < 0.01
Simulation CPU 0 panic: IPC 0.0001871 < 0.01
Simulation CPU 0 panic: IPC 0.0003582 < 0.01
Simulation CPU 0 panic: IPC 2.36e-05 < 0.01
Simulation CPU 0 panic: IPC 0.0008499 < 0.01
Simulation CPU 0 panic: IPC 4.06e-05 < 0.01
Simulation CPU 0 panic: IPC 5.74e-05 < 0.01
Simulation CPU 0 panic: IPC 0.0007567 < 0.01
Simulation CPU 0 panic: IPC 5.69e-05 < 0.01
Simulation CPU 0 panic: IPC 9.01e-05 < 0.01
Simulation CPU 0 panic: IPC 0.0001665 < 0.01
Simulation CPU 0 panic: IPC 0.0002031 < 0.01
Simulation CPU 0 panic: IPC 0.0001226 < 0.01
Simulation CPU 0 panic: IPC 0.0004496 < 0.01
Simulation CPU 0 panic: IPC 2.38e-05 < 0.01
Simulation CPU 0 panic: IPC 0.0011129 < 0.01
Simulation CPU 0 panic: IPC 0.000271 < 0.01
Simulation CPU 0 panic: IPC 0.0003288 < 0.01
Simulation CPU 0 panic: IPC 8.96e-05 < 0.01
Simulation CPU 0 panic: IPC 0.0011216 < 0.01
Simulation CPU 0 panic: IPC 1.21e-05 < 0.01
Simulation CPU 0 panic: IPC 0.0017167 < 0.01
Simulation CPU 0 panic: IPC 0.0001702 < 0.01
Simulation CPU 0 panic: IPC 0.0010633 < 0.01
Simulation CPU 0 panic: IPC 9.7e-05 < 0.01
Simulation CPU 0 panic: IPC 0.0004995 < 0.01
Simulation CPU 0 panic: IPC 4.22e-05 < 0.01
Simulation CPU 0 panic: IPC 0.0020236 < 0.01
Simulation CPU 0 panic: IPC 0.0004137 < 0.01
Simulation CPU 0 panic: IPC 0.0002729 < 0.01
Simulation CPU 0 panic: IPC 0.0035213 < 0.01
Simulation CPU 0 panic: IPC 0.0005776 < 0.01
Simulation CPU 0 panic: IPC 0.0015934 < 0.01
Simulation CPU 0 panic: IPC 0.0002011 < 0.01
Simulation CPU 0 panic: IPC 8.12e-05 < 0.01
Simulation CPU 0 panic: IPC 0.0003724 < 0.01
Simulation CPU 0 panic: IPC 0.0004801 < 0.01
Simulation CPU 0 panic: IPC 0.0005158 < 0.01
Simulation CPU 0 panic: IPC 6.88e-05 < 0.01
Simulation CPU 0 panic: IPC 0.0004272 < 0.01
Simulation CPU 0 panic: IPC 4.98e-05 < 0.01
Simulation CPU 0 panic: IPC 0.0019386 < 0.01
Simulation CPU 0 panic: IPC 0.0006044 < 0.01
Simulation CPU 0 panic: IPC 0.0011745 < 0.01
Simulation CPU 0 panic: IPC 0.0009843 < 0.01
Simulation CPU 0 panic: IPC 0.0023565 < 0.01
Simulation CPU 0 panic: IPC 2.31e-05 < 0.01
Simulation CPU 0 panic: IPC 0.0017323 < 0.01
Simulation CPU 0 panic: IPC 0.0008731 < 0.01
Simulation CPU 0 panic: IPC 0.0003639 < 0.01
Simulation CPU 0 panic: IPC 0.0002037 < 0.01
Simulation CPU 0 panic: IPC 0.0004434 < 0.01
Simulation CPU 0 panic: IPC 0.0003872 < 0.01
Simulation CPU 0 panic: IPC 0.0010376 < 0.01
Simulation CPU 0 panic: IPC 0.0003176 < 0.01
Simulation CPU 0 panic: IPC 0.0002075 < 0.01
Simulation CPU 0 panic: IPC 0.001792 < 0.01
Simulation CPU 0 panic: IPC 0.0024222 < 0.01
Simulation CPU 0 panic: IPC 0.0010144 < 0.01
Simulation CPU 0 panic: IPC 0.0014461 < 0.01
Simulation CPU 0 panic: IPC 0.0032179 < 0.01
Simulation CPU 0 panic: IPC 0.0002517 < 0.01
Simulation CPU 0 panic: IPC 0.0011276 < 0.01
Simulation CPU 0 panic: IPC 0.0011061 < 0.01
Simulation CPU 0 panic: IPC 0.0001502 < 0.01
Simulation CPU 0 panic: IPC 0.0002236 < 0.01
Simulation CPU 0 panic: IPC 0.0005721 < 0.01
Simulation CPU 0 panic: IPC 0.0049299 < 0.01
Heartbeat CPU 0 instructions: 20000002 cycles: 5869570489 heartbeat IPC: 0.003975 cumulative IPC: 0.003407 (Simulation time: 08 hr 09 min 52 sec)
Simulation CPU 0 panic: IPC 2e-07 < 0.01
Simulation CPU 0 panic: IPC 1.3e-06 < 0.01
Simulation CPU 0 panic: IPC 4.5e-06 < 0.01
Simulation CPU 0 panic: IPC 1.2e-06 < 0.01
Simulation CPU 0 panic: IPC 2.5e-06 < 0.01
Simulation CPU 0 panic: IPC 1.2e-05 < 0.01
Simulation CPU 0 panic: IPC 1.1e-05 < 0.01
Simulation CPU 0 panic: IPC 4.6e-06 < 0.01
Simulation CPU 0 panic: IPC 5.1e-06 < 0.01
Simulation CPU 0 panic: IPC 6.8e-06 < 0.01
Simulation CPU 0 panic: IPC 8.7e-06 < 0.01
Simulation CPU 0 panic: IPC 1.12e-05 < 0.01
Simulation CPU 0 panic: IPC 1.8e-06 < 0.01
Simulation CPU 0 panic: IPC 1.66e-05 < 0.01
Simulation CPU 0 panic: IPC 8.7e-06 < 0.01
Simulation CPU 0 panic: IPC 4.3e-06 < 0.01
Simulation CPU 0 panic: IPC 1.51e-05 < 0.01
Simulation CPU 0 panic: IPC 1.39e-05 < 0.01
Simulation CPU 0 panic: IPC 8.9e-06 < 0.01
Simulation CPU 0 panic: IPC 1.04e-05 < 0.01
Simulation CPU 0 panic: IPC 2.33e-05 < 0.01
Simulation CPU 0 panic: IPC 7.1e-06 < 0.01
Simulation CPU 0 panic: IPC 3.09e-05 < 0.01
Simulation CPU 0 panic: IPC 3.95e-05 < 0.01
Simulation CPU 0 panic: IPC 1.71e-05 < 0.01
Simulation CPU 0 panic: IPC 6.8e-06 < 0.01
Simulation CPU 0 panic: IPC 3.7e-05 < 0.01
Simulation CPU 0 panic: IPC 2.14e-05 < 0.01
Simulation CPU 0 panic: IPC 4.3e-06 < 0.01
Simulation CPU 0 panic: IPC 2.76e-05 < 0.01
Simulation CPU 0 panic: IPC 7.9e-05 < 0.01
Simulation CPU 0 panic: IPC 4.05e-05 < 0.01
Simulation CPU 0 panic: IPC 7.17e-05 < 0.01
Simulation CPU 0 panic: IPC 3.55e-05 < 0.01
Simulation CPU 0 panic: IPC 5.04e-05 < 0.01
Simulation CPU 0 panic: IPC 3.5e-05 < 0.01
Simulation CPU 0 panic: IPC 1.1e-05 < 0.01
Simulation CPU 0 panic: IPC 2.94e-05 < 0.01
Simulation CPU 0 panic: IPC 3.97e-05 < 0.01
Simulation CPU 0 panic: IPC 0.000125 < 0.01
Simulation CPU 0 panic: IPC 1.17e-05 < 0.01
Simulation CPU 0 panic: IPC 3.17e-05 < 0.01
Simulation CPU 0 panic: IPC 0.0001939 < 0.01
Simulation CPU 0 panic: IPC 4.3e-06 < 0.01
Simulation CPU 0 panic: IPC 0.0001068 < 0.01
Simulation CPU 0 panic: IPC 4.11e-05 < 0.01
Simulation CPU 0 panic: IPC 0.0003488 < 0.01
Simulation CPU 0 panic: IPC 4.22e-05 < 0.01
Simulation CPU 0 panic: IPC 4.13e-05 < 0.01
Simulation CPU 0 panic: IPC 7.77e-05 < 0.01
Simulation CPU 0 panic: IPC 8.14e-05 < 0.01
Simulation CPU 0 panic: IPC 9.46e-05 < 0.01
Simulation CPU 0 panic: IPC 0.0001569 < 0.01
Simulation CPU 0 panic: IPC 1.96e-05 < 0.01
Simulation CPU 0 panic: IPC 0.0001126 < 0.01
Simulation CPU 0 panic: IPC 0.0001277 < 0.01
Simulation CPU 0 panic: IPC 8.51e-05 < 0.01
Simulation CPU 0 panic: IPC 0.0001768 < 0.01
Simulation CPU 0 panic: IPC 3.95e-05 < 0.01
Simulation CPU 0 panic: IPC 0.0001695 < 0.01
Simulation CPU 0 panic: IPC 0.0001111 < 0.01
Simulation CPU 0 panic: IPC 4.78e-05 < 0.01
Simulation CPU 0 panic: IPC 0.0001252 < 0.01
Simulation CPU 0 panic: IPC 0.0008467 < 0.01
Simulation CPU 0 panic: IPC 2.17e-05 < 0.01
Simulation CPU 0 panic: IPC 1.62e-05 < 0.01
Simulation CPU 0 panic: IPC 7.3e-05 < 0.01
Simulation CPU 0 panic: IPC 0.0002533 < 0.01
Simulation CPU 0 panic: IPC 0.0002499 < 0.01
Simulation CPU 0 panic: IPC 2.04e-05 < 0.01
Simulation CPU 0 panic: IPC 4.33e-05 < 0.01
Simulation CPU 0 panic: IPC 0.0001348 < 0.01
Simulation CPU 0 panic: IPC 7.92e-05 < 0.01
Simulation CPU 0 panic: IPC 8.1e-05 < 0.01
Simulation CPU 0 panic: IPC 2.71e-05 < 0.01
Simulation CPU 0 panic: IPC 0.0001528 < 0.01
Simulation CPU 0 panic: IPC 6.01e-05 < 0.01
Simulation CPU 0 panic: IPC 1.54e-05 < 0.01
Simulation CPU 0 panic: IPC 2.63e-05 < 0.01
Simulation CPU 0 panic: IPC 5.7e-06 < 0.01
Simulation CPU 0 panic: IPC 0.0001868 < 0.01
Simulation CPU 0 panic: IPC 2.55e-05 < 0.01
Simulation CPU 0 panic: IPC 1.31e-05 < 0.01
Simulation CPU 0 panic: IPC 0.0004005 < 0.01
Simulation CPU 0 panic: IPC 0.0001294 < 0.01
Simulation CPU 0 panic: IPC 7.55e-05 < 0.01
Simulation CPU 0 panic: IPC 0.00038 < 0.01
Simulation CPU 0 panic: IPC 5.57e-05 < 0.01
Simulation CPU 0 panic: IPC 0.0001974 < 0.01
Simulation CPU 0 panic: IPC 0.0005786 < 0.01
Simulation CPU 0 panic: IPC 9.4e-06 < 0.01
Simulation CPU 0 panic: IPC 1.19e-05 < 0.01
Simulation CPU 0 panic: IPC 0.0002427 < 0.01
Simulation CPU 0 panic: IPC 0.0002509 < 0.01
Simulation CPU 0 panic: IPC 5.56e-05 < 0.01
Simulation CPU 0 panic: IPC 0.0001706 < 0.01
Simulation CPU 0 panic: IPC 4.04e-05 < 0.01
Simulation CPU 0 panic: IPC 0.0001518 < 0.01
Simulation CPU 0 panic: IPC 0.0001326 < 0.01
Simulation CPU 0 panic: IPC 6.49e-05 < 0.01
Simulation CPU 0 panic: IPC 0.000194 < 0.01
Simulation CPU 0 panic: IPC 3.4e-05 < 0.01
Simulation CPU 0 panic: IPC 0.0005928 < 0.01
Simulation CPU 0 panic: IPC 0.0001694 < 0.01
Simulation CPU 0 panic: IPC 4.8e-05 < 0.01
Simulation CPU 0 panic: IPC 0.0001112 < 0.01
Simulation CPU 0 panic: IPC 6.21e-05 < 0.01
Simulation CPU 0 panic: IPC 0.0001095 < 0.01
Simulation CPU 0 panic: IPC 0.0001 < 0.01
Simulation CPU 0 panic: IPC 0.0001861 < 0.01
Simulation CPU 0 panic: IPC 0.0001314 < 0.01
Simulation CPU 0 panic: IPC 0.0002772 < 0.01
Simulation CPU 0 panic: IPC 0.0006487 < 0.01
Simulation CPU 0 panic: IPC 8.56e-05 < 0.01
Simulation CPU 0 panic: IPC 8.57e-05 < 0.01
Simulation CPU 0 panic: IPC 8.17e-05 < 0.01
Simulation CPU 0 panic: IPC 2.9e-05 < 0.01
Simulation CPU 0 panic: IPC 0.0001897 < 0.01
Simulation CPU 0 panic: IPC 2.61e-05 < 0.01
Simulation CPU 0 panic: IPC 1.86e-05 < 0.01
Simulation CPU 0 panic: IPC 3.14e-05 < 0.01
Simulation CPU 0 panic: IPC 8.29e-05 < 0.01
Simulation CPU 0 panic: IPC 0.0003039 < 0.01
Simulation CPU 0 panic: IPC 4.3e-05 < 0.01
Simulation CPU 0 panic: IPC 0.0003497 < 0.01
Simulation CPU 0 panic: IPC 0.0002626 < 0.01
Simulation CPU 0 panic: IPC 0.0002498 < 0.01
Simulation CPU 0 panic: IPC 0.000109 < 0.01
Simulation CPU 0 panic: IPC 0.0005098 < 0.01
Simulation CPU 0 panic: IPC 0.0002056 < 0.01
Simulation CPU 0 panic: IPC 9.7e-06 < 0.01
Simulation CPU 0 panic: IPC 5.89e-05 < 0.01
Simulation CPU 0 panic: IPC 0.0003568 < 0.01
Simulation CPU 0 panic: IPC 0.0001968 < 0.01
Simulation CPU 0 panic: IPC 0.0003042 < 0.01
Simulation CPU 0 panic: IPC 0.0001578 < 0.01
Simulation CPU 0 panic: IPC 1.3e-05 < 0.01
Simulation CPU 0 panic: IPC 0.0003903 < 0.01
Simulation CPU 0 panic: IPC 8.39e-05 < 0.01
Simulation CPU 0 panic: IPC 0.0003554 < 0.01
Simulation CPU 0 panic: IPC 0.0011507 < 0.01
Simulation CPU 0 panic: IPC 0.0003622 < 0.01
Simulation CPU 0 panic: IPC 0.0001338 < 0.01
Simulation CPU 0 panic: IPC 0.0002468 < 0.01
Simulation CPU 0 panic: IPC 0.000304 < 0.01
Simulation CPU 0 panic: IPC 1.71e-05 < 0.01
Simulation CPU 0 panic: IPC 5.51e-05 < 0.01
Simulation CPU 0 panic: IPC 2.9e-05 < 0.01
Simulation CPU 0 panic: IPC 0.0002507 < 0.01
Simulation CPU 0 panic: IPC 0.0005764 < 0.01
Simulation CPU 0 panic: IPC 1.04e-05 < 0.01
Simulation CPU 0 panic: IPC 3.87e-05 < 0.01
Simulation CPU 0 panic: IPC 0.00014 < 0.01
Simulation CPU 0 panic: IPC 4.4e-06 < 0.01
Simulation CPU 0 panic: IPC 0.0011559 < 0.01
Simulation CPU 0 panic: IPC 0.0002521 < 0.01
Simulation CPU 0 panic: IPC 0.0003425 < 0.01
Simulation CPU 0 panic: IPC 4.42e-05 < 0.01
Simulation CPU 0 panic: IPC 9.35e-05 < 0.01
Simulation CPU 0 panic: IPC 6.83e-05 < 0.01
Simulation CPU 0 panic: IPC 0.0001484 < 0.01
Simulation CPU 0 panic: IPC 0.0002789 < 0.01
Simulation CPU 0 panic: IPC 0.0001228 < 0.01
Simulation CPU 0 panic: IPC 1.46e-05 < 0.01
Simulation CPU 0 panic: IPC 0.0001518 < 0.01
Simulation CPU 0 panic: IPC 0.0001631 < 0.01
Simulation CPU 0 panic: IPC 0.0001727 < 0.01
Simulation CPU 0 panic: IPC 0.0003224 < 0.01
Simulation CPU 0 panic: IPC 9.1e-06 < 0.01
Simulation CPU 0 panic: IPC 4.28e-05 < 0.01
Simulation CPU 0 panic: IPC 0.0004744 < 0.01
Simulation CPU 0 panic: IPC 0.0006959 < 0.01
Simulation CPU 0 panic: IPC 0.0001137 < 0.01
Simulation CPU 0 panic: IPC 0.0002421 < 0.01
Simulation CPU 0 panic: IPC 0.0005428 < 0.01
Simulation CPU 0 panic: IPC 0.0007276 < 0.01
Simulation CPU 0 panic: IPC 4.4e-06 < 0.01
Simulation CPU 0 panic: IPC 0.0005376 < 0.01
Simulation CPU 0 panic: IPC 2.88e-05 < 0.01
Simulation CPU 0 panic: IPC 0.0004702 < 0.01
Simulation CPU 0 panic: IPC 9.84e-05 < 0.01
Simulation CPU 0 panic: IPC 0.0002854 < 0.01
Simulation CPU 0 panic: IPC 0.0001352 < 0.01
Simulation CPU 0 panic: IPC 1.11e-05 < 0.01
Simulation CPU 0 panic: IPC 0.000379 < 0.01
Simulation CPU 0 panic: IPC 8.5e-06 < 0.01
Simulation CPU 0 panic: IPC 0.0003148 < 0.01
Simulation CPU 0 panic: IPC 0.0003887 < 0.01
Simulation CPU 0 panic: IPC 0.0003474 < 0.01
Simulation CPU 0 panic: IPC 4.3e-06 < 0.01
Simulation CPU 0 panic: IPC 0.000223 < 0.01
Simulation CPU 0 panic: IPC 5.58e-05 < 0.01
Simulation CPU 0 panic: IPC 0.0001658 < 0.01
Simulation CPU 0 panic: IPC 0.0001228 < 0.01
Simulation CPU 0 panic: IPC 0.0006092 < 0.01
Simulation CPU 0 panic: IPC 0.0006614 < 0.01
Simulation CPU 0 panic: IPC 5.65e-05 < 0.01
Simulation CPU 0 panic: IPC 9.89e-05 < 0.01
Simulation CPU 0 panic: IPC 0.0004831 < 0.01
Simulation CPU 0 panic: IPC 2.11e-05 < 0.01
Simulation CPU 0 panic: IPC 0.000197 < 0.01
Simulation CPU 0 panic: IPC 2.19e-05 < 0.01
Simulation CPU 0 panic: IPC 0.0008169 < 0.01
Simulation CPU 0 panic: IPC 0.0008844 < 0.01
Simulation CPU 0 panic: IPC 0.0001471 < 0.01
Simulation CPU 0 panic: IPC 8.91e-05 < 0.01
Simulation CPU 0 panic: IPC 6.78e-05 < 0.01
Simulation CPU 0 panic: IPC 0.000334 < 0.01
Simulation CPU 0 panic: IPC 0.0002733 < 0.01
Simulation CPU 0 panic: IPC 0.000229 < 0.01
Simulation CPU 0 panic: IPC 0.0001019 < 0.01
Simulation CPU 0 panic: IPC 7.73e-05 < 0.01
Simulation CPU 0 panic: IPC 3.57e-05 < 0.01
Simulation CPU 0 panic: IPC 5.28e-05 < 0.01
Simulation CPU 0 panic: IPC 0.0001181 < 0.01
Simulation CPU 0 panic: IPC 7.77e-05 < 0.01
Simulation CPU 0 panic: IPC 6.23e-05 < 0.01
Simulation CPU 0 panic: IPC 0.0004393 < 0.01
Simulation CPU 0 panic: IPC 5.1e-06 < 0.01
Simulation CPU 0 panic: IPC 8.9e-05 < 0.01
Simulation CPU 0 panic: IPC 0.0002086 < 0.01
Simulation CPU 0 panic: IPC 0.00029 < 0.01
Simulation CPU 0 panic: IPC 1.76e-05 < 0.01
Simulation CPU 0 panic: IPC 0.0003894 < 0.01
Simulation CPU 0 panic: IPC 4.15e-05 < 0.01
Simulation CPU 0 panic: IPC 8.53e-05 < 0.01
Simulation CPU 0 panic: IPC 1.94e-05 < 0.01
Simulation CPU 0 panic: IPC 7.81e-05 < 0.01
Simulation CPU 0 panic: IPC 0.0001928 < 0.01
Simulation CPU 0 panic: IPC 4.21e-05 < 0.01
Simulation CPU 0 panic: IPC 1.76e-05 < 0.01
Simulation CPU 0 panic: IPC 1.07e-05 < 0.01
Simulation CPU 0 panic: IPC 4.17e-05 < 0.01
Simulation CPU 0 panic: IPC 1.53e-05 < 0.01
Simulation CPU 0 panic: IPC 0.0003122 < 0.01
Simulation CPU 0 panic: IPC 0.000202 < 0.01
Simulation CPU 0 panic: IPC 5.1e-06 < 0.01
Simulation CPU 0 panic: IPC 6.38e-05 < 0.01
Simulation CPU 0 panic: IPC 0.0004373 < 0.01
Simulation CPU 0 panic: IPC 0.0001486 < 0.01
Simulation CPU 0 panic: IPC 0.0002091 < 0.01
Simulation CPU 0 panic: IPC 0.0001072 < 0.01
Simulation CPU 0 panic: IPC 0.0001429 < 0.01
Simulation CPU 0 panic: IPC 8.17e-05 < 0.01
Simulation CPU 0 panic: IPC 2.1e-05 < 0.01
Simulation CPU 0 panic: IPC 0.0003139 < 0.01
Simulation CPU 0 panic: IPC 0.0001264 < 0.01
Simulation CPU 0 panic: IPC 0.0006449 < 0.01
Simulation CPU 0 panic: IPC 0.0001074 < 0.01
Simulation CPU 0 panic: IPC 0.0001296 < 0.01
Simulation CPU 0 panic: IPC 6.27e-05 < 0.01
Simulation CPU 0 panic: IPC 2.46e-05 < 0.01
Simulation CPU 0 panic: IPC 0.00022 < 0.01
Simulation CPU 0 panic: IPC 0.0008485 < 0.01
Simulation CPU 0 panic: IPC 0.0002906 < 0.01
Simulation CPU 0 panic: IPC 0.0001656 < 0.01
Simulation CPU 0 panic: IPC 0.0001319 < 0.01
Simulation CPU 0 panic: IPC 0.0002867 < 0.01
Simulation CPU 0 panic: IPC 0.000108 < 0.01
Simulation CPU 0 panic: IPC 0.0003691 < 0.01
Simulation CPU 0 panic: IPC 0.0003023 < 0.01
Simulation CPU 0 panic: IPC 0.0002531 < 0.01
Simulation CPU 0 panic: IPC 9.06e-05 < 0.01
Simulation CPU 0 panic: IPC 3.13e-05 < 0.01
Simulation CPU 0 panic: IPC 0.0005034 < 0.01
Simulation CPU 0 panic: IPC 3.01e-05 < 0.01
Simulation CPU 0 panic: IPC 0.0011624 < 0.01
Simulation CPU 0 panic: IPC 0.0004178 < 0.01
Simulation CPU 0 panic: IPC 0.0004944 < 0.01
Simulation CPU 0 panic: IPC 0.0001229 < 0.01
Simulation CPU 0 panic: IPC 0.0007805 < 0.01
Simulation CPU 0 panic: IPC 9.49e-05 < 0.01
Simulation CPU 0 panic: IPC 0.0002816 < 0.01
Simulation CPU 0 panic: IPC 2.1e-06 < 0.01
Simulation CPU 0 panic: IPC 0.0002647 < 0.01
Simulation CPU 0 panic: IPC 9.12e-05 < 0.01
Simulation CPU 0 panic: IPC 0.0004271 < 0.01
Simulation CPU 0 panic: IPC 6.08e-05 < 0.01
Simulation CPU 0 panic: IPC 0.0001186 < 0.01
Simulation CPU 0 panic: IPC 0.0001622 < 0.01
Simulation CPU 0 panic: IPC 0.000209 < 0.01
Simulation CPU 0 panic: IPC 0.0001247 < 0.01
Simulation CPU 0 panic: IPC 4.03e-05 < 0.01
Simulation CPU 0 panic: IPC 2.24e-05 < 0.01
Simulation CPU 0 panic: IPC 0.000262 < 0.01
Simulation CPU 0 panic: IPC 3.53e-05 < 0.01
Simulation CPU 0 panic: IPC 0.000102 < 0.01
Simulation CPU 0 panic: IPC 0.0001811 < 0.01
Simulation CPU 0 panic: IPC 4.36e-05 < 0.01
Simulation CPU 0 panic: IPC 0.0005 < 0.01
Simulation CPU 0 panic: IPC 0.0002208 < 0.01
Simulation CPU 0 panic: IPC 0.0006199 < 0.01
Simulation CPU 0 panic: IPC 2.53e-05 < 0.01
Simulation CPU 0 panic: IPC 0.0001688 < 0.01
Simulation CPU 0 panic: IPC 0.0007948 < 0.01
Simulation CPU 0 panic: IPC 0.0002768 < 0.01
Simulation CPU 0 panic: IPC 8.6e-06 < 0.01
Simulation CPU 0 panic: IPC 0.0003499 < 0.01
Simulation CPU 0 panic: IPC 0.000323 < 0.01
Simulation CPU 0 panic: IPC 7.77e-05 < 0.01
Simulation CPU 0 panic: IPC 5.61e-05 < 0.01
Simulation CPU 0 panic: IPC 0.0002608 < 0.01
Simulation CPU 0 panic: IPC 7.46e-05 < 0.01
Simulation CPU 0 panic: IPC 0.0002379 < 0.01
Simulation CPU 0 panic: IPC 0.0001566 < 0.01
Simulation CPU 0 panic: IPC 1.14e-05 < 0.01
Simulation CPU 0 panic: IPC 0.0001794 < 0.01
Simulation CPU 0 panic: IPC 0.0003136 < 0.01
Simulation CPU 0 panic: IPC 0.0005114 < 0.01
Simulation CPU 0 panic: IPC 0.0001045 < 0.01
Simulation CPU 0 panic: IPC 0.0007922 < 0.01
Simulation CPU 0 panic: IPC 0.000485 < 0.01
Simulation CPU 0 panic: IPC 0.0002233 < 0.01
Simulation CPU 0 panic: IPC 0.0002474 < 0.01
Simulation CPU 0 panic: IPC 0.0001173 < 0.01
Simulation CPU 0 panic: IPC 1.81e-05 < 0.01
Simulation CPU 0 panic: IPC 0.0002717 < 0.01
Simulation CPU 0 panic: IPC 0.0002939 < 0.01
Simulation CPU 0 panic: IPC 4e-05 < 0.01
Simulation CPU 0 panic: IPC 6.4e-06 < 0.01
Simulation CPU 0 panic: IPC 0.0012433 < 0.01
Simulation CPU 0 panic: IPC 0.000125 < 0.01
Simulation CPU 0 panic: IPC 4.38e-05 < 0.01
Simulation CPU 0 panic: IPC 0.0006427 < 0.01
Simulation CPU 0 panic: IPC 6.99e-05 < 0.01
Simulation CPU 0 panic: IPC 0.0002371 < 0.01
Simulation CPU 0 panic: IPC 8.97e-05 < 0.01
Simulation CPU 0 panic: IPC 0.0002711 < 0.01
Simulation CPU 0 panic: IPC 0.0005678 < 0.01
Simulation CPU 0 panic: IPC 0.0002065 < 0.01
Simulation CPU 0 panic: IPC 0.0001829 < 0.01
Simulation CPU 0 panic: IPC 0.0001029 < 0.01
Simulation CPU 0 panic: IPC 3.13e-05 < 0.01
Simulation CPU 0 panic: IPC 4.35e-05 < 0.01
Simulation CPU 0 panic: IPC 0.000262 < 0.01
Simulation CPU 0 panic: IPC 0.000339 < 0.01
Simulation CPU 0 panic: IPC 0.0001928 < 0.01
Simulation CPU 0 panic: IPC 0.000647 < 0.01
Simulation CPU 0 panic: IPC 0.0003275 < 0.01
Simulation CPU 0 panic: IPC 7.3e-05 < 0.01
Simulation CPU 0 panic: IPC 0.0001096 < 0.01
[ERROR_CYCLE] Error added at CPU cycle 9296832298, interval 2, pending count: 1
[DRAM_CYCLE_ERROR] Cycle-based error applied! address=0xcceb52068 additional_latency=2459910500 cycles
Simulation CPU 0 panic: IPC 0.0002002 < 0.01
Simulation CPU 0 panic: IPC 0 < 0.01
Simulation CPU 0 panic: IPC 0.0001027 < 0.01
Simulation CPU 0 panic: IPC 3.77e-05 < 0.01
Simulation CPU 0 panic: IPC 7.95e-05 < 0.01
Simulation CPU 0 panic: IPC 3.04e-05 < 0.01
Simulation CPU 0 panic: IPC 0.0003393 < 0.01
Simulation CPU 0 panic: IPC 0.0001866 < 0.01
Simulation CPU 0 panic: IPC 0.0003179 < 0.01
Simulation CPU 0 panic: IPC 0.0002887 < 0.01
Simulation CPU 0 panic: IPC 0.000205 < 0.01
Simulation CPU 0 panic: IPC 2.87e-05 < 0.01
Simulation CPU 0 panic: IPC 6.03e-05 < 0.01
Simulation CPU 0 panic: IPC 0.0002131 < 0.01
Simulation CPU 0 panic: IPC 0.0002862 < 0.01
Simulation CPU 0 panic: IPC 3.92e-05 < 0.01
Simulation CPU 0 panic: IPC 3.46e-05 < 0.01
Simulation CPU 0 panic: IPC 0.0002005 < 0.01
Simulation CPU 0 panic: IPC 0.0005747 < 0.01
Simulation CPU 0 panic: IPC 0.0001108 < 0.01
Simulation CPU 0 panic: IPC 0.0001899 < 0.01
Simulation CPU 0 panic: IPC 0.000147 < 0.01
Simulation CPU 0 panic: IPC 0.0002102 < 0.01
Simulation CPU 0 panic: IPC 0.0002241 < 0.01
Simulation CPU 0 panic: IPC 0.0004685 < 0.01
Simulation CPU 0 panic: IPC 0.0001088 < 0.01
Simulation CPU 0 panic: IPC 0.0002746 < 0.01
Simulation CPU 0 panic: IPC 5.02e-05 < 0.01
Simulation CPU 0 panic: IPC 9.95e-05 < 0.01
Simulation CPU 0 panic: IPC 4.41e-05 < 0.01
Simulation CPU 0 panic: IPC 0.0004499 < 0.01
Simulation CPU 0 panic: IPC 0.0001355 < 0.01
Simulation CPU 0 panic: IPC 0.0003783 < 0.01
Simulation CPU 0 panic: IPC 5.91e-05 < 0.01
Simulation CPU 0 panic: IPC 0.0005729 < 0.01
Simulation CPU 0 panic: IPC 5.59e-05 < 0.01
Simulation CPU 0 panic: IPC 1.87e-05 < 0.01
Simulation CPU 0 panic: IPC 0.0001355 < 0.01
Simulation CPU 0 panic: IPC 8.82e-05 < 0.01
Simulation CPU 0 panic: IPC 0.0006069 < 0.01
Simulation CPU 0 panic: IPC 2.18e-05 < 0.01
Simulation CPU 0 panic: IPC 0.0002503 < 0.01
Simulation CPU 0 panic: IPC 0.0002295 < 0.01
Simulation CPU 0 panic: IPC 0.0007559 < 0.01
Simulation CPU 0 panic: IPC 0.0004173 < 0.01
Simulation CPU 0 panic: IPC 3.09e-05 < 0.01
Simulation CPU 0 panic: IPC 0.0008507 < 0.01
Simulation CPU 0 panic: IPC 0.0001961 < 0.01
Simulation CPU 0 panic: IPC 2.97e-05 < 0.01
Simulation CPU 0 panic: IPC 0.0008716 < 0.01
Simulation CPU 0 panic: IPC 0.0004794 < 0.01
Simulation CPU 0 panic: IPC 2.82e-05 < 0.01
Simulation CPU 0 panic: IPC 0.0003551 < 0.01
Simulation CPU 0 panic: IPC 2.44e-05 < 0.01
Simulation CPU 0 panic: IPC 0.0018517 < 0.01
Simulation CPU 0 panic: IPC 0.0012597 < 0.01
Simulation CPU 0 panic: IPC 0.0004452 < 0.01
Simulation CPU 0 panic: IPC 0.0001906 < 0.01
Simulation CPU 0 panic: IPC 0.0003783 < 0.01
Simulation CPU 0 panic: IPC 0.0004302 < 0.01
Simulation CPU 0 panic: IPC 2.3e-06 < 0.01
Simulation CPU 0 panic: IPC 0.0002825 < 0.01
Simulation CPU 0 panic: IPC 7.46e-05 < 0.01
Simulation CPU 0 panic: IPC 4.15e-05 < 0.01
Simulation CPU 0 panic: IPC 6.1e-06 < 0.01
Simulation CPU 0 panic: IPC 0.0004331 < 0.01
Simulation CPU 0 panic: IPC 6.17e-05 < 0.01
Simulation CPU 0 panic: IPC 0.0001894 < 0.01
Simulation CPU 0 panic: IPC 0.0002855 < 0.01
Simulation CPU 0 panic: IPC 0.0001729 < 0.01
Simulation CPU 0 panic: IPC 0.0002951 < 0.01
Simulation CPU 0 panic: IPC 4.1e-05 < 0.01
Simulation CPU 0 panic: IPC 9.01e-05 < 0.01
Simulation CPU 0 panic: IPC 4.96e-05 < 0.01
Simulation CPU 0 panic: IPC 5.58e-05 < 0.01
Simulation CPU 0 panic: IPC 0.0003167 < 0.01
Simulation CPU 0 panic: IPC 0.0002774 < 0.01
Simulation CPU 0 panic: IPC 0.0002782 < 0.01
Simulation CPU 0 panic: IPC 3.43e-05 < 0.01
Simulation CPU 0 panic: IPC 8.24e-05 < 0.01
Simulation CPU 0 panic: IPC 0.0007259 < 0.01
Simulation CPU 0 panic: IPC 0.0003604 < 0.01
Simulation CPU 0 panic: IPC 1.56e-05 < 0.01
Simulation CPU 0 panic: IPC 0.0001762 < 0.01
Simulation CPU 0 panic: IPC 0.0002859 < 0.01
Simulation CPU 0 panic: IPC 0.0010916 < 0.01
Simulation CPU 0 panic: IPC 0.001065 < 0.01
Simulation CPU 0 panic: IPC 1.8e-06 < 0.01
Simulation CPU 0 panic: IPC 0.0011213 < 0.01
Simulation CPU 0 panic: IPC 0.0002427 < 0.01
Simulation CPU 0 panic: IPC 0.0005411 < 0.01
Simulation CPU 0 panic: IPC 0.0003029 < 0.01
Simulation CPU 0 panic: IPC 0.0001096 < 0.01
Simulation CPU 0 panic: IPC 0.0004023 < 0.01
Simulation CPU 0 panic: IPC 0.0005972 < 0.01
Simulation CPU 0 panic: IPC 8.07e-05 < 0.01
Simulation CPU 0 panic: IPC 0.0003685 < 0.01
Simulation CPU 0 panic: IPC 0.0001653 < 0.01
Simulation CPU 0 panic: IPC 0.0008265 < 0.01
Simulation CPU 0 panic: IPC 0.001385 < 0.01
Simulation CPU 0 panic: IPC 8.43e-05 < 0.01
Simulation CPU 0 panic: IPC 0.0012837 < 0.01
Simulation CPU 0 panic: IPC 0.0018117 < 0.01
Simulation CPU 0 panic: IPC 2.33e-05 < 0.01
Simulation CPU 0 panic: IPC 0.001022 < 0.01
Simulation CPU 0 panic: IPC 0.0008945 < 0.01
Simulation CPU 0 panic: IPC 9.55e-05 < 0.01
Simulation CPU 0 panic: IPC 0.0011197 < 0.01
Heartbeat CPU 0 instructions: 30000002 cycles: 10382297668 heartbeat IPC: 0.002216 cumulative IPC: 0.00289 (Simulation time: 14 hr 20 min 33 sec)
Heartbeat CPU 0 instructions: 40000005 cycles: 10392495060 heartbeat IPC: 0.9806 cumulative IPC: 0.003849 (Simulation time: 14 hr 21 min 48 sec)
Simulation CPU 0 panic: IPC 1.09e-05 < 0.01
Simulation CPU 0 panic: IPC 0.0002232 < 0.01
Simulation CPU 0 panic: IPC 0.0001449 < 0.01
Simulation CPU 0 panic: IPC 0.0005373 < 0.01
Simulation CPU 0 panic: IPC 0.000802 < 0.01
Simulation CPU 0 panic: IPC 0.0018511 < 0.01
Simulation CPU 0 panic: IPC 0.0006917 < 0.01
Simulation CPU 0 panic: IPC 0.0043945 < 0.01
Simulation CPU 0 panic: IPC 0.0001536 < 0.01
Simulation CPU 0 panic: IPC 0.0001136 < 0.01
Simulation CPU 0 panic: IPC 0.001236 < 0.01
Simulation CPU 0 panic: IPC 0.0011719 < 0.01
Simulation CPU 0 panic: IPC 0.0008616 < 0.01
Simulation CPU 0 panic: IPC 0.0004781 < 0.01
Simulation CPU 0 panic: IPC 0.0003362 < 0.01
Simulation CPU 0 panic: IPC 0.0004577 < 0.01
Simulation CPU 0 panic: IPC 0.0014182 < 0.01
Simulation CPU 0 panic: IPC 0.003327 < 0.01
Simulation CPU 0 panic: IPC 0.0042695 < 0.01
Simulation CPU 0 panic: IPC 0.0004507 < 0.01
Simulation CPU 0 panic: IPC 0.0039655 < 0.01
Simulation CPU 0 panic: IPC 0.0001885 < 0.01
Simulation CPU 0 panic: IPC 0.0010644 < 0.01
Simulation CPU 0 panic: IPC 0.0027768 < 0.01
Simulation CPU 0 panic: IPC 0.0009948 < 0.01
Simulation CPU 0 panic: IPC 0.0002379 < 0.01
Simulation CPU 0 panic: IPC 0.0038665 < 0.01
Simulation CPU 0 panic: IPC 8.26e-05 < 0.01
Simulation CPU 0 panic: IPC 0.002507 < 0.01
Simulation CPU 0 panic: IPC 0.0040519 < 0.01
Simulation CPU 0 panic: IPC 0.0036955 < 0.01
Simulation CPU 0 panic: IPC 0.0023399 < 0.01
Simulation CPU 0 panic: IPC 0.0064328 < 0.01
Simulation CPU 0 panic: IPC 0.0010042 < 0.01
Simulation CPU 0 panic: IPC 0.0009652 < 0.01
Simulation CPU 0 panic: IPC 0.0014659 < 0.01
Simulation CPU 0 panic: IPC 0.0016552 < 0.01
Simulation CPU 0 panic: IPC 0.0012115 < 0.01
Simulation CPU 0 panic: IPC 0.0019959 < 0.01
Simulation CPU 0 panic: IPC 0.0013098 < 0.01
Simulation CPU 0 panic: IPC 0.0041551 < 0.01
Simulation CPU 0 panic: IPC 0.0025454 < 0.01
Simulation CPU 0 panic: IPC 0.0017551 < 0.01
Simulation CPU 0 panic: IPC 0.0009659 < 0.01
Simulation CPU 0 critical: IPC 0.011097 < 0.02
Simulation CPU 0 panic: IPC 0.001022 < 0.01
Simulation CPU 0 panic: IPC 0.0005779 < 0.01
Simulation CPU 0 panic: IPC 0.0023576 < 0.01
Simulation CPU 0 panic: IPC 0.0058939 < 0.01
Simulation CPU 0 panic: IPC 0.0009893 < 0.01
Simulation CPU 0 panic: IPC 0.0005063 < 0.01
Simulation CPU 0 panic: IPC 0.005345 < 0.01
Simulation CPU 0 panic: IPC 0.0016333 < 0.01
Simulation CPU 0 panic: IPC 0.0038256 < 0.01
Simulation CPU 0 panic: IPC 0.0008069 < 0.01
Simulation CPU 0 panic: IPC 0.0005036 < 0.01
Simulation CPU 0 panic: IPC 0.000706 < 0.01
Simulation CPU 0 panic: IPC 0.002116 < 0.01
Simulation CPU 0 panic: IPC 0.0039969 < 0.01
Simulation CPU 0 panic: IPC 0.0004757 < 0.01
Simulation CPU 0 panic: IPC 0.004217 < 0.01
Simulation CPU 0 panic: IPC 0.0035931 < 0.01
Simulation CPU 0 panic: IPC 0.0014995 < 0.01
Simulation CPU 0 panic: IPC 0.0018213 < 0.01
Simulation CPU 0 panic: IPC 0.0002664 < 0.01
Simulation CPU 0 panic: IPC 0.0019407 < 0.01
Simulation CPU 0 panic: IPC 0.0026608 < 0.01
Simulation CPU 0 panic: IPC 0.0018177 < 0.01
Simulation CPU 0 panic: IPC 0.0039653 < 0.01
Simulation CPU 0 panic: IPC 0.0035213 < 0.01
Simulation CPU 0 panic: IPC 0.0009275 < 0.01
Simulation CPU 0 panic: IPC 0.0025717 < 0.01
Simulation CPU 0 panic: IPC 0.0001925 < 0.01
Simulation CPU 0 panic: IPC 0.004238 < 0.01
Simulation CPU 0 panic: IPC 0.0004441 < 0.01
Simulation CPU 0 panic: IPC 0.0049101 < 0.01
Simulation CPU 0 panic: IPC 0.0033325 < 0.01
Simulation CPU 0 panic: IPC 0.0013515 < 0.01
Simulation CPU 0 panic: IPC 0.0043376 < 0.01
Simulation CPU 0 panic: IPC 0.0024248 < 0.01
Simulation CPU 0 panic: IPC 0.0055995 < 0.01
Simulation CPU 0 panic: IPC 0.0002012 < 0.01
Simulation CPU 0 panic: IPC 0.0060398 < 0.01
Simulation CPU 0 panic: IPC 0.0002445 < 0.01
Simulation CPU 0 panic: IPC 0.0001638 < 0.01
Simulation CPU 0 panic: IPC 0.0013849 < 0.01
Simulation CPU 0 panic: IPC 0.0006916 < 0.01
Simulation CPU 0 panic: IPC 0.0008969 < 0.01
Simulation CPU 0 panic: IPC 0.0058898 < 0.01
Simulation CPU 0 panic: IPC 0.0018609 < 0.01
Simulation CPU 0 panic: IPC 0.0046014 < 0.01
Simulation CPU 0 panic: IPC 0.0010527 < 0.01
Simulation CPU 0 panic: IPC 0.0037237 < 0.01
Simulation CPU 0 panic: IPC 0.0018712 < 0.01
Simulation CPU 0 panic: IPC 0.0001619 < 0.01
Simulation CPU 0 panic: IPC 0.0002635 < 0.01
Simulation CPU 0 panic: IPC 0.0027166 < 0.01
Simulation CPU 0 panic: IPC 0.0001772 < 0.01
Simulation CPU 0 panic: IPC 0.0011788 < 0.01
Simulation CPU 0 panic: IPC 0.0005091 < 0.01
Simulation CPU 0 panic: IPC 7.05e-05 < 0.01
Simulation CPU 0 panic: IPC 0.0001396 < 0.01
Simulation CPU 0 panic: IPC 0.0016226 < 0.01
Simulation CPU 0 panic: IPC 0.0023876 < 0.01
Simulation CPU 0 panic: IPC 9.71e-05 < 0.01
Simulation CPU 0 panic: IPC 0.0049168 < 0.01
Simulation CPU 0 critical: IPC 0.011131 < 0.02
Simulation CPU 0 panic: IPC 0.0021724 < 0.01
Simulation CPU 0 panic: IPC 0.0020781 < 0.01
Simulation CPU 0 panic: IPC 0.0003764 < 0.01
Simulation CPU 0 panic: IPC 0.0047292 < 0.01
Simulation CPU 0 panic: IPC 0.000702 < 0.01
Simulation CPU 0 panic: IPC 0.0047868 < 0.01
Simulation CPU 0 panic: IPC 0.0002701 < 0.01
Simulation CPU 0 panic: IPC 0.0024955 < 0.01
Simulation CPU 0 panic: IPC 0.0006319 < 0.01
Simulation CPU 0 panic: IPC 0.0038167 < 0.01
Simulation CPU 0 panic: IPC 5.04e-05 < 0.01
Simulation CPU 0 panic: IPC 0.0088605 < 0.01
Simulation CPU 0 panic: IPC 0.0030732 < 0.01
Simulation CPU 0 panic: IPC 0.0003776 < 0.01
Simulation CPU 0 panic: IPC 0.0033511 < 0.01
Simulation CPU 0 panic: IPC 0.0086842 < 0.01
Simulation CPU 0 panic: IPC 0.0008329 < 0.01
Simulation CPU 0 panic: IPC 0.0063675 < 0.01
Simulation CPU 0 panic: IPC 0.0010047 < 0.01
Simulation CPU 0 panic: IPC 0.0008566 < 0.01
Simulation CPU 0 panic: IPC 0.0005742 < 0.01
Simulation CPU 0 panic: IPC 0.00121 < 0.01
Simulation CPU 0 panic: IPC 0.001071 < 0.01
Simulation CPU 0 panic: IPC 0.0028446 < 0.01
Simulation CPU 0 panic: IPC 0.0017474 < 0.01
Simulation CPU 0 panic: IPC 0.0035269 < 0.01
Simulation CPU 0 panic: IPC 0.0063969 < 0.01
Simulation CPU 0 panic: IPC 0.0017838 < 0.01
Simulation CPU 0 panic: IPC 0.0018997 < 0.01
Simulation CPU 0 panic: IPC 0.0017735 < 0.01
Simulation CPU 0 panic: IPC 0.001565 < 0.01
Simulation CPU 0 panic: IPC 0.002997 < 0.01
Simulation CPU 0 panic: IPC 0.0002374 < 0.01
Simulation CPU 0 panic: IPC 0.0023981 < 0.01
Simulation CPU 0 panic: IPC 0.0010499 < 0.01
Simulation CPU 0 panic: IPC 0.0026072 < 0.01
Simulation CPU 0 panic: IPC 0.0010872 < 0.01
Simulation CPU 0 panic: IPC 0.0018779 < 0.01
Simulation CPU 0 panic: IPC 0.0005511 < 0.01
Simulation CPU 0 panic: IPC 0.0061565 < 0.01
Simulation CPU 0 panic: IPC 0.0030584 < 0.01
Simulation CPU 0 panic: IPC 1.18e-05 < 0.01
Simulation CPU 0 panic: IPC 0.0005595 < 0.01
Simulation CPU 0 panic: IPC 0.0007938 < 0.01
Simulation CPU 0 panic: IPC 0.0009042 < 0.01
Simulation CPU 0 panic: IPC 0.0005772 < 0.01
Simulation CPU 0 panic: IPC 0.0006617 < 0.01
Simulation CPU 0 panic: IPC 0.0056233 < 0.01
Simulation CPU 0 panic: IPC 0.0024556 < 0.01
Simulation CPU 0 panic: IPC 0.0009825 < 0.01
Simulation CPU 0 panic: IPC 0.0013106 < 0.01
Simulation CPU 0 panic: IPC 0.0001617 < 0.01
Simulation CPU 0 panic: IPC 0.0016575 < 0.01
Simulation CPU 0 panic: IPC 0.004623 < 0.01
Simulation CPU 0 panic: IPC 0.0012968 < 0.01
Simulation CPU 0 panic: IPC 0.0006322 < 0.01
Simulation CPU 0 panic: IPC 0.0006884 < 0.01
Simulation CPU 0 panic: IPC 0.001009 < 0.01
Simulation CPU 0 panic: IPC 0.0038769 < 0.01
Simulation CPU 0 panic: IPC 0.0007594 < 0.01
Simulation CPU 0 panic: IPC 0.0019421 < 0.01
Simulation CPU 0 panic: IPC 0.0006368 < 0.01
Simulation CPU 0 panic: IPC 0.0012415 < 0.01
Simulation CPU 0 panic: IPC 0.0062068 < 0.01
Simulation CPU 0 panic: IPC 0.0053697 < 0.01
Simulation CPU 0 panic: IPC 2.92e-05 < 0.01
Simulation CPU 0 panic: IPC 0.00192 < 0.01
Simulation CPU 0 panic: IPC 0.001401 < 0.01
Simulation CPU 0 panic: IPC 0.0014887 < 0.01
Simulation CPU 0 panic: IPC 0.0036257 < 0.01
Simulation CPU 0 panic: IPC 0.0005362 < 0.01
Simulation CPU 0 panic: IPC 0.0007185 < 0.01
Simulation CPU 0 panic: IPC 0.0031278 < 0.01
Simulation CPU 0 panic: IPC 0.0001112 < 0.01
Simulation CPU 0 panic: IPC 0.0063878 < 0.01
Simulation CPU 0 panic: IPC 0.0020873 < 0.01
Simulation CPU 0 panic: IPC 0.0009473 < 0.01
Simulation CPU 0 panic: IPC 0.0027472 < 0.01
Simulation CPU 0 panic: IPC 0.0023522 < 0.01
Simulation CPU 0 panic: IPC 0.0009493 < 0.01
Simulation CPU 0 panic: IPC 0.0005279 < 0.01
Simulation CPU 0 panic: IPC 0.0035134 < 0.01
Simulation CPU 0 panic: IPC 0.0055791 < 0.01
Simulation CPU 0 warning: IPC 0.039455 < 0.05
Heartbeat CPU 0 instructions: 50000005 cycles: 12321274543 heartbeat IPC: 0.005185 cumulative IPC: 0.004058 (Simulation time: 16 hr 52 min 50 sec)
Heartbeat CPU 0 instructions: 60000005 cycles: 12336374057 heartbeat IPC: 0.6623 cumulative IPC: 0.004864 (Simulation time: 16 hr 54 min 19 sec)
Heartbeat CPU 0 instructions: 70000005 cycles: 12352122641 heartbeat IPC: 0.635 cumulative IPC: 0.005667 (Simulation time: 16 hr 55 min 54 sec)
Heartbeat CPU 0 instructions: 80000007 cycles: 12361948509 heartbeat IPC: 1.018 cumulative IPC: 0.006471 (Simulation time: 16 hr 57 min 08 sec)
Heartbeat CPU 0 instructions: 90000007 cycles: 12372358170 heartbeat IPC: 0.9606 cumulative IPC: 0.007274 (Simulation time: 16 hr 58 min 28 sec)
Heartbeat CPU 0 instructions: 100000007 cycles: 12381659198 heartbeat IPC: 1.075 cumulative IPC: 0.008076 (Simulation time: 16 hr 59 min 39 sec)
Heartbeat CPU 0 instructions: 110000007 cycles: 12401429191 heartbeat IPC: 0.5058 cumulative IPC: 0.00887 (Simulation time: 17 hr 01 min 41 sec)
Heartbeat CPU 0 instructions: 120000009 cycles: 12414915977 heartbeat IPC: 0.7415 cumulative IPC: 0.009666 (Simulation time: 17 hr 03 min 00 sec)
Heartbeat CPU 0 instructions: 130000011 cycles: 12425540752 heartbeat IPC: 0.9412 cumulative IPC: 0.01046 (Simulation time: 17 hr 04 min 11 sec)
Simulation CPU 0 panic: IPC 0.001496 < 0.01
Simulation CPU 0 critical: IPC 0.017236 < 0.02
Simulation CPU 0 panic: IPC 0.0023152 < 0.01
Simulation CPU 0 warning: IPC 0.022467 < 0.05
Simulation CPU 0 critical: IPC 0.016963 < 0.02
Simulation CPU 0 panic: IPC 0.0039367 < 0.01
Simulation CPU 0 panic: IPC 0.0001088 < 0.01
Simulation CPU 0 critical: IPC 0.016886 < 0.02
Simulation CPU 0 panic: IPC 0.0035105 < 0.01
Simulation CPU 0 panic: IPC 0.0028688 < 0.01
Simulation CPU 0 panic: IPC 0.0045273 < 0.01
Simulation CPU 0 panic: IPC 0.0014785 < 0.01
Simulation CPU 0 panic: IPC 0.0093019 < 0.01
Simulation CPU 0 critical: IPC 0.012603 < 0.02
Simulation CPU 0 panic: IPC 0.0019676 < 0.01
Simulation CPU 0 panic: IPC 0.0079056 < 0.01
Simulation CPU 0 panic: IPC 6.29e-05 < 0.01
Simulation CPU 0 panic: IPC 0.0045969 < 0.01
Simulation CPU 0 panic: IPC 0.0067695 < 0.01
Simulation CPU 0 panic: IPC 0.0034548 < 0.01
Simulation CPU 0 panic: IPC 0.0087781 < 0.01
Simulation CPU 0 critical: IPC 0.014632 < 0.02
Simulation CPU 0 panic: IPC 0.0010875 < 0.01
Simulation CPU 0 panic: IPC 0.0010083 < 0.01
Simulation CPU 0 critical: IPC 0.015786 < 0.02
Simulation CPU 0 panic: IPC 0.0054135 < 0.01
Simulation CPU 0 critical: IPC 0.016559 < 0.02
Heartbeat CPU 0 instructions: 140000012 cycles: 12719829913 heartbeat IPC: 0.03398 cumulative IPC: 0.01101 (Simulation time: 17 hr 28 min 36 sec)
Simulation CPU 0 critical: IPC 0.01276 < 0.02
Simulation CPU 0 warning: IPC 0.022955 < 0.05
Simulation CPU 0 panic: IPC 0.0055436 < 0.01
Simulation CPU 0 critical: IPC 0.010477 < 0.02
Simulation CPU 0 panic: IPC 0.0039546 < 0.01
Simulation CPU 0 panic: IPC 0.0082611 < 0.01
Simulation CPU 0 panic: IPC 0.0066303 < 0.01
Simulation CPU 0 panic: IPC 0.0023496 < 0.01
Simulation CPU 0 panic: IPC 0.0063523 < 0.01
Simulation CPU 0 panic: IPC 0.0023258 < 0.01
Simulation CPU 0 panic: IPC 0.0068166 < 0.01
Simulation CPU 0 warning: IPC 0.02462 < 0.05
Simulation CPU 0 critical: IPC 0.017064 < 0.02
Simulation CPU 0 panic: IPC 0.0071573 < 0.01
Simulation CPU 0 warning: IPC 0.038399 < 0.05
Simulation CPU 0 panic: IPC 0.0009689 < 0.01
Simulation CPU 0 panic: IPC 0.0029348 < 0.01
Simulation CPU 0 critical: IPC 0.01162 < 0.02
Simulation CPU 0 critical: IPC 0.011349 < 0.02
Simulation CPU 0 panic: IPC 0.0039513 < 0.01
Simulation CPU 0 panic: IPC 0.009105 < 0.01
Simulation CPU 0 panic: IPC 0.0089175 < 0.01
Simulation CPU 0 panic: IPC 0.0090605 < 0.01
Simulation CPU 0 critical: IPC 0.013525 < 0.02
Simulation CPU 0 panic: IPC 0.0036368 < 0.01
Simulation CPU 0 critical: IPC 0.014236 < 0.02
Simulation CPU 0 panic: IPC 0.0028467 < 0.01
Simulation CPU 0 critical: IPC 0.013253 < 0.02
Heartbeat CPU 0 instructions: 150000014 cycles: 13004304124 heartbeat IPC: 0.03515 cumulative IPC: 0.01153 (Simulation time: 17 hr 51 min 34 sec)
Heartbeat CPU 0 instructions: 160000017 cycles: 13015304622 heartbeat IPC: 0.9091 cumulative IPC: 0.01229 (Simulation time: 17 hr 52 min 43 sec)
Heartbeat CPU 0 instructions: 170000020 cycles: 13023382296 heartbeat IPC: 1.238 cumulative IPC: 0.01305 (Simulation time: 17 hr 53 min 30 sec)
Heartbeat CPU 0 instructions: 180000022 cycles: 13052332646 heartbeat IPC: 0.3454 cumulative IPC: 0.01379 (Simulation time: 17 hr 56 min 04 sec)
Heartbeat CPU 0 instructions: 190000022 cycles: 13060838792 heartbeat IPC: 1.176 cumulative IPC: 0.01455 (Simulation time: 17 hr 56 min 49 sec)
Heartbeat CPU 0 instructions: 200000024 cycles: 13072113092 heartbeat IPC: 0.887 cumulative IPC: 0.0153 (Simulation time: 17 hr 57 min 47 sec)
Heartbeat CPU 0 instructions: 210000024 cycles: 13088679210 heartbeat IPC: 0.6036 cumulative IPC: 0.01604 (Simulation time: 17 hr 59 min 24 sec)
Heartbeat CPU 0 instructions: 220000024 cycles: 13110689386 heartbeat IPC: 0.4543 cumulative IPC: 0.01678 (Simulation time: 18 hr 01 min 21 sec)
Heartbeat CPU 0 instructions: 230000024 cycles: 13121147169 heartbeat IPC: 0.9562 cumulative IPC: 0.01753 (Simulation time: 18 hr 02 min 35 sec)
Heartbeat CPU 0 instructions: 240000024 cycles: 13132737175 heartbeat IPC: 0.8628 cumulative IPC: 0.01827 (Simulation time: 18 hr 03 min 51 sec)
Heartbeat CPU 0 instructions: 250000028 cycles: 13141327833 heartbeat IPC: 1.164 cumulative IPC: 0.01902 (Simulation time: 18 hr 04 min 57 sec)
Simulation CPU 0 panic: IPC 5.8e-06 < 0.01
Simulation CPU 0 panic: IPC 5.3e-06 < 0.01
Simulation CPU 0 panic: IPC 0.0061553 < 0.01
Simulation CPU 0 warning: IPC 0.038628 < 0.05
Simulation CPU 0 warning: IPC 0.034375 < 0.05
Simulation CPU 0 warning: IPC 0.022789 < 0.05
Simulation CPU 0 critical: IPC 0.018628 < 0.02
Simulation CPU 0 warning: IPC 0.03759 < 0.05
Simulation CPU 0 critical: IPC 0.019893 < 0.02
Simulation CPU 0 warning: IPC 0.025095 < 0.05
Heartbeat CPU 0 instructions: 260000028 cycles: 13310424615 heartbeat IPC: 0.05914 cumulative IPC: 0.01953 (Simulation time: 18 hr 17 min 46 sec)
Simulation CPU 0 warning: IPC 0.03335 < 0.05
Simulation CPU 0 panic: IPC 0.0084805 < 0.01
Simulation CPU 0 warning: IPC 0.024518 < 0.05
Simulation CPU 0 warning: IPC 0.034824 < 0.05
Heartbeat CPU 0 instructions: 270000028 cycles: 13424629131 heartbeat IPC: 0.08756 cumulative IPC: 0.02011 (Simulation time: 18 hr 26 min 29 sec)
Heartbeat CPU 0 instructions: 280000028 cycles: 13441612223 heartbeat IPC: 0.5888 cumulative IPC: 0.02083 (Simulation time: 18 hr 28 min 23 sec)
Heartbeat CPU 0 instructions: 290000029 cycles: 13458498876 heartbeat IPC: 0.5922 cumulative IPC: 0.02155 (Simulation time: 18 hr 30 min 14 sec)
Heartbeat CPU 0 instructions: 300000029 cycles: 13476708419 heartbeat IPC: 0.5492 cumulative IPC: 0.02226 (Simulation time: 18 hr 31 min 41 sec)
Heartbeat CPU 0 instructions: 310000030 cycles: 13487506851 heartbeat IPC: 0.9261 cumulative IPC: 0.02298 (Simulation time: 18 hr 32 min 52 sec)
Heartbeat CPU 0 instructions: 320000030 cycles: 13498192057 heartbeat IPC: 0.9359 cumulative IPC: 0.02371 (Simulation time: 18 hr 34 min 12 sec)
Heartbeat CPU 0 instructions: 330000032 cycles: 13521040346 heartbeat IPC: 0.4377 cumulative IPC: 0.02441 (Simulation time: 18 hr 36 min 39 sec)
Heartbeat CPU 0 instructions: 340000032 cycles: 13531741026 heartbeat IPC: 0.9345 cumulative IPC: 0.02513 (Simulation time: 18 hr 37 min 59 sec)
Heartbeat CPU 0 instructions: 350000032 cycles: 13539863677 heartbeat IPC: 1.231 cumulative IPC: 0.02585 (Simulation time: 18 hr 39 min 04 sec)
Heartbeat CPU 0 instructions: 360000032 cycles: 13560435305 heartbeat IPC: 0.4861 cumulative IPC: 0.02655 (Simulation time: 18 hr 41 min 18 sec)
Heartbeat CPU 0 instructions: 370000034 cycles: 13572782418 heartbeat IPC: 0.8099 cumulative IPC: 0.02726 (Simulation time: 18 hr 42 min 34 sec)
Heartbeat CPU 0 instructions: 380000034 cycles: 13582173594 heartbeat IPC: 1.065 cumulative IPC: 0.02798 (Simulation time: 18 hr 43 min 31 sec)
Heartbeat CPU 0 instructions: 390000034 cycles: 13606966545 heartbeat IPC: 0.4033 cumulative IPC: 0.02866 (Simulation time: 18 hr 45 min 56 sec)
Heartbeat CPU 0 instructions: 400000034 cycles: 13631151235 heartbeat IPC: 0.4135 cumulative IPC: 0.02934 (Simulation time: 18 hr 48 min 22 sec)
Heartbeat CPU 0 instructions: 410000034 cycles: 13641705580 heartbeat IPC: 0.9475 cumulative IPC: 0.03005 (Simulation time: 18 hr 49 min 40 sec)
Heartbeat CPU 0 instructions: 420000035 cycles: 13650592981 heartbeat IPC: 1.125 cumulative IPC: 0.03077 (Simulation time: 18 hr 50 min 48 sec)
Heartbeat CPU 0 instructions: 430000038 cycles: 13664152588 heartbeat IPC: 0.7375 cumulative IPC: 0.03147 (Simulation time: 18 hr 52 min 16 sec)
Heartbeat CPU 0 instructions: 440000041 cycles: 13696149076 heartbeat IPC: 0.3125 cumulative IPC: 0.03213 (Simulation time: 18 hr 54 min 47 sec)
Heartbeat CPU 0 instructions: 450000044 cycles: 13704603870 heartbeat IPC: 1.183 cumulative IPC: 0.03284 (Simulation time: 18 hr 55 min 52 sec)
Heartbeat CPU 0 instructions: 460000044 cycles: 13718053595 heartbeat IPC: 0.7435 cumulative IPC: 0.03353 (Simulation time: 18 hr 57 min 22 sec)
Heartbeat CPU 0 instructions: 470000044 cycles: 13726926449 heartbeat IPC: 1.127 cumulative IPC: 0.03424 (Simulation time: 18 hr 58 min 31 sec)
Heartbeat CPU 0 instructions: 480000045 cycles: 13736790792 heartbeat IPC: 1.014 cumulative IPC: 0.03494 (Simulation time: 18 hr 59 min 46 sec)
Heartbeat CPU 0 instructions: 490000046 cycles: 13762185069 heartbeat IPC: 0.3938 cumulative IPC: 0.0356 (Simulation time: 19 hr 02 min 03 sec)
Heartbeat CPU 0 instructions: 500000046 cycles: 13772228478 heartbeat IPC: 0.9957 cumulative IPC: 0.0363 (Simulation time: 19 hr 03 min 18 sec)
Heartbeat CPU 0 instructions: 510000047 cycles: 13783497820 heartbeat IPC: 0.8874 cumulative IPC: 0.037 (Simulation time: 19 hr 04 min 40 sec)
Heartbeat CPU 0 instructions: 520000048 cycles: 13792067867 heartbeat IPC: 1.167 cumulative IPC: 0.0377 (Simulation time: 19 hr 05 min 47 sec)
Heartbeat CPU 0 instructions: 530000052 cycles: 13802354599 heartbeat IPC: 0.9721 cumulative IPC: 0.0384 (Simulation time: 19 hr 07 min 05 sec)
Simulation CPU 0 panic: IPC 1.3e-06 < 0.01
Simulation CPU 0 panic: IPC 3.8e-06 < 0.01
Simulation CPU 0 panic: IPC 1.3e-06 < 0.01
Simulation CPU 0 panic: IPC 4.1e-06 < 0.01
Simulation CPU 0 panic: IPC 1.2e-06 < 0.01
Simulation CPU 0 warning: IPC 0.034925 < 0.05
Simulation CPU 0 critical: IPC 0.016405 < 0.02
Simulation CPU 0 warning: IPC 0.02656 < 0.05
Simulation CPU 0 panic: IPC 0.0018624 < 0.01
Simulation CPU 0 critical: IPC 0.014784 < 0.02
Simulation CPU 0 warning: IPC 0.044701 < 0.05
Simulation CPU 0 warning: IPC 0.032263 < 0.05
[ERROR_CYCLE] Error added at CPU cycle 13945248447, interval 3, pending count: 1
[DRAM_CYCLE_ERROR] Cycle-based error applied! address=0x475059a10 additional_latency=2459910500 cycles
Simulation CPU 0 panic: IPC 0 < 0.01
Simulation CPU 0 panic: IPC 0.0068826 < 0.01
Simulation CPU 0 warning: IPC 0.047257 < 0.05
Simulation CPU 0 warning: IPC 0.025788 < 0.05
Simulation CPU 0 warning: IPC 0.044531 < 0.05
Simulation CPU 0 panic: IPC 5.81e-05 < 0.01
Simulation CPU 0 warning: IPC 0.027268 < 0.05
Simulation CPU 0 critical: IPC 0.010337 < 0.02
Simulation CPU 0 warning: IPC 0.040249 < 0.05
Simulation CPU 0 critical: IPC 0.014793 < 0.02
Simulation CPU 0 critical: IPC 0.011298 < 0.02
Simulation CPU 0 warning: IPC 0.035708 < 0.05
Simulation CPU 0 critical: IPC 0.013475 < 0.02
Heartbeat CPU 0 instructions: 540000053 cycles: 14093551794 heartbeat IPC: 0.03434 cumulative IPC: 0.03832 (Simulation time: 19 hr 31 min 57 sec)
Simulation CPU 0 warning: IPC 0.034467 < 0.05
Simulation CPU 0 panic: IPC 0.0069732 < 0.01
Simulation CPU 0 warning: IPC 0.021373 < 0.05
Simulation CPU 0 warning: IPC 0.047834 < 0.05
Simulation CPU 0 warning: IPC 0.046107 < 0.05
Simulation CPU 0 critical: IPC 0.012036 < 0.02
Simulation CPU 0 panic: IPC 0.0038699 < 0.01
Simulation CPU 0 warning: IPC 0.035852 < 0.05
Simulation CPU 0 panic: IPC 0.003213 < 0.01
Simulation CPU 0 critical: IPC 0.014776 < 0.02
Simulation CPU 0 warning: IPC 0.042481 < 0.05
Simulation CPU 0 warning: IPC 0.024948 < 0.05
Simulation CPU 0 warning: IPC 0.044979 < 0.05
Simulation CPU 0 panic: IPC 0.0093349 < 0.01
Simulation CPU 0 warning: IPC 0.030843 < 0.05
Simulation CPU 0 warning: IPC 0.026509 < 0.05
Simulation CPU 0 panic: IPC 0.0010005 < 0.01
Simulation CPU 0 warning: IPC 0.042993 < 0.05
Simulation CPU 0 panic: IPC 0.001995 < 0.01
Simulation CPU 0 panic: IPC 0 < 0.01
Simulation CPU 0 critical: IPC 0.019849 < 0.02
Simulation CPU 0 warning: IPC 0.04462 < 0.05
Simulation CPU 0 critical: IPC 0.010106 < 0.02
Simulation CPU 0 critical: IPC 0.018078 < 0.02
Simulation CPU 0 critical: IPC 0.018059 < 0.02
Heartbeat CPU 0 instructions: 550000054 cycles: 14409134809 heartbeat IPC: 0.03169 cumulative IPC: 0.03817 (Simulation time: 19 hr 57 min 28 sec)
Simulation CPU 0 warning: IPC 0.032255 < 0.05
Simulation CPU 0 panic: IPC 0.0031207 < 0.01
Simulation CPU 0 warning: IPC 0.043922 < 0.05
Simulation CPU 0 critical: IPC 0.019525 < 0.02
Simulation CPU 0 critical: IPC 0.017992 < 0.02
Simulation CPU 0 warning: IPC 0.023667 < 0.05
Simulation CPU 0 warning: IPC 0.028302 < 0.05
Simulation CPU 0 critical: IPC 0.012512 < 0.02
Simulation CPU 0 warning: IPC 0.035295 < 0.05
Simulation CPU 0 warning: IPC 0.035148 < 0.05
Simulation CPU 0 critical: IPC 0.018185 < 0.02
Simulation CPU 0 critical: IPC 0.018405 < 0.02
Simulation CPU 0 critical: IPC 0.018158 < 0.02
Simulation CPU 0 critical: IPC 0.017726 < 0.02
Simulation CPU 0 critical: IPC 0.014411 < 0.02
Simulation CPU 0 warning: IPC 0.021798 < 0.05
Simulation CPU 0 critical: IPC 0.010878 < 0.02
Simulation CPU 0 warning: IPC 0.024586 < 0.05
Simulation CPU 0 critical: IPC 0.017296 < 0.02
Simulation CPU 0 warning: IPC 0.026737 < 0.05
Simulation CPU 0 critical: IPC 0.019242 < 0.02
Simulation CPU 0 critical: IPC 0.016679 < 0.02
Simulation CPU 0 warning: IPC 0.035373 < 0.05
Simulation CPU 0 panic: IPC 0.0001573 < 0.01
Simulation CPU 0 critical: IPC 0.019621 < 0.02
Heartbeat CPU 0 instructions: 560000054 cycles: 14720086660 heartbeat IPC: 0.03216 cumulative IPC: 0.03804 (Simulation time: 20 hr 21 min 14 sec)
Simulation CPU 0 warning: IPC 0.033308 < 0.05
Simulation CPU 0 warning: IPC 0.025707 < 0.05
Simulation CPU 0 critical: IPC 0.015364 < 0.02
Simulation CPU 0 warning: IPC 0.036629 < 0.05
Simulation CPU 0 critical: IPC 0.011111 < 0.02
Simulation CPU 0 warning: IPC 0.036228 < 0.05
Simulation CPU 0 critical: IPC 0.019228 < 0.02
Simulation CPU 0 warning: IPC 0.023432 < 0.05
Simulation CPU 0 critical: IPC 0.011719 < 0.02
Simulation CPU 0 critical: IPC 0.010524 < 0.02
Simulation CPU 0 panic: IPC 0.0078878 < 0.01
Simulation CPU 0 warning: IPC 0.026456 < 0.05
Simulation CPU 0 critical: IPC 0.018831 < 0.02
Simulation CPU 0 warning: IPC 0.033282 < 0.05
Simulation CPU 0 warning: IPC 0.030388 < 0.05
Simulation CPU 0 critical: IPC 0.018478 < 0.02
Simulation CPU 0 warning: IPC 0.022261 < 0.05
Simulation CPU 0 warning: IPC 0.036123 < 0.05
Simulation CPU 0 warning: IPC 0.025989 < 0.05
Simulation CPU 0 panic: IPC 0.0023976 < 0.01
Simulation CPU 0 warning: IPC 0.03435 < 0.05
Simulation CPU 0 warning: IPC 0.033582 < 0.05
Heartbeat CPU 0 instructions: 570000057 cycles: 14994776981 heartbeat IPC: 0.0364 cumulative IPC: 0.03801 (Simulation time: 20 hr 44 min 40 sec)
Simulation CPU 0 warning: IPC 0.042097 < 0.05
Simulation CPU 0 critical: IPC 0.019799 < 0.02
Simulation CPU 0 warning: IPC 0.02702 < 0.05
Simulation CPU 0 panic: IPC 0.0071088 < 0.01
Simulation CPU 0 critical: IPC 0.016481 < 0.02
Simulation CPU 0 warning: IPC 0.020736 < 0.05
Simulation CPU 0 critical: IPC 0.01748 < 0.02
Simulation CPU 0 critical: IPC 0.018102 < 0.02
Simulation CPU 0 warning: IPC 0.044109 < 0.05
Simulation CPU 0 warning: IPC 0.044658 < 0.05
Simulation CPU 0 warning: IPC 0.026924 < 0.05
Simulation CPU 0 warning: IPC 0.031409 < 0.05
Simulation CPU 0 critical: IPC 0.018697 < 0.02
Simulation CPU 0 warning: IPC 0.025066 < 0.05
Simulation CPU 0 warning: IPC 0.035617 < 0.05
Simulation CPU 0 warning: IPC 0.032509 < 0.05
Simulation CPU 0 critical: IPC 0.012886 < 0.02
Simulation CPU 0 warning: IPC 0.020668 < 0.05
Heartbeat CPU 0 instructions: 580000060 cycles: 15240929087 heartbeat IPC: 0.04063 cumulative IPC: 0.03806 (Simulation time: 21 hr 06 min 37 sec)
Simulation CPU 0 warning: IPC 0.036339 < 0.05
Simulation CPU 0 warning: IPC 0.029352 < 0.05
Simulation CPU 0 critical: IPC 0.015188 < 0.02
Simulation CPU 0 critical: IPC 0.016003 < 0.02
Simulation CPU 0 warning: IPC 0.041837 < 0.05
Simulation CPU 0 critical: IPC 0.01024 < 0.02
Simulation CPU 0 warning: IPC 0.026817 < 0.05
Simulation CPU 0 warning: IPC 0.040834 < 0.05
Simulation CPU 0 critical: IPC 0.011358 < 0.02
Simulation CPU 0 warning: IPC 0.024619 < 0.05
Simulation CPU 0 critical: IPC 0.017973 < 0.02
Simulation CPU 0 critical: IPC 0.016929 < 0.02
Simulation CPU 0 warning: IPC 0.029282 < 0.05
Simulation CPU 0 panic: IPC 0.002456 < 0.01
Simulation CPU 0 warning: IPC 0.029386 < 0.05
Simulation CPU 0 critical: IPC 0.013559 < 0.02
Simulation CPU 0 warning: IPC 0.035856 < 0.05
Simulation CPU 0 critical: IPC 0.016839 < 0.02
Simulation CPU 0 critical: IPC 0.017689 < 0.02
Heartbeat CPU 0 instructions: 590000060 cycles: 15506228864 heartbeat IPC: 0.03769 cumulative IPC: 0.03805 (Simulation time: 21 hr 28 min 31 sec)
Simulation CPU 0 panic: IPC 0.0041199 < 0.01
Simulation CPU 0 warning: IPC 0.027465 < 0.05
Simulation CPU 0 warning: IPC 0.04616 < 0.05
Simulation CPU 0 warning: IPC 0.024143 < 0.05
Simulation CPU 0 warning: IPC 0.033369 < 0.05
Simulation CPU 0 warning: IPC 0.047584 < 0.05
Simulation CPU 0 panic: IPC 0.0012692 < 0.01
Simulation CPU 0 warning: IPC 0.043996 < 0.05
Simulation CPU 0 critical: IPC 0.017149 < 0.02
Simulation CPU 0 warning: IPC 0.036749 < 0.05
Simulation CPU 0 panic: IPC 0.0068431 < 0.01
Simulation CPU 0 warning: IPC 0.048138 < 0.05
Simulation CPU 0 critical: IPC 0.019231 < 0.02
Simulation CPU 0 warning: IPC 0.025744 < 0.05
Simulation CPU 0 critical: IPC 0.018361 < 0.02
Simulation CPU 0 warning: IPC 0.024709 < 0.05
Simulation CPU 0 critical: IPC 0.011319 < 0.02
Simulation CPU 0 panic: IPC 3.64e-05 < 0.01
Simulation CPU 0 critical: IPC 0.011096 < 0.02
Simulation CPU 0 warning: IPC 0.047398 < 0.05
Simulation CPU 0 warning: IPC 0.048365 < 0.05
Heartbeat CPU 0 instructions: 600000061 cycles: 15780056688 heartbeat IPC: 0.03652 cumulative IPC: 0.03802 (Simulation time: 21 hr 51 min 57 sec)
Simulation CPU 0 critical: IPC 0.016943 < 0.02
Simulation CPU 0 warning: IPC 0.048775 < 0.05
Simulation CPU 0 warning: IPC 0.031075 < 0.05
Simulation CPU 0 critical: IPC 0.015344 < 0.02
Simulation CPU 0 panic: IPC 0.0054729 < 0.01
Simulation CPU 0 critical: IPC 0.017458 < 0.02
Simulation CPU 0 panic: IPC 0.0069889 < 0.01
Simulation CPU 0 warning: IPC 0.04136 < 0.05
Simulation CPU 0 warning: IPC 0.023481 < 0.05
Simulation CPU 0 critical: IPC 0.011574 < 0.02
Simulation CPU 0 warning: IPC 0.023846 < 0.05
Simulation CPU 0 critical: IPC 0.016907 < 0.02
Simulation CPU 0 critical: IPC 0.014379 < 0.02
Simulation CPU 0 panic: IPC 0.0013234 < 0.01
Simulation CPU 0 warning: IPC 0.044046 < 0.05
Simulation CPU 0 critical: IPC 0.012736 < 0.02
Simulation CPU 0 warning: IPC 0.029138 < 0.05
Simulation CPU 0 panic: IPC 0.000718 < 0.01
Simulation CPU 0 warning: IPC 0.027769 < 0.05
Simulation CPU 0 warning: IPC 0.02832 < 0.05
Simulation CPU 0 warning: IPC 0.046681 < 0.05
Simulation CPU 0 warning: IPC 0.046593 < 0.05
Simulation CPU 0 panic: IPC 0.0017862 < 0.01
Heartbeat CPU 0 instructions: 610000062 cycles: 16063395096 heartbeat IPC: 0.03529 cumulative IPC: 0.03797 (Simulation time: 22 hr 14 min 34 sec)
Simulation CPU 0 warning: IPC 0.037617 < 0.05
Simulation CPU 0 panic: IPC 0.0025563 < 0.01
Simulation CPU 0 warning: IPC 0.047126 < 0.05
Heartbeat CPU 0 instructions: 620000063 cycles: 16139926788 heartbeat IPC: 0.1307 cumulative IPC: 0.03841 (Simulation time: 22 hr 21 min 02 sec)
Heartbeat CPU 0 instructions: 630000066 cycles: 16178969804 heartbeat IPC: 0.2561 cumulative IPC: 0.03894 (Simulation time: 22 hr 24 min 26 sec)
Heartbeat CPU 0 instructions: 640000070 cycles: 16216361166 heartbeat IPC: 0.2674 cumulative IPC: 0.03947 (Simulation time: 22 hr 27 min 43 sec)
Heartbeat CPU 0 instructions: 650000070 cycles: 16259190727 heartbeat IPC: 0.2335 cumulative IPC: 0.03998 (Simulation time: 22 hr 30 min 55 sec)
Heartbeat CPU 0 instructions: 660000074 cycles: 16305917523 heartbeat IPC: 0.214 cumulative IPC: 0.04048 (Simulation time: 22 hr 34 min 42 sec)
Heartbeat CPU 0 instructions: 670000075 cycles: 16353339409 heartbeat IPC: 0.2109 cumulative IPC: 0.04097 (Simulation time: 22 hr 38 min 50 sec)
Heartbeat CPU 0 instructions: 680000077 cycles: 16399514775 heartbeat IPC: 0.2166 cumulative IPC: 0.04146 (Simulation time: 22 hr 42 min 45 sec)
Heartbeat CPU 0 instructions: 690000077 cycles: 16431942646 heartbeat IPC: 0.3084 cumulative IPC: 0.04199 (Simulation time: 22 hr 45 min 49 sec)
Heartbeat CPU 0 instructions: 700000079 cycles: 16447142229 heartbeat IPC: 0.6579 cumulative IPC: 0.04256 (Simulation time: 22 hr 47 min 19 sec)
Heartbeat CPU 0 instructions: 710000082 cycles: 16456404745 heartbeat IPC: 1.08 cumulative IPC: 0.04314 (Simulation time: 22 hr 48 min 30 sec)
Heartbeat CPU 0 instructions: 720000084 cycles: 16469335266 heartbeat IPC: 0.7734 cumulative IPC: 0.04372 (Simulation time: 22 hr 49 min 46 sec)
Heartbeat CPU 0 instructions: 730000085 cycles: 16480805772 heartbeat IPC: 0.8718 cumulative IPC: 0.04429 (Simulation time: 22 hr 50 min 55 sec)
Heartbeat CPU 0 instructions: 740000087 cycles: 16489239935 heartbeat IPC: 1.186 cumulative IPC: 0.04488 (Simulation time: 22 hr 51 min 51 sec)
Heartbeat CPU 0 instructions: 750000088 cycles: 16504817528 heartbeat IPC: 0.6419 cumulative IPC: 0.04544 (Simulation time: 22 hr 53 min 11 sec)
Heartbeat CPU 0 instructions: 760000089 cycles: 16513269450 heartbeat IPC: 1.183 cumulative IPC: 0.04602 (Simulation time: 22 hr 53 min 54 sec)
Heartbeat CPU 0 instructions: 770000091 cycles: 16522757313 heartbeat IPC: 1.054 cumulative IPC: 0.0466 (Simulation time: 22 hr 54 min 44 sec)
Heartbeat CPU 0 instructions: 780000093 cycles: 16536027684 heartbeat IPC: 0.7536 cumulative IPC: 0.04717 (Simulation time: 22 hr 56 min 15 sec)
Heartbeat CPU 0 instructions: 790000093 cycles: 16548788189 heartbeat IPC: 0.7837 cumulative IPC: 0.04774 (Simulation time: 22 hr 57 min 37 sec)
Heartbeat CPU 0 instructions: 800000093 cycles: 16575300403 heartbeat IPC: 0.3772 cumulative IPC: 0.04826 (Simulation time: 23 hr 00 min 22 sec)
Heartbeat CPU 0 instructions: 810000094 cycles: 16595495717 heartbeat IPC: 0.4952 cumulative IPC: 0.04881 (Simulation time: 23 hr 02 min 26 sec)
Heartbeat CPU 0 instructions: 820000094 cycles: 16609888234 heartbeat IPC: 0.6948 cumulative IPC: 0.04937 (Simulation time: 23 hr 04 min 05 sec)
Heartbeat CPU 0 instructions: 830000094 cycles: 16620547439 heartbeat IPC: 0.9382 cumulative IPC: 0.04994 (Simulation time: 23 hr 05 min 23 sec)
Heartbeat CPU 0 instructions: 840000097 cycles: 16645310498 heartbeat IPC: 0.4038 cumulative IPC: 0.05046 (Simulation time: 23 hr 07 min 42 sec)
Heartbeat CPU 0 instructions: 850000097 cycles: 16665030578 heartbeat IPC: 0.5071 cumulative IPC: 0.05101 (Simulation time: 23 hr 09 min 24 sec)
Heartbeat CPU 0 instructions: 860000100 cycles: 16676135876 heartbeat IPC: 0.9005 cumulative IPC: 0.05157 (Simulation time: 23 hr 10 min 38 sec)
Heartbeat CPU 0 instructions: 870000103 cycles: 16684222313 heartbeat IPC: 1.237 cumulative IPC: 0.05215 (Simulation time: 23 hr 11 min 38 sec)
Heartbeat CPU 0 instructions: 880000103 cycles: 16697656433 heartbeat IPC: 0.7444 cumulative IPC: 0.0527 (Simulation time: 23 hr 12 min 55 sec)
Heartbeat CPU 0 instructions: 890000103 cycles: 16707882771 heartbeat IPC: 0.9779 cumulative IPC: 0.05327 (Simulation time: 23 hr 14 min 04 sec)
[...]
Heartbeat CPU 0 instructions: 1110000135 cycles: 17108689791 heartbeat IPC: 0.9454 cumulative IPC: 0.06488 (Simulation time: 23 hr 52 min 23 sec)
Heartbeat CPU 0 instructions: 1120000135 cycles: 17118158858 heartbeat IPC: 1.056 cumulative IPC: 0.06543 (Simulation time: 23 hr 53 min 17 sec)
Heartbeat CPU 0 instructions: 1130000136 cycles: 17126369065 heartbeat IPC: 1.218 cumulative IPC: 0.06598 (Simulation time: 23 hr 54 min 12 sec)
Heartbeat CPU 0 instructions: 1140000137 cycles: 17149831537 heartbeat IPC: 0.4262 cumulative IPC: 0.06647 (Simulation time: 23 hr 56 min 24 sec)
Heartbeat CPU 0 instructions: 1150000137 cycles: 17160109732 heartbeat IPC: 0.9729 cumulative IPC: 0.06702 (Simulation time: 23 hr 57 min 31 sec)
Heartbeat CPU 0 instructions: 1160000139 cycles: 17176739238 heartbeat IPC: 0.6013 cumulative IPC: 0.06753 (Simulation time: 23 hr 59 min 10 sec)
Heartbeat CPU 0 instructions: 1170000141 cycles: 17185204512 heartbeat IPC: 1.181 cumulative IPC: 0.06808 (Simulation time: 23 hr 59 min 59 sec)
Heartbeat CPU 0 instructions: 1180000142 cycles: 17194981478 heartbeat IPC: 1.023 cumulative IPC: 0.06862 (Simulation time: 00 hr 01 min 01 sec)
Heartbeat CPU 0 instructions: 1190000146 cycles: 17224212912 heartbeat IPC: 0.3421 cumulative IPC: 0.06909 (Simulation time: 00 hr 03 min 49 sec)
Heartbeat CPU 0 instructions: 1200000147 cycles: 17233935649 heartbeat IPC: 1.029 cumulative IPC: 0.06963 (Simulation time: 00 hr 05 min 03 sec)
Heartbeat CPU 0 instructions: 1210000151 cycles: 17249041580 heartbeat IPC: 0.662 cumulative IPC: 0.07015 (Simulation time: 00 hr 06 min 49 sec)
Heartbeat CPU 0 instructions: 1220000151 cycles: 17263017261 heartbeat IPC: 0.7155 cumulative IPC: 0.07067 (Simulation time: 00 hr 08 min 10 sec)
Heartbeat CPU 0 instructions: 1230000154 cycles: 17270979099 heartbeat IPC: 1.256 cumulative IPC: 0.07122 (Simulation time: 00 hr 09 min 10 sec)
Heartbeat CPU 0 instructions: 1240000154 cycles: 17280682841 heartbeat IPC: 1.031 cumulative IPC: 0.07176 (Simulation time: 00 hr 10 min 24 sec)
Heartbeat CPU 0 instructions: 1250000157 cycles: 17301583254 heartbeat IPC: 0.4785 cumulative IPC: 0.07225 (Simulation time: 00 hr 12 min 26 sec)
Heartbeat CPU 0 instructions: 1260000157 cycles: 17310723513 heartbeat IPC: 1.094 cumulative IPC: 0.07279 (Simulation time: 00 hr 13 min 36 sec)
Heartbeat CPU 0 instructions: 1270000157 cycles: 17322887718 heartbeat IPC: 0.8221 cumulative IPC: 0.07331 (Simulation time: 00 hr 15 min 06 sec)
Heartbeat CPU 0 instructions: 1280000159 cycles: 17341494315 heartbeat IPC: 0.5374 cumulative IPC: 0.07381 (Simulation time: 00 hr 17 min 11 sec)
Heartbeat CPU 0 instructions: 1290000163 cycles: 17373166888 heartbeat IPC: 0.3157 cumulative IPC: 0.07425 (Simulation time: 00 hr 20 min 36 sec)
Heartbeat CPU 0 instructions: 1300000165 cycles: 17382290241 heartbeat IPC: 1.096 cumulative IPC: 0.07479 (Simulation time: 00 hr 21 min 49 sec)
Heartbeat CPU 0 instructions: 1310000166 cycles: 17391894857 heartbeat IPC: 1.041 cumulative IPC: 0.07532 (Simulation time: 00 hr 23 min 05 sec)
Heartbeat CPU 0 instructions: 1320000166 cycles: 17400139143 heartbeat IPC: 1.213 cumulative IPC: 0.07586 (Simulation time: 00 hr 24 min 14 sec)
Heartbeat CPU 0 instructions: 1330000167 cycles: 17420786022 heartbeat IPC: 0.4843 cumulative IPC: 0.07635 (Simulation time: 00 hr 26 min 32 sec)
Heartbeat CPU 0 instructions: 1340000168 cycles: 17456678115 heartbeat IPC: 0.2786 cumulative IPC: 0.07676 (Simulation time: 00 hr 30 min 10 sec)
Heartbeat CPU 0 instructions: 1350000171 cycles: 17478445594 heartbeat IPC: 0.4594 cumulative IPC: 0.07724 (Simulation time: 00 hr 32 min 07 sec)
Heartbeat CPU 0 instructions: 1360000171 cycles: 17487768853 heartbeat IPC: 1.073 cumulative IPC: 0.07777 (Simulation time: 00 hr 33 min 05 sec)
Heartbeat CPU 0 instructions: 1370000174 cycles: 17502322111 heartbeat IPC: 0.6871 cumulative IPC: 0.07828 (Simulation time: 00 hr 34 min 19 sec)
Heartbeat CPU 0 instructions: 1380000177 cycles: 17512497070 heartbeat IPC: 0.9828 cumulative IPC: 0.0788 (Simulation time: 00 hr 35 min 24 sec)
Heartbeat CPU 0 instructions: 1390000181 cycles: 17520744377 heartbeat IPC: 1.213 cumulative IPC: 0.07933 (Simulation time: 00 hr 36 min 07 sec)
Heartbeat CPU 0 instructions: 1400000181 cycles: 17530281821 heartbeat IPC: 1.048 cumulative IPC: 0.07986 (Simulation time: 00 hr 36 min 56 sec)
Heartbeat CPU 0 instructions: 1410000183 cycles: 17545699713 heartbeat IPC: 0.6486 cumulative IPC: 0.08036 (Simulation time: 00 hr 38 min 43 sec)
Heartbeat CPU 0 instructions: 1420000187 cycles: 17554888191 heartbeat IPC: 1.088 cumulative IPC: 0.08089 (Simulation time: 00 hr 39 min 53 sec)
Heartbeat CPU 0 instructions: 1430000189 cycles: 17563461857 heartbeat IPC: 1.166 cumulative IPC: 0.08142 (Simulation time: 00 hr 41 min 00 sec)
Heartbeat CPU 0 instructions: 1440000189 cycles: 17591005647 heartbeat IPC: 0.3631 cumulative IPC: 0.08186 (Simulation time: 00 hr 43 min 51 sec)
Heartbeat CPU 0 instructions: 1450000189 cycles: 17605090202 heartbeat IPC: 0.71 cumulative IPC: 0.08236 (Simulation time: 00 hr 45 min 30 sec)
Heartbeat CPU 0 instructions: 1460000191 cycles: 17614752642 heartbeat IPC: 1.035 cumulative IPC: 0.08289 (Simulation time: 00 hr 46 min 44 sec)
Heartbeat CPU 0 instructions: 1470000194 cycles: 17623722169 heartbeat IPC: 1.115 cumulative IPC: 0.08341 (Simulation time: 00 hr 47 min 54 sec)
Heartbeat CPU 0 instructions: 1480000194 cycles: 17633636276 heartbeat IPC: 1.009 cumulative IPC: 0.08393 (Simulation time: 00 hr 49 min 08 sec)
Heartbeat CPU 0 instructions: 1490000196 cycles: 17660575741 heartbeat IPC: 0.3712 cumulative IPC: 0.08437 (Simulation time: 00 hr 51 min 55 sec)
Heartbeat CPU 0 instructions: 1500000198 cycles: 17668871352 heartbeat IPC: 1.205 cumulative IPC: 0.0849 (Simulation time: 00 hr 52 min 59 sec)
Heartbeat CPU 0 instructions: 1510000201 cycles: 17677893548 heartbeat IPC: 1.108 cumulative IPC: 0.08542 (Simulation time: 00 hr 54 min 09 sec)
Heartbeat CPU 0 instructions: 1520000201 cycles: 17688136135 heartbeat IPC: 0.9763 cumulative IPC: 0.08593 (Simulation time: 00 hr 55 min 26 sec)
Heartbeat CPU 0 instructions: 1530000203 cycles: 17721926264 heartbeat IPC: 0.2959 cumulative IPC: 0.08633 (Simulation time: 00 hr 58 min 54 sec)
Heartbeat CPU 0 instructions: 1540000207 cycles: 17763756131 heartbeat IPC: 0.2391 cumulative IPC: 0.08669 (Simulation time: 01 hr 02 min 45 sec)
Heartbeat CPU 0 instructions: 1550000207 cycles: 17806581301 heartbeat IPC: 0.2335 cumulative IPC: 0.08705 (Simulation time: 01 hr 06 min 38 sec)
Heartbeat CPU 0 instructions: 1560000210 cycles: 17849183506 heartbeat IPC: 0.2347 cumulative IPC: 0.0874 (Simulation time: 01 hr 10 min 53 sec)
Heartbeat CPU 0 instructions: 1570000210 cycles: 17892510024 heartbeat IPC: 0.2308 cumulative IPC: 0.08775 (Simulation time: 01 hr 15 min 11 sec)
Heartbeat CPU 0 instructions: 1580000212 cycles: 17943992060 heartbeat IPC: 0.1942 cumulative IPC: 0.08805 (Simulation time: 01 hr 19 min 44 sec)
Heartbeat CPU 0 instructions: 1590000216 cycles: 17993270334 heartbeat IPC: 0.2029 cumulative IPC: 0.08837 (Simulation time: 01 hr 23 min 50 sec)
Heartbeat CPU 0 instructions: 1600000218 cycles: 18026482012 heartbeat IPC: 0.3011 cumulative IPC: 0.08876 (Simulation time: 01 hr 27 min 00 sec)
Heartbeat CPU 0 instructions: 1610000218 cycles: 18038089906 heartbeat IPC: 0.8615 cumulative IPC: 0.08926 (Simulation time: 01 hr 28 min 26 sec)
Heartbeat CPU 0 instructions: 1620000222 cycles: 18047376282 heartbeat IPC: 1.077 cumulative IPC: 0.08976 (Simulation time: 01 hr 29 min 38 sec)
Heartbeat CPU 0 instructions: 1630000223 cycles: 18064895376 heartbeat IPC: 0.5708 cumulative IPC: 0.09023 (Simulation time: 01 hr 31 min 14 sec)
Heartbeat CPU 0 instructions: 1640000224 cycles: 18074925350 heartbeat IPC: 0.997 cumulative IPC: 0.09073 (Simulation time: 01 hr 32 min 14 sec)
Heartbeat CPU 0 instructions: 1650000228 cycles: 18084815677 heartbeat IPC: 1.011 cumulative IPC: 0.09124 (Simulation time: 01 hr 33 min 02 sec)
Heartbeat CPU 0 instructions: 1660000230 cycles: 18097002495 heartbeat IPC: 0.8206 cumulative IPC: 0.09173 (Simulation time: 01 hr 34 min 20 sec)
Heartbeat CPU 0 instructions: 1670000231 cycles: 18124137193 heartbeat IPC: 0.3685 cumulative IPC: 0.09214 (Simulation time: 01 hr 37 min 07 sec)
Heartbeat CPU 0 instructions: 1680000231 cycles: 18146968570 heartbeat IPC: 0.438 cumulative IPC: 0.09258 (Simulation time: 01 hr 39 min 29 sec)
Heartbeat CPU 0 instructions: 1690000231 cycles: 18155401183 heartbeat IPC: 1.186 cumulative IPC: 0.09309 (Simulation time: 01 hr 40 min 30 sec)
Heartbeat CPU 0 instructions: 1700000232 cycles: 18168195590 heartbeat IPC: 0.7816 cumulative IPC: 0.09357 (Simulation time: 01 hr 41 min 56 sec)
Heartbeat CPU 0 instructions: 1710000233 cycles: 18179644228 heartbeat IPC: 0.8735 cumulative IPC: 0.09406 (Simulation time: 01 hr 43 min 17 sec)
Heartbeat CPU 0 instructions: 1720000233 cycles: 18189732407 heartbeat IPC: 0.9913 cumulative IPC: 0.09456 (Simulation time: 01 hr 44 min 31 sec)
Heartbeat CPU 0 instructions: 1730000235 cycles: 18198353719 heartbeat IPC: 1.16 cumulative IPC: 0.09506 (Simulation time: 01 hr 45 min 36 sec)
Heartbeat CPU 0 instructions: 1740000235 cycles: 18217396715 heartbeat IPC: 0.5251 cumulative IPC: 0.09551 (Simulation time: 01 hr 47 min 27 sec)
Heartbeat CPU 0 instructions: 1750000236 cycles: 18226037209 heartbeat IPC: 1.157 cumulative IPC: 0.09602 (Simulation time: 01 hr 48 min 15 sec)
Heartbeat CPU 0 instructions: 1760000236 cycles: 18239296805 heartbeat IPC: 0.7542 cumulative IPC: 0.09649 (Simulation time: 01 hr 49 min 31 sec)
Heartbeat CPU 0 instructions: 1770000237 cycles: 18249157764 heartbeat IPC: 1.014 cumulative IPC: 0.09699 (Simulation time: 01 hr 50 min 45 sec)
Heartbeat CPU 0 instructions: 1780000237 cycles: 18269841145 heartbeat IPC: 0.4835 cumulative IPC: 0.09743 (Simulation time: 01 hr 52 min 32 sec)
Heartbeat CPU 0 instructions: 1790000238 cycles: 18317755279 heartbeat IPC: 0.2087 cumulative IPC: 0.09772 (Simulation time: 01 hr 56 min 39 sec)
Heartbeat CPU 0 instructions: 1800000240 cycles: 18339930770 heartbeat IPC: 0.4509 cumulative IPC: 0.09815 (Simulation time: 01 hr 58 min 24 sec)
Heartbeat CPU 0 instructions: 1810000240 cycles: 18349804317 heartbeat IPC: 1.013 cumulative IPC: 0.09864 (Simulation time: 01 hr 59 min 14 sec)
Heartbeat CPU 0 instructions: 1820000242 cycles: 18369759296 heartbeat IPC: 0.5011 cumulative IPC: 0.09908 (Simulation time: 02 hr 01 min 21 sec)
Heartbeat CPU 0 instructions: 1830000243 cycles: 18379480892 heartbeat IPC: 1.029 cumulative IPC: 0.09957 (Simulation time: 02 hr 02 min 36 sec)
Heartbeat CPU 0 instructions: 1840000243 cycles: 18387317852 heartbeat IPC: 1.276 cumulative IPC: 0.1001 (Simulation time: 02 hr 03 min 40 sec)
Heartbeat CPU 0 instructions: 1850000243 cycles: 18397225862 heartbeat IPC: 1.009 cumulative IPC: 0.1006 (Simulation time: 02 hr 04 min 55 sec)
Heartbeat CPU 0 instructions: 1860000245 cycles: 18412300960 heartbeat IPC: 0.6633 cumulative IPC: 0.101 (Simulation time: 02 hr 06 min 38 sec)
Heartbeat CPU 0 instructions: 1870000249 cycles: 18427920780 heartbeat IPC: 0.6402 cumulative IPC: 0.1015 (Simulation time: 02 hr 08 min 13 sec)
Heartbeat CPU 0 instructions: 1880000253 cycles: 18436719239 heartbeat IPC: 1.137 cumulative IPC: 0.102 (Simulation time: 02 hr 09 min 17 sec)
Heartbeat CPU 0 instructions: 1890000255 cycles: 18453475771 heartbeat IPC: 0.5968 cumulative IPC: 0.1024 (Simulation time: 02 hr 11 min 10 sec)
Heartbeat CPU 0 instructions: 1900000258 cycles: 18461979898 heartbeat IPC: 1.176 cumulative IPC: 0.1029 (Simulation time: 02 hr 12 min 18 sec)
Heartbeat CPU 0 instructions: 1910000258 cycles: 18472893826 heartbeat IPC: 0.9163 cumulative IPC: 0.1034 (Simulation time: 02 hr 13 min 39 sec)
Heartbeat CPU 0 instructions: 1920000259 cycles: 18482337336 heartbeat IPC: 1.059 cumulative IPC: 0.1039 (Simulation time: 02 hr 14 min 50 sec)
Heartbeat CPU 0 instructions: 1930000261 cycles: 18498244260 heartbeat IPC: 0.6287 cumulative IPC: 0.1043 (Simulation time: 02 hr 16 min 41 sec)
Heartbeat CPU 0 instructions: 1940000262 cycles: 18507063798 heartbeat IPC: 1.134 cumulative IPC: 0.1048 (Simulation time: 02 hr 17 min 51 sec)
Heartbeat CPU 0 instructions: 1950000265 cycles: 18519138783 heartbeat IPC: 0.8282 cumulative IPC: 0.1053 (Simulation time: 02 hr 18 min 56 sec)
Heartbeat CPU 0 instructions: 1960000268 cycles: 18529337048 heartbeat IPC: 0.9806 cumulative IPC: 0.1058 (Simulation time: 02 hr 19 min 57 sec)
Heartbeat CPU 0 instructions: 1970000270 cycles: 18555086318 heartbeat IPC: 0.3884 cumulative IPC: 0.1062 (Simulation time: 02 hr 22 min 18 sec)
[ERROR_CYCLE] Error added at CPU cycle 18593664597, interval 4, pending count: 1
[DRAM_CYCLE_ERROR] Cycle-based error applied! address=0xf84f0a0c0 additional_latency=2459910500 cycles
Heartbeat CPU 0 instructions: 1980000271 cycles: 18612550264 heartbeat IPC: 0.174 cumulative IPC: 0.1064 (Simulation time: 02 hr 27 min 14 sec)
Heartbeat CPU 0 instructions: 1990000271 cycles: 18660697493 heartbeat IPC: 0.2077 cumulative IPC: 0.1066 (Simulation time: 02 hr 31 min 54 sec)

=== ERROR PAGE STATISTICS ===
Mode: CYCLE
Error Cycle Interval: 4648416149 CPU cycles
Total Error Accesses: 4
==============================
Simulation finished CPU 0 instructions: 1999999938 cycles: 18705050106 cumulative IPC: 0.1069 (Simulation time: 02 hr 36 min 09 sec)
Simulation complete CPU 0 instructions: 1999999938 cycles: 18705050106 cumulative IPC: 0.1069 (Simulation time: 02 hr 36 min 09 sec)

ChampSim completed all CPUs

=== Simulation ===
CPU 0 runs test_traces/605.mcf_s-994B.champsimtrace.xz

Region of Interest Statistics

CPU 0 cumulative IPC: 0.1069 instructions: 1999999938 cycles: 18705050106
CPU 0 Branch Prediction Accuracy: 92.62% MPKI: 18.99 Average ROB Occupancy at Mispredict: 32.67
Branch type MPKI
BRANCH_DIRECT_JUMP: 0.123
BRANCH_INDIRECT: 0
BRANCH_CONDITIONAL: 18.86
BRANCH_DIRECT_CALL: 6.5e-06
BRANCH_INDIRECT_CALL: 0.0004185
BRANCH_RETURN: 1e-05

cpu0->cpu0_STLB TOTAL        ACCESS:    6367256 HIT:    6361312 MISS:       5944 MSHR_MERGE:          0
cpu0->cpu0_STLB LOAD         ACCESS:    6367256 HIT:    6361312 MISS:       5944 MSHR_MERGE:          0
cpu0->cpu0_STLB RFO          ACCESS:          0 HIT:          0 MISS:          0 MSHR_MERGE:          0
cpu0->cpu0_STLB PREFETCH     ACCESS:          0 HIT:          0 MISS:          0 MSHR_MERGE:          0
cpu0->cpu0_STLB WRITE        ACCESS:          0 HIT:          0 MISS:          0 MSHR_MERGE:          0
cpu0->cpu0_STLB TRANSLATION  ACCESS:          0 HIT:          0 MISS:          0 MSHR_MERGE:          0
cpu0->cpu0_STLB PREFETCH REQUESTED:          0 ISSUED:          0 USEFUL:          0 USELESS:          0
cpu0->cpu0_STLB AVERAGE MISS LATENCY: 2.667e+06 cycles
cpu0->cpu0_L2C TOTAL        ACCESS:   81180899 HIT:   27540094 MISS:   53640805 MSHR_MERGE:          0
cpu0->cpu0_L2C LOAD         ACCESS:   75043352 HIT:   21467001 MISS:   53576351 MSHR_MERGE:          0
cpu0->cpu0_L2C RFO          ACCESS:     492551 HIT:     432381 MISS:      60170 MSHR_MERGE:          0
cpu0->cpu0_L2C PREFETCH     ACCESS:          0 HIT:          0 MISS:          0 MSHR_MERGE:          0
cpu0->cpu0_L2C WRITE        ACCESS:    5644996 HIT:    5640712 MISS:       4284 MSHR_MERGE:          0
cpu0->cpu0_L2C TRANSLATION  ACCESS:          0 HIT:          0 MISS:          0 MSHR_MERGE:          0
cpu0->cpu0_L2C PREFETCH REQUESTED:          0 ISSUED:          0 USEFUL:          0 USELESS:          0
cpu0->cpu0_L2C AVERAGE MISS LATENCY: 94.6 cycles
cpu0->cpu0_L1I TOTAL        ACCESS:    2878680 HIT:    2878589 MISS:         91 MSHR_MERGE:         25
cpu0->cpu0_L1I LOAD         ACCESS:    2878680 HIT:    2878589 MISS:         91 MSHR_MERGE:         25
cpu0->cpu0_L1I RFO          ACCESS:          0 HIT:          0 MISS:          0 MSHR_MERGE:          0
cpu0->cpu0_L1I PREFETCH     ACCESS:          0 HIT:          0 MISS:          0 MSHR_MERGE:          0
cpu0->cpu0_L1I WRITE        ACCESS:          0 HIT:          0 MISS:          0 MSHR_MERGE:          0
cpu0->cpu0_L1I TRANSLATION  ACCESS:          0 HIT:          0 MISS:          0 MSHR_MERGE:          0
cpu0->cpu0_L1I PREFETCH REQUESTED:          0 ISSUED:          0 USEFUL:          0 USELESS:          0
cpu0->cpu0_L1I AVERAGE MISS LATENCY: 103.9 cycles
cpu0->cpu0_L1D TOTAL        ACCESS:  810615732 HIT:  728260795 MISS:   82354937 MSHR_MERGE:    6817973
cpu0->cpu0_L1D LOAD         ACCESS:  610032068 HIT:  529053705 MISS:   80978363 MSHR_MERGE:    5935056
cpu0->cpu0_L1D RFO          ACCESS:          0 HIT:          0 MISS:          0 MSHR_MERGE:          0
cpu0->cpu0_L1D PREFETCH     ACCESS:          0 HIT:          0 MISS:          0 MSHR_MERGE:          0
cpu0->cpu0_L1D WRITE        ACCESS:  200583664 HIT:  199207090 MISS:    1376574 MSHR_MERGE:     882917
cpu0->cpu0_L1D TRANSLATION  ACCESS:          0 HIT:          0 MISS:          0 MSHR_MERGE:          0
cpu0->cpu0_L1D PREFETCH REQUESTED:          0 ISSUED:          0 USEFUL:          0 USELESS:          0
cpu0->cpu0_L1D AVERAGE MISS LATENCY: 76.02 cycles
cpu0->cpu0_ITLB TOTAL        ACCESS:    2728101 HIT:    2728100 MISS:          1 MSHR_MERGE:          0
cpu0->cpu0_ITLB LOAD         ACCESS:    2728101 HIT:    2728100 MISS:          1 MSHR_MERGE:          0
cpu0->cpu0_ITLB RFO          ACCESS:          0 HIT:          0 MISS:          0 MSHR_MERGE:          0
cpu0->cpu0_ITLB PREFETCH     ACCESS:          0 HIT:          0 MISS:          0 MSHR_MERGE:          0
cpu0->cpu0_ITLB WRITE        ACCESS:          0 HIT:          0 MISS:          0 MSHR_MERGE:          0
cpu0->cpu0_ITLB TRANSLATION  ACCESS:          0 HIT:          0 MISS:          0 MSHR_MERGE:          0
cpu0->cpu0_ITLB PREFETCH REQUESTED:          0 ISSUED:          0 USEFUL:          0 USELESS:          0
cpu0->cpu0_ITLB AVERAGE MISS LATENCY: 1.848e+07 cycles
cpu0->cpu0_DTLB TOTAL        ACCESS:  706559806 HIT:  699648384 MISS:    6911422 MSHR_MERGE:     544167
cpu0->cpu0_DTLB LOAD         ACCESS:  706559806 HIT:  699648384 MISS:    6911422 MSHR_MERGE:     544167
cpu0->cpu0_DTLB RFO          ACCESS:          0 HIT:          0 MISS:          0 MSHR_MERGE:          0
cpu0->cpu0_DTLB PREFETCH     ACCESS:          0 HIT:          0 MISS:          0 MSHR_MERGE:          0
cpu0->cpu0_DTLB WRITE        ACCESS:          0 HIT:          0 MISS:          0 MSHR_MERGE:          0
cpu0->cpu0_DTLB TRANSLATION  ACCESS:          0 HIT:          0 MISS:          0 MSHR_MERGE:          0
cpu0->cpu0_DTLB PREFETCH REQUESTED:          0 ISSUED:          0 USEFUL:          0 USELESS:          0
cpu0->cpu0_DTLB AVERAGE MISS LATENCY: 2492 cycles
cpu0->LLC TOTAL        ACCESS:   57571117 HIT:   16528567 MISS:   41042550 MSHR_MERGE:          0
cpu0->LLC LOAD         ACCESS:   53576351 HIT:   12553511 MISS:   41022840 MSHR_MERGE:          0
cpu0->LLC RFO          ACCESS:      60170 HIT:      41695 MISS:      18475 MSHR_MERGE:          0
cpu0->LLC PREFETCH     ACCESS:          0 HIT:          0 MISS:          0 MSHR_MERGE:          0
cpu0->LLC WRITE        ACCESS:    3934596 HIT:    3933361 MISS:       1235 MSHR_MERGE:          0
cpu0->LLC TRANSLATION  ACCESS:          0 HIT:          0 MISS:          0 MSHR_MERGE:          0
cpu0->LLC PREFETCH REQUESTED:          0 ISSUED:          0 USEFUL:          0 USELESS:          0
cpu0->LLC AVERAGE MISS LATENCY: 103 cycles

DRAM Statistics

Channel 0 RQ ROW_BUFFER_HIT:     274108
  ROW_BUFFER_MISS:   20253200
  AVG DBUS CONGESTED CYCLE: 9.314
Channel 0 WQ ROW_BUFFER_HIT:     330696
  ROW_BUFFER_MISS:    1236943
  FULL:          0
Channel 0 REFRESHES ISSUED:    1558654

Channel 1 RQ ROW_BUFFER_HIT:     274587
  ROW_BUFFER_MISS:   20251266
  AVG DBUS CONGESTED CYCLE: 9.315
Channel 1 WQ ROW_BUFFER_HIT:     331149
  ROW_BUFFER_MISS:    1236852
  FULL:          0
Channel 1 REFRESHES ISSUED:    1558654
