
*** ChampSim Multicore Out-of-Order Simulator ***
Warmup Instructions: 0
Simulation Instructions: 9223372036854775807
Number of CPUs: 1
Page size: 2097152

Off-chip DRAM Size: 128 GiB Channels: 2 Width: 32-bit Data Rate: 4807 MT/s
[ERROR_PAGE_MANAGER] Error latency: 1990500 
[ERROR_PAGE_MANAGER] Random seed: 54321 (fixed for preload reproducibility)
[ERROR_PAGE_MANAGER] Cycle-based error modeling enabled
[ERROR_PAGE_MANAGER] Errors per interval: 1
[ERROR_PAGE_MANAGER] Error cycle interval: 80000000 cycles

=== ERROR PAGE STATISTICS ===
Mode: CYCLE
Error Cycle Interval: 80000000 CPU cycles
Total Error Accesses: 0
==============================
Warmup finished CPU 0 instructions: 0 cycles: 1 cumulative IPC: 0 (Simulation time: 00 hr 00 min 00 sec)
Warmup complete CPU 0 instructions: 0 cycles: 1 cumulative IPC: 0 (Simulation time: 00 hr 00 min 00 sec)
Heartbeat CPU 0 instructions: 10000002 cycles: 26599294 heartbeat IPC: 0.3759 cumulative IPC: 0.3759 (Simulation time: 00 hr 02 min 41 sec)
Heartbeat CPU 0 instructions: 20000002 cycles: 53024441 heartbeat IPC: 0.3784 cumulative IPC: 0.3772 (Simulation time: 00 hr 05 min 21 sec)
[ERROR_CYCLE] Error added at CPU cycle 57022446, next at 73226450, pending count: 1
[DRAM_CYCLE_ERROR] Cycle-based error applied! address=0x83af08840 additional_latency=1990500 cycles
[ERROR_CYCLE] Error added at CPU cycle 73226451, next at 205568512, pending count: 1
[DRAM_CYCLE_ERROR] Cycle-based error applied! address=0xd0dd12e88 additional_latency=1990500 cycles
Heartbeat CPU 0 instructions: 30000004 cycles: 79437685 heartbeat IPC: 0.3786 cumulative IPC: 0.3777 (Simulation time: 00 hr 08 min 02 sec)
Heartbeat CPU 0 instructions: 40000005 cycles: 105913808 heartbeat IPC: 0.3777 cumulative IPC: 0.3777 (Simulation time: 00 hr 10 min 42 sec)
Heartbeat CPU 0 instructions: 50000009 cycles: 132312544 heartbeat IPC: 0.3788 cumulative IPC: 0.3779 (Simulation time: 00 hr 13 min 23 sec)
Heartbeat CPU 0 instructions: 60000012 cycles: 158742323 heartbeat IPC: 0.3784 cumulative IPC: 0.378 (Simulation time: 00 hr 15 min 53 sec)
Heartbeat CPU 0 instructions: 70000012 cycles: 185218112 heartbeat IPC: 0.3777 cumulative IPC: 0.3779 (Simulation time: 00 hr 18 min 34 sec)
[ERROR_CYCLE] Error added at CPU cycle 205568513, next at 427741518, pending count: 1
[DRAM_CYCLE_ERROR] Cycle-based error applied! address=0xa9d61fed0 additional_latency=1990500 cycles
Heartbeat CPU 0 instructions: 80000016 cycles: 211764538 heartbeat IPC: 0.3767 cumulative IPC: 0.3778 (Simulation time: 00 hr 21 min 14 sec)
Heartbeat CPU 0 instructions: 90000018 cycles: 238187766 heartbeat IPC: 0.3785 cumulative IPC: 0.3779 (Simulation time: 00 hr 23 min 14 sec)
Heartbeat CPU 0 instructions: 100000020 cycles: 264558598 heartbeat IPC: 0.3792 cumulative IPC: 0.378 (Simulation time: 00 hr 25 min 52 sec)
Heartbeat CPU 0 instructions: 110000020 cycles: 291019321 heartbeat IPC: 0.3779 cumulative IPC: 0.378 (Simulation time: 00 hr 28 min 05 sec)
Heartbeat CPU 0 instructions: 120000024 cycles: 317485710 heartbeat IPC: 0.3778 cumulative IPC: 0.378 (Simulation time: 00 hr 30 min 06 sec)
Heartbeat CPU 0 instructions: 130000024 cycles: 343959160 heartbeat IPC: 0.3777 cumulative IPC: 0.378 (Simulation time: 00 hr 32 min 21 sec)
Heartbeat CPU 0 instructions: 140000027 cycles: 370326446 heartbeat IPC: 0.3793 cumulative IPC: 0.378 (Simulation time: 00 hr 34 min 54 sec)
Heartbeat CPU 0 instructions: 150000029 cycles: 396695911 heartbeat IPC: 0.3792 cumulative IPC: 0.3781 (Simulation time: 00 hr 36 min 49 sec)
Heartbeat CPU 0 instructions: 160000031 cycles: 423163684 heartbeat IPC: 0.3778 cumulative IPC: 0.3781 (Simulation time: 00 hr 39 min 05 sec)
[ERROR_CYCLE] Error added at CPU cycle 427741518, next at 430145799, pending count: 1
[DRAM_CYCLE_ERROR] Cycle-based error applied! address=0x1811e8ec20 additional_latency=1990500 cycles
[ERROR_CYCLE] Error added at CPU cycle 430145800, next at 553109136, pending count: 1
[DRAM_CYCLE_ERROR] Cycle-based error applied! address=0x1811fbc200 additional_latency=1990500 cycles
Heartbeat CPU 0 instructions: 170000034 cycles: 449573694 heartbeat IPC: 0.3786 cumulative IPC: 0.3781 (Simulation time: 00 hr 41 min 32 sec)
Heartbeat CPU 0 instructions: 180000036 cycles: 475972614 heartbeat IPC: 0.3788 cumulative IPC: 0.3782 (Simulation time: 00 hr 43 min 49 sec)
Heartbeat CPU 0 instructions: 190000039 cycles: 502474468 heartbeat IPC: 0.3773 cumulative IPC: 0.3781 (Simulation time: 00 hr 46 min 11 sec)
Heartbeat CPU 0 instructions: 200000040 cycles: 528843231 heartbeat IPC: 0.3792 cumulative IPC: 0.3782 (Simulation time: 00 hr 48 min 44 sec)
[ERROR_CYCLE] Error added at CPU cycle 553109137, next at 567427547, pending count: 1
[DRAM_CYCLE_ERROR] Cycle-based error applied! address=0x1f4a2862c0 additional_latency=1990500 cycles
Heartbeat CPU 0 instructions: 210000042 cycles: 555229799 heartbeat IPC: 0.379 cumulative IPC: 0.3782 (Simulation time: 00 hr 51 min 20 sec)
[ERROR_CYCLE] Error added at CPU cycle 567427547, next at 612939373, pending count: 1
[DRAM_CYCLE_ERROR] Cycle-based error applied! address=0x19e1c37888 additional_latency=1990500 cycles
Heartbeat CPU 0 instructions: 220000045 cycles: 581689294 heartbeat IPC: 0.3779 cumulative IPC: 0.3782 (Simulation time: 00 hr 53 min 55 sec)
Heartbeat CPU 0 instructions: 230000046 cycles: 608112218 heartbeat IPC: 0.3785 cumulative IPC: 0.3782 (Simulation time: 00 hr 56 min 25 sec)
[ERROR_CYCLE] Error added at CPU cycle 612939373, next at 681254883, pending count: 1
[DRAM_CYCLE_ERROR] Cycle-based error applied! address=0x13c144ba08 additional_latency=1990500 cycles
Heartbeat CPU 0 instructions: 240000047 cycles: 634556852 heartbeat IPC: 0.3781 cumulative IPC: 0.3782 (Simulation time: 00 hr 58 min 47 sec)
Heartbeat CPU 0 instructions: 250000047 cycles: 660945112 heartbeat IPC: 0.379 cumulative IPC: 0.3782 (Simulation time: 01 hr 01 min 05 sec)
[ERROR_CYCLE] Error added at CPU cycle 681254883, next at 700827009, pending count: 1
[DRAM_CYCLE_ERROR] Cycle-based error applied! address=0x185503c360 additional_latency=1990500 cycles
Heartbeat CPU 0 instructions: 260000051 cycles: 687393141 heartbeat IPC: 0.3781 cumulative IPC: 0.3782 (Simulation time: 01 hr 03 min 27 sec)
[ERROR_CYCLE] Error added at CPU cycle 700827009, next at 842903644, pending count: 1
[DRAM_CYCLE_ERROR] Cycle-based error applied! address=0x1d19359720 additional_latency=1990500 cycles
Heartbeat CPU 0 instructions: 270000051 cycles: 713841687 heartbeat IPC: 0.3781 cumulative IPC: 0.3782 (Simulation time: 01 hr 06 min 09 sec)
Heartbeat CPU 0 instructions: 280000052 cycles: 740252120 heartbeat IPC: 0.3786 cumulative IPC: 0.3782 (Simulation time: 01 hr 08 min 51 sec)
Heartbeat CPU 0 instructions: 290000052 cycles: 766638318 heartbeat IPC: 0.379 cumulative IPC: 0.3783 (Simulation time: 01 hr 11 min 33 sec)
Heartbeat CPU 0 instructions: 300000056 cycles: 793030656 heartbeat IPC: 0.3789 cumulative IPC: 0.3783 (Simulation time: 01 hr 14 min 15 sec)
Heartbeat CPU 0 instructions: 310000056 cycles: 819439021 heartbeat IPC: 0.3787 cumulative IPC: 0.3783 (Simulation time: 01 hr 16 min 57 sec)
[ERROR_CYCLE] Error added at CPU cycle 842903644, next at 871385107, pending count: 1
[DRAM_CYCLE_ERROR] Cycle-based error applied! address=0x6dc6c6460 additional_latency=1990500 cycles
Heartbeat CPU 0 instructions: 320000059 cycles: 845863870 heartbeat IPC: 0.3784 cumulative IPC: 0.3783 (Simulation time: 01 hr 19 min 35 sec)
[ERROR_CYCLE] Error added at CPU cycle 871385107, next at 907191996, pending count: 1
[DRAM_CYCLE_ERROR] Cycle-based error applied! address=0x1a308c3e88 additional_latency=1990500 cycles
Heartbeat CPU 0 instructions: 330000059 cycles: 872277859 heartbeat IPC: 0.3786 cumulative IPC: 0.3783 (Simulation time: 01 hr 21 min 57 sec)
Heartbeat CPU 0 instructions: 340000061 cycles: 898714572 heartbeat IPC: 0.3783 cumulative IPC: 0.3783 (Simulation time: 01 hr 24 min 12 sec)
[ERROR_CYCLE] Error added at CPU cycle 907191996, next at 1070014685, pending count: 1
[DRAM_CYCLE_ERROR] Cycle-based error applied! address=0x11f3410608 additional_latency=1990500 cycles
Heartbeat CPU 0 instructions: 350000063 cycles: 925116246 heartbeat IPC: 0.3788 cumulative IPC: 0.3783 (Simulation time: 01 hr 26 min 08 sec)
Heartbeat CPU 0 instructions: 360000064 cycles: 951502968 heartbeat IPC: 0.379 cumulative IPC: 0.3783 (Simulation time: 01 hr 28 min 04 sec)
Heartbeat CPU 0 instructions: 370000067 cycles: 977877024 heartbeat IPC: 0.3792 cumulative IPC: 0.3784 (Simulation time: 01 hr 30 min 25 sec)
Heartbeat CPU 0 instructions: 380000068 cycles: 1004339214 heartbeat IPC: 0.3779 cumulative IPC: 0.3784 (Simulation time: 01 hr 33 min 01 sec)
Heartbeat CPU 0 instructions: 390000071 cycles: 1030785783 heartbeat IPC: 0.3781 cumulative IPC: 0.3784 (Simulation time: 01 hr 35 min 44 sec)
Heartbeat CPU 0 instructions: 400000074 cycles: 1057237812 heartbeat IPC: 0.378 cumulative IPC: 0.3783 (Simulation time: 01 hr 38 min 27 sec)
[ERROR_CYCLE] Error added at CPU cycle 1070014686, next at 1070994884, pending count: 1
[DRAM_CYCLE_ERROR] Cycle-based error applied! address=0x19b3b69540 additional_latency=1990500 cycles
[ERROR_CYCLE] Error added at CPU cycle 1070994885, next at 1160990919, pending count: 1
[DRAM_CYCLE_ERROR] Cycle-based error applied! address=0x1896403d48 additional_latency=1990500 cycles
Heartbeat CPU 0 instructions: 410000076 cycles: 1083699225 heartbeat IPC: 0.3779 cumulative IPC: 0.3783 (Simulation time: 01 hr 40 min 58 sec)
Heartbeat CPU 0 instructions: 420000076 cycles: 1110129919 heartbeat IPC: 0.3783 cumulative IPC: 0.3783 (Simulation time: 01 hr 43 min 31 sec)
Heartbeat CPU 0 instructions: 430000076 cycles: 1136516125 heartbeat IPC: 0.379 cumulative IPC: 0.3783 (Simulation time: 01 hr 45 min 36 sec)
[ERROR_CYCLE] Error added at CPU cycle 1160990919, next at 1213496919, pending count: 1
[DRAM_CYCLE_ERROR] Cycle-based error applied! address=0x18386abe40 additional_latency=1990500 cycles
Heartbeat CPU 0 instructions: 440000080 cycles: 1162928155 heartbeat IPC: 0.3786 cumulative IPC: 0.3784 (Simulation time: 01 hr 48 min 19 sec)
Heartbeat CPU 0 instructions: 450000081 cycles: 1189323483 heartbeat IPC: 0.3789 cumulative IPC: 0.3784 (Simulation time: 01 hr 51 min 03 sec)
[ERROR_CYCLE] Error added at CPU cycle 1213496920, next at 1516211877, pending count: 1
[DRAM_CYCLE_ERROR] Cycle-based error applied! address=0xd6ef054c0 additional_latency=1990500 cycles
Heartbeat CPU 0 instructions: 460000083 cycles: 1215682158 heartbeat IPC: 0.3794 cumulative IPC: 0.3784 (Simulation time: 01 hr 53 min 47 sec)
Heartbeat CPU 0 instructions: 470000085 cycles: 1242002405 heartbeat IPC: 0.3799 cumulative IPC: 0.3784 (Simulation time: 01 hr 56 min 28 sec)
Heartbeat CPU 0 instructions: 480000086 cycles: 1268341478 heartbeat IPC: 0.3797 cumulative IPC: 0.3784 (Simulation time: 01 hr 58 min 47 sec)
Heartbeat CPU 0 instructions: 490000086 cycles: 1294667899 heartbeat IPC: 0.3798 cumulative IPC: 0.3785 (Simulation time: 02 hr 01 min 31 sec)
Heartbeat CPU 0 instructions: 500000086 cycles: 1321098743 heartbeat IPC: 0.3783 cumulative IPC: 0.3785 (Simulation time: 02 hr 03 min 56 sec)
Heartbeat CPU 0 instructions: 510000087 cycles: 1347473799 heartbeat IPC: 0.3791 cumulative IPC: 0.3785 (Simulation time: 02 hr 06 min 38 sec)
Heartbeat CPU 0 instructions: 520000087 cycles: 1373816077 heartbeat IPC: 0.3796 cumulative IPC: 0.3785 (Simulation time: 02 hr 09 min 01 sec)
Heartbeat CPU 0 instructions: 530000091 cycles: 1400181238 heartbeat IPC: 0.3793 cumulative IPC: 0.3785 (Simulation time: 02 hr 10 min 59 sec)
Heartbeat CPU 0 instructions: 540000093 cycles: 1426628018 heartbeat IPC: 0.3781 cumulative IPC: 0.3785 (Simulation time: 02 hr 13 min 36 sec)
Heartbeat CPU 0 instructions: 550000093 cycles: 1452984009 heartbeat IPC: 0.3794 cumulative IPC: 0.3785 (Simulation time: 02 hr 16 min 12 sec)
Heartbeat CPU 0 instructions: 560000095 cycles: 1479379221 heartbeat IPC: 0.3789 cumulative IPC: 0.3785 (Simulation time: 02 hr 18 min 50 sec)
Heartbeat CPU 0 instructions: 570000095 cycles: 1505775754 heartbeat IPC: 0.3788 cumulative IPC: 0.3785 (Simulation time: 02 hr 21 min 26 sec)
[ERROR_CYCLE] Error added at CPU cycle 1516211878, next at 1535167431, pending count: 1
[DRAM_CYCLE_ERROR] Cycle-based error applied! address=0xee44d94c0 additional_latency=1990500 cycles
Heartbeat CPU 0 instructions: 580000099 cycles: 1532185505 heartbeat IPC: 0.3786 cumulative IPC: 0.3785 (Simulation time: 02 hr 24 min 03 sec)
[ERROR_CYCLE] Error added at CPU cycle 1535167432, next at 1554376223, pending count: 1
[DRAM_CYCLE_ERROR] Cycle-based error applied! address=0x1be0f147e0 additional_latency=1990500 cycles
[ERROR_CYCLE] Error added at CPU cycle 1554376224, next at 1784952274, pending count: 1
[DRAM_CYCLE_ERROR] Cycle-based error applied! address=0xead2b7208 additional_latency=1990500 cycles
Heartbeat CPU 0 instructions: 590000102 cycles: 1558599088 heartbeat IPC: 0.3786 cumulative IPC: 0.3785 (Simulation time: 02 hr 26 min 40 sec)
Heartbeat CPU 0 instructions: 600000104 cycles: 1585042438 heartbeat IPC: 0.3782 cumulative IPC: 0.3785 (Simulation time: 02 hr 29 min 21 sec)
Heartbeat CPU 0 instructions: 610000105 cycles: 1611490511 heartbeat IPC: 0.3781 cumulative IPC: 0.3785 (Simulation time: 02 hr 31 min 39 sec)
Heartbeat CPU 0 instructions: 620000107 cycles: 1639895405 heartbeat IPC: 0.3521 cumulative IPC: 0.3781 (Simulation time: 02 hr 34 min 33 sec)
Heartbeat CPU 0 instructions: 630000107 cycles: 1667091028 heartbeat IPC: 0.3677 cumulative IPC: 0.3779 (Simulation time: 02 hr 37 min 14 sec)
Heartbeat CPU 0 instructions: 640000107 cycles: 1693835866 heartbeat IPC: 0.3739 cumulative IPC: 0.3778 (Simulation time: 02 hr 39 min 32 sec)
Heartbeat CPU 0 instructions: 650000107 cycles: 1720795185 heartbeat IPC: 0.3709 cumulative IPC: 0.3777 (Simulation time: 02 hr 41 min 54 sec)
Heartbeat CPU 0 instructions: 660000108 cycles: 1747330153 heartbeat IPC: 0.3769 cumulative IPC: 0.3777 (Simulation time: 02 hr 44 min 31 sec)
Heartbeat CPU 0 instructions: 670000109 cycles: 1773779108 heartbeat IPC: 0.3781 cumulative IPC: 0.3777 (Simulation time: 02 hr 47 min 07 sec)
[ERROR_CYCLE] Error added at CPU cycle 1784952274, next at 1816533671, pending count: 1
[DRAM_CYCLE_ERROR] Cycle-based error applied! address=0x13e16ac110 additional_latency=1990500 cycles
Heartbeat CPU 0 instructions: 680000110 cycles: 1800196442 heartbeat IPC: 0.3785 cumulative IPC: 0.3777 (Simulation time: 02 hr 49 min 44 sec)
[ERROR_CYCLE] Error added at CPU cycle 1816533671, next at 2158771940, pending count: 1
[DRAM_CYCLE_ERROR] Cycle-based error applied! address=0x1479362c0 additional_latency=1990500 cycles
Heartbeat CPU 0 instructions: 690000111 cycles: 1826522002 heartbeat IPC: 0.3799 cumulative IPC: 0.3778 (Simulation time: 02 hr 52 min 19 sec)
Heartbeat CPU 0 instructions: 700000115 cycles: 1852831770 heartbeat IPC: 0.3801 cumulative IPC: 0.3778 (Simulation time: 02 hr 54 min 15 sec)
Heartbeat CPU 0 instructions: 710000116 cycles: 1879153965 heartbeat IPC: 0.3799 cumulative IPC: 0.3778 (Simulation time: 02 hr 56 min 03 sec)
Heartbeat CPU 0 instructions: 720000117 cycles: 1905462291 heartbeat IPC: 0.3801 cumulative IPC: 0.3779 (Simulation time: 02 hr 57 min 57 sec)
Heartbeat CPU 0 instructions: 730000120 cycles: 1931819923 heartbeat IPC: 0.3794 cumulative IPC: 0.3779 (Simulation time: 03 hr 00 min 03 sec)
Heartbeat CPU 0 instructions: 740000121 cycles: 1958256902 heartbeat IPC: 0.3783 cumulative IPC: 0.3779 (Simulation time: 03 hr 02 min 07 sec)
Heartbeat CPU 0 instructions: 750000122 cycles: 1984664901 heartbeat IPC: 0.3787 cumulative IPC: 0.3779 (Simulation time: 03 hr 04 min 10 sec)
Heartbeat CPU 0 instructions: 760000122 cycles: 2011071849 heartbeat IPC: 0.3787 cumulative IPC: 0.3779 (Simulation time: 03 hr 06 min 43 sec)
Heartbeat CPU 0 instructions: 770000122 cycles: 2037445013 heartbeat IPC: 0.3792 cumulative IPC: 0.3779 (Simulation time: 03 hr 09 min 05 sec)
Heartbeat CPU 0 instructions: 780000124 cycles: 2063811400 heartbeat IPC: 0.3793 cumulative IPC: 0.3779 (Simulation time: 03 hr 11 min 03 sec)
Heartbeat CPU 0 instructions: 790000127 cycles: 2090131352 heartbeat IPC: 0.3799 cumulative IPC: 0.378 (Simulation time: 03 hr 12 min 47 sec)
Heartbeat CPU 0 instructions: 800000128 cycles: 2116555487 heartbeat IPC: 0.3784 cumulative IPC: 0.378 (Simulation time: 03 hr 14 min 37 sec)
Heartbeat CPU 0 instructions: 810000128 cycles: 2142937601 heartbeat IPC: 0.379 cumulative IPC: 0.378 (Simulation time: 03 hr 16 min 18 sec)
[ERROR_CYCLE] Error added at CPU cycle 2158771941, next at 2204777382, pending count: 1
[DRAM_CYCLE_ERROR] Cycle-based error applied! address=0x10a7cc9b90 additional_latency=1990500 cycles
Heartbeat CPU 0 instructions: 820000128 cycles: 2169352110 heartbeat IPC: 0.3786 cumulative IPC: 0.378 (Simulation time: 03 hr 18 min 13 sec)
Heartbeat CPU 0 instructions: 830000128 cycles: 2195735691 heartbeat IPC: 0.379 cumulative IPC: 0.378 (Simulation time: 03 hr 20 min 07 sec)
[ERROR_CYCLE] Error added at CPU cycle 2204777382, next at 2473853101, pending count: 1
[DRAM_CYCLE_ERROR] Cycle-based error applied! address=0x275627680 additional_latency=1990500 cycles
Heartbeat CPU 0 instructions: 840000128 cycles: 2222136299 heartbeat IPC: 0.3788 cumulative IPC: 0.378 (Simulation time: 03 hr 22 min 15 sec)
Heartbeat CPU 0 instructions: 850000131 cycles: 2248530768 heartbeat IPC: 0.3789 cumulative IPC: 0.378 (Simulation time: 03 hr 24 min 06 sec)
Heartbeat CPU 0 instructions: 860000134 cycles: 2274834740 heartbeat IPC: 0.3802 cumulative IPC: 0.378 (Simulation time: 03 hr 26 min 05 sec)
Heartbeat CPU 0 instructions: 870000134 cycles: 2301163226 heartbeat IPC: 0.3798 cumulative IPC: 0.3781 (Simulation time: 03 hr 27 min 57 sec)
Heartbeat CPU 0 instructions: 880000136 cycles: 2327469298 heartbeat IPC: 0.3801 cumulative IPC: 0.3781 (Simulation time: 03 hr 29 min 36 sec)
Heartbeat CPU 0 instructions: 890000137 cycles: 2353830699 heartbeat IPC: 0.3793 cumulative IPC: 0.3781 (Simulation time: 03 hr 32 min 01 sec)
Heartbeat CPU 0 instructions: 900000137 cycles: 2380169215 heartbeat IPC: 0.3797 cumulative IPC: 0.3781 (Simulation time: 03 hr 34 min 41 sec)
Heartbeat CPU 0 instructions: 910000140 cycles: 2406510270 heartbeat IPC: 0.3796 cumulative IPC: 0.3781 (Simulation time: 03 hr 37 min 17 sec)
Heartbeat CPU 0 instructions: 920000140 cycles: 2432833923 heartbeat IPC: 0.3799 cumulative IPC: 0.3782 (Simulation time: 03 hr 38 min 57 sec)
Heartbeat CPU 0 instructions: 930000140 cycles: 2459156894 heartbeat IPC: 0.3799 cumulative IPC: 0.3782 (Simulation time: 03 hr 40 min 38 sec)
[ERROR_CYCLE] Error added at CPU cycle 2473853101, next at 2497718103, pending count: 1
[DRAM_CYCLE_ERROR] Cycle-based error applied! address=0x9d0693a90 additional_latency=1990500 cycles
Heartbeat CPU 0 instructions: 940000144 cycles: 2485505411 heartbeat IPC: 0.3795 cumulative IPC: 0.3782 (Simulation time: 03 hr 42 min 26 sec)
[ERROR_CYCLE] Error added at CPU cycle 2497718103, next at 2611876149, pending count: 1
[DRAM_CYCLE_ERROR] Cycle-based error applied! address=0x10d27afe40 additional_latency=1990500 cycles
Heartbeat CPU 0 instructions: 950000147 cycles: 2511842912 heartbeat IPC: 0.3797 cumulative IPC: 0.3782 (Simulation time: 03 hr 44 min 10 sec)
Heartbeat CPU 0 instructions: 960000147 cycles: 2538174111 heartbeat IPC: 0.3798 cumulative IPC: 0.3782 (Simulation time: 03 hr 45 min 51 sec)
Heartbeat CPU 0 instructions: 970000149 cycles: 2564491100 heartbeat IPC: 0.38 cumulative IPC: 0.3782 (Simulation time: 03 hr 48 min 11 sec)
Heartbeat CPU 0 instructions: 980000150 cycles: 2590817120 heartbeat IPC: 0.3799 cumulative IPC: 0.3783 (Simulation time: 03 hr 50 min 50 sec)
[ERROR_CYCLE] Error added at CPU cycle 2611876149, next at 2628954084, pending count: 1
[DRAM_CYCLE_ERROR] Cycle-based error applied! address=0x1d29520c10 additional_latency=1990500 cycles
Heartbeat CPU 0 instructions: 990000150 cycles: 2617123134 heartbeat IPC: 0.3801 cumulative IPC: 0.3783 (Simulation time: 03 hr 53 min 28 sec)
[ERROR_CYCLE] Error added at CPU cycle 2628954084, next at 2655562730, pending count: 1
[DRAM_CYCLE_ERROR] Cycle-based error applied! address=0x69e93c100 additional_latency=1990500 cycles
Heartbeat CPU 0 instructions: 1000000152 cycles: 2643482834 heartbeat IPC: 0.3794 cumulative IPC: 0.3783 (Simulation time: 03 hr 55 min 37 sec)
[ERROR_CYCLE] Error added at CPU cycle 2655562730, next at 2772976160, pending count: 1
[DRAM_CYCLE_ERROR] Cycle-based error applied! address=0x463cd71e0 additional_latency=1990500 cycles
Heartbeat CPU 0 instructions: 1010000153 cycles: 2669805157 heartbeat IPC: 0.3799 cumulative IPC: 0.3783 (Simulation time: 03 hr 57 min 16 sec)
Heartbeat CPU 0 instructions: 1020000155 cycles: 2696115121 heartbeat IPC: 0.3801 cumulative IPC: 0.3783 (Simulation time: 03 hr 58 min 54 sec)
Heartbeat CPU 0 instructions: 1030000155 cycles: 2722441708 heartbeat IPC: 0.3798 cumulative IPC: 0.3783 (Simulation time: 04 hr 00 min 30 sec)
Heartbeat CPU 0 instructions: 1040000157 cycles: 2748769265 heartbeat IPC: 0.3798 cumulative IPC: 0.3784 (Simulation time: 04 hr 02 min 07 sec)
[ERROR_CYCLE] Error added at CPU cycle 2772976161, next at 2773633393, pending count: 1
[DRAM_CYCLE_ERROR] Cycle-based error applied! address=0x8da3ab488 additional_latency=1990500 cycles
[ERROR_CYCLE] Error added at CPU cycle 2773633393, next at 2808444482, pending count: 1
[DRAM_CYCLE_ERROR] Cycle-based error applied! address=0x1282605140 additional_latency=1990500 cycles
Heartbeat CPU 0 instructions: 1050000160 cycles: 2775094944 heartbeat IPC: 0.3799 cumulative IPC: 0.3784 (Simulation time: 04 hr 03 min 43 sec)
Heartbeat CPU 0 instructions: 1060000161 cycles: 2801431712 heartbeat IPC: 0.3797 cumulative IPC: 0.3784 (Simulation time: 04 hr 05 min 20 sec)
[ERROR_CYCLE] Error added at CPU cycle 2808444482, next at 2829724174, pending count: 1
[DRAM_CYCLE_ERROR] Cycle-based error applied! address=0x197e1c1640 additional_latency=1990500 cycles
Heartbeat CPU 0 instructions: 1070000162 cycles: 2827760593 heartbeat IPC: 0.3798 cumulative IPC: 0.3784 (Simulation time: 04 hr 06 min 57 sec)
[ERROR_CYCLE] Error added at CPU cycle 2829724175, next at 2868628587, pending count: 1
[DRAM_CYCLE_ERROR] Cycle-based error applied! address=0x10a3ec11d0 additional_latency=1990500 cycles
Heartbeat CPU 0 instructions: 1080000163 cycles: 2854110227 heartbeat IPC: 0.3795 cumulative IPC: 0.3784 (Simulation time: 04 hr 08 min 33 sec)
[ERROR_CYCLE] Error added at CPU cycle 2868628587, next at 2877872688, pending count: 1
[DRAM_CYCLE_ERROR] Cycle-based error applied! address=0x14571587c0 additional_latency=1990500 cycles
[ERROR_CYCLE] Error added at CPU cycle 2877872689, next at 2919724526, pending count: 1
[DRAM_CYCLE_ERROR] Cycle-based error applied! address=0x8cde97588 additional_latency=1990500 cycles
Heartbeat CPU 0 instructions: 1090000163 cycles: 2880450899 heartbeat IPC: 0.3796 cumulative IPC: 0.3784 (Simulation time: 04 hr 10 min 10 sec)
Heartbeat CPU 0 instructions: 1100000164 cycles: 2906814916 heartbeat IPC: 0.3793 cumulative IPC: 0.3784 (Simulation time: 04 hr 11 min 47 sec)
[ERROR_CYCLE] Error added at CPU cycle 2919724527, next at 2961311055, pending count: 1
[DRAM_CYCLE_ERROR] Cycle-based error applied! address=0x191ca6cc00 additional_latency=1990500 cycles
Heartbeat CPU 0 instructions: 1110000164 cycles: 2933166417 heartbeat IPC: 0.3795 cumulative IPC: 0.3784 (Simulation time: 04 hr 13 min 24 sec)
Heartbeat CPU 0 instructions: 1120000166 cycles: 2959487885 heartbeat IPC: 0.3799 cumulative IPC: 0.3784 (Simulation time: 04 hr 15 min 00 sec)
[ERROR_CYCLE] Error added at CPU cycle 2961311055, next at 3078893542, pending count: 1
[DRAM_CYCLE_ERROR] Cycle-based error applied! address=0x179e9b9a88 additional_latency=1990500 cycles
Heartbeat CPU 0 instructions: 1130000166 cycles: 2985812526 heartbeat IPC: 0.3799 cumulative IPC: 0.3785 (Simulation time: 04 hr 16 min 36 sec)
Heartbeat CPU 0 instructions: 1140000169 cycles: 3012127638 heartbeat IPC: 0.38 cumulative IPC: 0.3785 (Simulation time: 04 hr 18 min 11 sec)
Heartbeat CPU 0 instructions: 1150000169 cycles: 3038515664 heartbeat IPC: 0.379 cumulative IPC: 0.3785 (Simulation time: 04 hr 19 min 48 sec)
Heartbeat CPU 0 instructions: 1160000171 cycles: 3064865439 heartbeat IPC: 0.3795 cumulative IPC: 0.3785 (Simulation time: 04 hr 21 min 24 sec)
[ERROR_CYCLE] Error added at CPU cycle 3078893542, next at 3226440461, pending count: 1
[DRAM_CYCLE_ERROR] Cycle-based error applied! address=0x6b684ce80 additional_latency=1990500 cycles
Heartbeat CPU 0 instructions: 1170000172 cycles: 3090982549 heartbeat IPC: 0.3829 cumulative IPC: 0.3785 (Simulation time: 04 hr 22 min 59 sec)
Heartbeat CPU 0 instructions: 1180000173 cycles: 3117258651 heartbeat IPC: 0.3806 cumulative IPC: 0.3785 (Simulation time: 04 hr 24 min 34 sec)
Heartbeat CPU 0 instructions: 1190000173 cycles: 3143580199 heartbeat IPC: 0.3799 cumulative IPC: 0.3785 (Simulation time: 04 hr 26 min 10 sec)
Heartbeat CPU 0 instructions: 1200000173 cycles: 3169893669 heartbeat IPC: 0.38 cumulative IPC: 0.3786 (Simulation time: 04 hr 27 min 46 sec)
Heartbeat CPU 0 instructions: 1210000174 cycles: 3196226802 heartbeat IPC: 0.3797 cumulative IPC: 0.3786 (Simulation time: 04 hr 29 min 22 sec)
Heartbeat CPU 0 instructions: 1220000178 cycles: 3222546566 heartbeat IPC: 0.3799 cumulative IPC: 0.3786 (Simulation time: 04 hr 30 min 57 sec)
[ERROR_CYCLE] Error added at CPU cycle 3226440462, next at 3266392849, pending count: 1
[DRAM_CYCLE_ERROR] Cycle-based error applied! address=0x1a64c41388 additional_latency=1990500 cycles
Heartbeat CPU 0 instructions: 1230000181 cycles: 3248757809 heartbeat IPC: 0.3815 cumulative IPC: 0.3786 (Simulation time: 04 hr 32 min 33 sec)
[ERROR_CYCLE] Error added at CPU cycle 3266392849, next at 3316630947, pending count: 1
[DRAM_CYCLE_ERROR] Cycle-based error applied! address=0x570669780 additional_latency=1990500 cycles
Heartbeat CPU 0 instructions: 1240000182 cycles: 3275051180 heartbeat IPC: 0.3803 cumulative IPC: 0.3786 (Simulation time: 04 hr 34 min 08 sec)
Heartbeat CPU 0 instructions: 1250000185 cycles: 3301371555 heartbeat IPC: 0.3799 cumulative IPC: 0.3786 (Simulation time: 04 hr 35 min 44 sec)
[ERROR_CYCLE] Error added at CPU cycle 3316630947, next at 3325418205, pending count: 1
[DRAM_CYCLE_ERROR] Cycle-based error applied! address=0x1c8f4f79d8 additional_latency=1990500 cycles
[ERROR_CYCLE] Error added at CPU cycle 3325418205, next at 3342351842, pending count: 1
[DRAM_CYCLE_ERROR] Cycle-based error applied! address=0x13330e3508 additional_latency=1990500 cycles
Heartbeat CPU 0 instructions: 1260000185 cycles: 3327625650 heartbeat IPC: 0.3809 cumulative IPC: 0.3786 (Simulation time: 04 hr 37 min 20 sec)
[ERROR_CYCLE] Error added at CPU cycle 3342351843, next at 3431697372, pending count: 1
[DRAM_CYCLE_ERROR] Cycle-based error applied! address=0x1be832d888 additional_latency=1990500 cycles
Heartbeat CPU 0 instructions: 1270000185 cycles: 3353952019 heartbeat IPC: 0.3798 cumulative IPC: 0.3787 (Simulation time: 04 hr 38 min 56 sec)
Heartbeat CPU 0 instructions: 1280000186 cycles: 3380359834 heartbeat IPC: 0.3787 cumulative IPC: 0.3787 (Simulation time: 04 hr 40 min 32 sec)
Heartbeat CPU 0 instructions: 1290000186 cycles: 3406804560 heartbeat IPC: 0.3781 cumulative IPC: 0.3787 (Simulation time: 04 hr 42 min 07 sec)
[ERROR_CYCLE] Error added at CPU cycle 3431697373, next at 3483189846, pending count: 1
[DRAM_CYCLE_ERROR] Cycle-based error applied! address=0xc8b408e40 additional_latency=1990500 cycles
Heartbeat CPU 0 instructions: 1300000190 cycles: 3433173221 heartbeat IPC: 0.3792 cumulative IPC: 0.3787 (Simulation time: 04 hr 43 min 41 sec)
Heartbeat CPU 0 instructions: 1310000190 cycles: 3459600392 heartbeat IPC: 0.3784 cumulative IPC: 0.3787 (Simulation time: 04 hr 45 min 16 sec)
[ERROR_CYCLE] Error added at CPU cycle 3483189846, next at 3612564501, pending count: 1
[DRAM_CYCLE_ERROR] Cycle-based error applied! address=0x11b4562400 additional_latency=1990500 cycles
Heartbeat CPU 0 instructions: 1320000190 cycles: 3486038459 heartbeat IPC: 0.3782 cumulative IPC: 0.3787 (Simulation time: 04 hr 46 min 49 sec)
Heartbeat CPU 0 instructions: 1330000190 cycles: 3512459996 heartbeat IPC: 0.3785 cumulative IPC: 0.3787 (Simulation time: 04 hr 48 min 23 sec)
Heartbeat CPU 0 instructions: 1340000190 cycles: 3538803765 heartbeat IPC: 0.3796 cumulative IPC: 0.3787 (Simulation time: 04 hr 49 min 58 sec)
Heartbeat CPU 0 instructions: 1350000192 cycles: 3565099679 heartbeat IPC: 0.3803 cumulative IPC: 0.3787 (Simulation time: 04 hr 51 min 31 sec)
Heartbeat CPU 0 instructions: 1360000193 cycles: 3591402050 heartbeat IPC: 0.3802 cumulative IPC: 0.3787 (Simulation time: 04 hr 53 min 04 sec)
[ERROR_CYCLE] Error added at CPU cycle 3612564502, next at 3635329558, pending count: 1
[DRAM_CYCLE_ERROR] Cycle-based error applied! address=0x1e872c5a60 additional_latency=1990500 cycles
Heartbeat CPU 0 instructions: 1370000194 cycles: 3617769855 heartbeat IPC: 0.3793 cumulative IPC: 0.3787 (Simulation time: 04 hr 54 min 37 sec)
[ERROR_CYCLE] Error added at CPU cycle 3635329558, next at 3743546336, pending count: 1
[DRAM_CYCLE_ERROR] Cycle-based error applied! address=0x1b0aaf0d08 additional_latency=1990500 cycles
Heartbeat CPU 0 instructions: 1380000197 cycles: 3644136029 heartbeat IPC: 0.3793 cumulative IPC: 0.3787 (Simulation time: 04 hr 56 min 11 sec)
Heartbeat CPU 0 instructions: 1390000201 cycles: 3670443556 heartbeat IPC: 0.3801 cumulative IPC: 0.3787 (Simulation time: 04 hr 57 min 45 sec)
Heartbeat CPU 0 instructions: 1400000204 cycles: 3696777847 heartbeat IPC: 0.3797 cumulative IPC: 0.3787 (Simulation time: 04 hr 59 min 19 sec)
Heartbeat CPU 0 instructions: 1410000206 cycles: 3723142121 heartbeat IPC: 0.3793 cumulative IPC: 0.3787 (Simulation time: 05 hr 00 min 51 sec)
[ERROR_CYCLE] Error added at CPU cycle 3743546337, next at 3833202836, pending count: 1
[DRAM_CYCLE_ERROR] Cycle-based error applied! address=0xb7c6daac0 additional_latency=1990500 cycles
Heartbeat CPU 0 instructions: 1420000206 cycles: 3749671403 heartbeat IPC: 0.3769 cumulative IPC: 0.3787 (Simulation time: 05 hr 02 min 25 sec)
Heartbeat CPU 0 instructions: 1430000209 cycles: 3776308683 heartbeat IPC: 0.3754 cumulative IPC: 0.3787 (Simulation time: 05 hr 03 min 59 sec)
Heartbeat CPU 0 instructions: 1440000211 cycles: 3804673559 heartbeat IPC: 0.3525 cumulative IPC: 0.3785 (Simulation time: 05 hr 05 min 43 sec)
Heartbeat CPU 0 instructions: 1450000214 cycles: 3830775705 heartbeat IPC: 0.3831 cumulative IPC: 0.3785 (Simulation time: 05 hr 07 min 17 sec)
[ERROR_CYCLE] Error added at CPU cycle 3833202836, next at 3918550474, pending count: 1
[DRAM_CYCLE_ERROR] Cycle-based error applied! address=0x16188d3120 additional_latency=1990500 cycles
Heartbeat CPU 0 instructions: 1460000214 cycles: 3857142690 heartbeat IPC: 0.3793 cumulative IPC: 0.3785 (Simulation time: 05 hr 08 min 50 sec)
Heartbeat CPU 0 instructions: 1470000214 cycles: 3883503349 heartbeat IPC: 0.3794 cumulative IPC: 0.3785 (Simulation time: 05 hr 10 min 23 sec)
Heartbeat CPU 0 instructions: 1480000216 cycles: 3909858587 heartbeat IPC: 0.3794 cumulative IPC: 0.3785 (Simulation time: 05 hr 11 min 57 sec)
[ERROR_CYCLE] Error added at CPU cycle 3918550475, next at 3937595151, pending count: 1
[DRAM_CYCLE_ERROR] Cycle-based error applied! address=0x15239b3580 additional_latency=1990500 cycles
Heartbeat CPU 0 instructions: 1490000220 cycles: 3936197910 heartbeat IPC: 0.3797 cumulative IPC: 0.3785 (Simulation time: 05 hr 13 min 30 sec)
[ERROR_CYCLE] Error added at CPU cycle 3937595151, next at 4008840545, pending count: 1
[DRAM_CYCLE_ERROR] Cycle-based error applied! address=0x140a2f3450 additional_latency=1990500 cycles
Heartbeat CPU 0 instructions: 1500000220 cycles: 3962540031 heartbeat IPC: 0.3796 cumulative IPC: 0.3785 (Simulation time: 05 hr 15 min 03 sec)
Heartbeat CPU 0 instructions: 1510000220 cycles: 3988854168 heartbeat IPC: 0.38 cumulative IPC: 0.3786 (Simulation time: 05 hr 16 min 37 sec)
[ERROR_CYCLE] Error added at CPU cycle 4008840546, next at 4131311547, pending count: 1
[DRAM_CYCLE_ERROR] Cycle-based error applied! address=0x1b17cda0a0 additional_latency=1990500 cycles
Heartbeat CPU 0 instructions: 1520000222 cycles: 4015263068 heartbeat IPC: 0.3787 cumulative IPC: 0.3786 (Simulation time: 05 hr 18 min 10 sec)
Heartbeat CPU 0 instructions: 1530000222 cycles: 4041656686 heartbeat IPC: 0.3789 cumulative IPC: 0.3786 (Simulation time: 05 hr 19 min 44 sec)
Heartbeat CPU 0 instructions: 1540000223 cycles: 4067938397 heartbeat IPC: 0.3805 cumulative IPC: 0.3786 (Simulation time: 05 hr 21 min 17 sec)
Heartbeat CPU 0 instructions: 1550000223 cycles: 4094078530 heartbeat IPC: 0.3826 cumulative IPC: 0.3786 (Simulation time: 05 hr 22 min 47 sec)
Heartbeat CPU 0 instructions: 1560000225 cycles: 4120318261 heartbeat IPC: 0.3811 cumulative IPC: 0.3786 (Simulation time: 05 hr 24 min 18 sec)
[ERROR_CYCLE] Error added at CPU cycle 4131311548, next at 4186065189, pending count: 1
[DRAM_CYCLE_ERROR] Cycle-based error applied! address=0x16c4e4bd50 additional_latency=1990500 cycles
Heartbeat CPU 0 instructions: 1570000225 cycles: 4146512141 heartbeat IPC: 0.3818 cumulative IPC: 0.3786 (Simulation time: 05 hr 25 min 50 sec)
Heartbeat CPU 0 instructions: 1580000227 cycles: 4172738160 heartbeat IPC: 0.3813 cumulative IPC: 0.3786 (Simulation time: 05 hr 27 min 23 sec)
[ERROR_CYCLE] Error added at CPU cycle 4186065190, next at 4194564255, pending count: 1
[DRAM_CYCLE_ERROR] Cycle-based error applied! address=0x162478e900 additional_latency=1990500 cycles
[ERROR_CYCLE] Error added at CPU cycle 4194564255, next at 4363370435, pending count: 1
[DRAM_CYCLE_ERROR] Cycle-based error applied! address=0x1ad08adf00 additional_latency=1990500 cycles
Heartbeat CPU 0 instructions: 1590000231 cycles: 4198981102 heartbeat IPC: 0.3811 cumulative IPC: 0.3787 (Simulation time: 05 hr 28 min 56 sec)
Heartbeat CPU 0 instructions: 1600000231 cycles: 4225220000 heartbeat IPC: 0.3811 cumulative IPC: 0.3787 (Simulation time: 05 hr 30 min 26 sec)
Heartbeat CPU 0 instructions: 1610000231 cycles: 4251453704 heartbeat IPC: 0.3812 cumulative IPC: 0.3787 (Simulation time: 05 hr 31 min 59 sec)
Heartbeat CPU 0 instructions: 1620000232 cycles: 4277692167 heartbeat IPC: 0.3811 cumulative IPC: 0.3787 (Simulation time: 05 hr 33 min 29 sec)
Heartbeat CPU 0 instructions: 1630000233 cycles: 4303939616 heartbeat IPC: 0.381 cumulative IPC: 0.3787 (Simulation time: 05 hr 35 min 00 sec)
Heartbeat CPU 0 instructions: 1640000234 cycles: 4330181062 heartbeat IPC: 0.3811 cumulative IPC: 0.3787 (Simulation time: 05 hr 36 min 32 sec)
Heartbeat CPU 0 instructions: 1650000235 cycles: 4356432116 heartbeat IPC: 0.3809 cumulative IPC: 0.3788 (Simulation time: 05 hr 38 min 03 sec)
[ERROR_CYCLE] Error added at CPU cycle 4363370435, next at 4440092432, pending count: 1
[DRAM_CYCLE_ERROR] Cycle-based error applied! address=0x5b2e16910 additional_latency=1990500 cycles
Heartbeat CPU 0 instructions: 1660000235 cycles: 4382676135 heartbeat IPC: 0.381 cumulative IPC: 0.3788 (Simulation time: 05 hr 39 min 34 sec)
Heartbeat CPU 0 instructions: 1670000235 cycles: 4408924422 heartbeat IPC: 0.381 cumulative IPC: 0.3788 (Simulation time: 05 hr 41 min 05 sec)
Heartbeat CPU 0 instructions: 1680000237 cycles: 4435159832 heartbeat IPC: 0.3812 cumulative IPC: 0.3788 (Simulation time: 05 hr 42 min 36 sec)
[ERROR_CYCLE] Error added at CPU cycle 4440092432, next at 4533656869, pending count: 1
[DRAM_CYCLE_ERROR] Cycle-based error applied! address=0x1e66780350 additional_latency=1990500 cycles
Heartbeat CPU 0 instructions: 1690000237 cycles: 4461426712 heartbeat IPC: 0.3807 cumulative IPC: 0.3788 (Simulation time: 05 hr 44 min 07 sec)
Heartbeat CPU 0 instructions: 1700000241 cycles: 4487664423 heartbeat IPC: 0.3811 cumulative IPC: 0.3788 (Simulation time: 05 hr 45 min 39 sec)
Heartbeat CPU 0 instructions: 1710000242 cycles: 4513888783 heartbeat IPC: 0.3813 cumulative IPC: 0.3788 (Simulation time: 05 hr 47 min 10 sec)
[ERROR_CYCLE] Error added at CPU cycle 4533656869, next at 4818675937, pending count: 1
[DRAM_CYCLE_ERROR] Cycle-based error applied! address=0xe0dc48140 additional_latency=1990500 cycles
Heartbeat CPU 0 instructions: 1720000243 cycles: 4540107270 heartbeat IPC: 0.3814 cumulative IPC: 0.3788 (Simulation time: 05 hr 48 min 42 sec)
Heartbeat CPU 0 instructions: 1730000243 cycles: 4566356413 heartbeat IPC: 0.381 cumulative IPC: 0.3789 (Simulation time: 05 hr 50 min 13 sec)
Heartbeat CPU 0 instructions: 1740000246 cycles: 4592601065 heartbeat IPC: 0.381 cumulative IPC: 0.3789 (Simulation time: 05 hr 51 min 44 sec)
Heartbeat CPU 0 instructions: 1750000247 cycles: 4618832773 heartbeat IPC: 0.3812 cumulative IPC: 0.3789 (Simulation time: 05 hr 53 min 15 sec)
Heartbeat CPU 0 instructions: 1760000248 cycles: 4645064756 heartbeat IPC: 0.3812 cumulative IPC: 0.3789 (Simulation time: 05 hr 54 min 46 sec)
Heartbeat CPU 0 instructions: 1770000252 cycles: 4671301595 heartbeat IPC: 0.3811 cumulative IPC: 0.3789 (Simulation time: 05 hr 56 min 17 sec)
Heartbeat CPU 0 instructions: 1780000252 cycles: 4697541021 heartbeat IPC: 0.3811 cumulative IPC: 0.3789 (Simulation time: 05 hr 57 min 45 sec)
Heartbeat CPU 0 instructions: 1790000252 cycles: 4723782841 heartbeat IPC: 0.3811 cumulative IPC: 0.3789 (Simulation time: 05 hr 59 min 17 sec)
Heartbeat CPU 0 instructions: 1800000252 cycles: 4750045393 heartbeat IPC: 0.3808 cumulative IPC: 0.3789 (Simulation time: 06 hr 00 min 47 sec)
Heartbeat CPU 0 instructions: 1810000253 cycles: 4776278486 heartbeat IPC: 0.3812 cumulative IPC: 0.379 (Simulation time: 06 hr 02 min 17 sec)
Heartbeat CPU 0 instructions: 1820000255 cycles: 4802496996 heartbeat IPC: 0.3814 cumulative IPC: 0.379 (Simulation time: 06 hr 03 min 47 sec)
[ERROR_CYCLE] Error added at CPU cycle 4818675937, next at 4862413593, pending count: 1
[DRAM_CYCLE_ERROR] Cycle-based error applied! address=0x13bf5f4f18 additional_latency=1990500 cycles
Heartbeat CPU 0 instructions: 1830000257 cycles: 4828758307 heartbeat IPC: 0.3808 cumulative IPC: 0.379 (Simulation time: 06 hr 05 min 18 sec)
Heartbeat CPU 0 instructions: 1840000259 cycles: 4854977992 heartbeat IPC: 0.3814 cumulative IPC: 0.379 (Simulation time: 06 hr 06 min 47 sec)
[ERROR_CYCLE] Error added at CPU cycle 4862413593, next at 4868348360, pending count: 1
[DRAM_CYCLE_ERROR] Cycle-based error applied! address=0x11da50cb20 additional_latency=1990500 cycles
[ERROR_CYCLE] Error added at CPU cycle 4868348361, next at 4885240742, pending count: 1
[DRAM_CYCLE_ERROR] Cycle-based error applied! address=0x740378fc8 additional_latency=1990500 cycles
Heartbeat CPU 0 instructions: 1850000259 cycles: 4881226009 heartbeat IPC: 0.381 cumulative IPC: 0.379 (Simulation time: 06 hr 08 min 18 sec)
[ERROR_CYCLE] Error added at CPU cycle 4885240743, next at 4905754810, pending count: 1
[DRAM_CYCLE_ERROR] Cycle-based error applied! address=0x1db127b3c8 additional_latency=1990500 cycles
[ERROR_CYCLE] Error added at CPU cycle 4905754810, next at 4909847406, pending count: 1
[DRAM_CYCLE_ERROR] Cycle-based error applied! address=0x6fa9157e0 additional_latency=1990500 cycles
Heartbeat CPU 0 instructions: 1860000262 cycles: 4907477281 heartbeat IPC: 0.3809 cumulative IPC: 0.379 (Simulation time: 06 hr 09 min 48 sec)
[ERROR_CYCLE] Error added at CPU cycle 4909847406, next at 4925492300, pending count: 1
[DRAM_CYCLE_ERROR] Cycle-based error applied! address=0x50b57d3c0 additional_latency=1990500 cycles
[ERROR_CYCLE] Error added at CPU cycle 4925492301, next at 4990643173, pending count: 1
[DRAM_CYCLE_ERROR] Cycle-based error applied! address=0x1f07d9ed8 additional_latency=1990500 cycles
Heartbeat CPU 0 instructions: 1870000263 cycles: 4933734760 heartbeat IPC: 0.3808 cumulative IPC: 0.379 (Simulation time: 06 hr 11 min 17 sec)
Heartbeat CPU 0 instructions: 1880000264 cycles: 4959997369 heartbeat IPC: 0.3808 cumulative IPC: 0.379 (Simulation time: 06 hr 12 min 47 sec)
Heartbeat CPU 0 instructions: 1890000267 cycles: 4986239724 heartbeat IPC: 0.3811 cumulative IPC: 0.379 (Simulation time: 06 hr 14 min 16 sec)
[ERROR_CYCLE] Error added at CPU cycle 4990643174, next at 5244036741, pending count: 1
[DRAM_CYCLE_ERROR] Cycle-based error applied! address=0x17cf01898 additional_latency=1990500 cycles
Heartbeat CPU 0 instructions: 1900000271 cycles: 5012496108 heartbeat IPC: 0.3809 cumulative IPC: 0.3791 (Simulation time: 06 hr 15 min 45 sec)
Heartbeat CPU 0 instructions: 1910000274 cycles: 5038751613 heartbeat IPC: 0.3809 cumulative IPC: 0.3791 (Simulation time: 06 hr 17 min 15 sec)
Heartbeat CPU 0 instructions: 1920000278 cycles: 5064941481 heartbeat IPC: 0.3818 cumulative IPC: 0.3791 (Simulation time: 06 hr 18 min 43 sec)
Heartbeat CPU 0 instructions: 1930000280 cycles: 5091192537 heartbeat IPC: 0.3809 cumulative IPC: 0.3791 (Simulation time: 06 hr 20 min 12 sec)
Heartbeat CPU 0 instructions: 1940000280 cycles: 5117435244 heartbeat IPC: 0.3811 cumulative IPC: 0.3791 (Simulation time: 06 hr 21 min 40 sec)
Heartbeat CPU 0 instructions: 1950000281 cycles: 5143643299 heartbeat IPC: 0.3816 cumulative IPC: 0.3791 (Simulation time: 06 hr 23 min 08 sec)
Heartbeat CPU 0 instructions: 1960000284 cycles: 5169861807 heartbeat IPC: 0.3814 cumulative IPC: 0.3791 (Simulation time: 06 hr 24 min 37 sec)
Heartbeat CPU 0 instructions: 1970000284 cycles: 5196073437 heartbeat IPC: 0.3815 cumulative IPC: 0.3791 (Simulation time: 06 hr 26 min 05 sec)
Heartbeat CPU 0 instructions: 1980000285 cycles: 5222320319 heartbeat IPC: 0.381 cumulative IPC: 0.3791 (Simulation time: 06 hr 27 min 33 sec)
[ERROR_CYCLE] Error added at CPU cycle 5244036741, next at 5482371441, pending count: 1
[DRAM_CYCLE_ERROR] Cycle-based error applied! address=0xed88ad940 additional_latency=1990500 cycles
Heartbeat CPU 0 instructions: 1990000285 cycles: 5248583731 heartbeat IPC: 0.3808 cumulative IPC: 0.3791 (Simulation time: 06 hr 29 min 01 sec)

=== ERROR PAGE STATISTICS ===
Mode: CYCLE
Error Cycle Interval: 80000000 CPU cycles
Total Error Accesses: 67
==============================
Simulation finished CPU 0 instructions: 1999999981 cycles: 5274819100 cumulative IPC: 0.3792 (Simulation time: 06 hr 30 min 29 sec)
Simulation complete CPU 0 instructions: 1999999981 cycles: 5274819100 cumulative IPC: 0.3792 (Simulation time: 06 hr 30 min 29 sec)

ChampSim completed all CPUs

=== Simulation ===
CPU 0 runs test_traces/602.gcc_s-1850B.champsimtrace.xz

Region of Interest Statistics

CPU 0 cumulative IPC: 0.3792 instructions: 1999999981 cycles: 5274819100
CPU 0 Branch Prediction Accuracy: 92.26% MPKI: 19.84 Average ROB Occupancy at Mispredict: 28.45
Branch type MPKI
BRANCH_DIRECT_JUMP: 0.0104
BRANCH_INDIRECT: 0
BRANCH_CONDITIONAL: 19.83
BRANCH_DIRECT_CALL: 8.5e-06
BRANCH_INDIRECT_CALL: 0
BRANCH_RETURN: 7e-06

cpu0->cpu0_STLB TOTAL        ACCESS:      15986 HIT:      12647 MISS:       3339 MSHR_MERGE:          0
cpu0->cpu0_STLB LOAD         ACCESS:      15986 HIT:      12647 MISS:       3339 MSHR_MERGE:          0
cpu0->cpu0_STLB RFO          ACCESS:          0 HIT:          0 MISS:          0 MSHR_MERGE:          0
cpu0->cpu0_STLB PREFETCH     ACCESS:          0 HIT:          0 MISS:          0 MSHR_MERGE:          0
cpu0->cpu0_STLB WRITE        ACCESS:          0 HIT:          0 MISS:          0 MSHR_MERGE:          0
cpu0->cpu0_STLB TRANSLATION  ACCESS:          0 HIT:          0 MISS:          0 MSHR_MERGE:          0
cpu0->cpu0_STLB PREFETCH REQUESTED:          0 ISSUED:          0 USEFUL:          0 USELESS:          0
cpu0->cpu0_STLB AVERAGE MISS LATENCY: 6460 cycles
cpu0->cpu0_L2C TOTAL        ACCESS:   48249144 HIT:   12597994 MISS:   35651150 MSHR_MERGE:          0
cpu0->cpu0_L2C LOAD         ACCESS:   48104277 HIT:   12470010 MISS:   35634267 MSHR_MERGE:          0
cpu0->cpu0_L2C RFO          ACCESS:      16946 HIT:        112 MISS:      16834 MSHR_MERGE:          0
cpu0->cpu0_L2C PREFETCH     ACCESS:          0 HIT:          0 MISS:          0 MSHR_MERGE:          0
cpu0->cpu0_L2C WRITE        ACCESS:     127921 HIT:     127872 MISS:         49 MSHR_MERGE:          0
cpu0->cpu0_L2C TRANSLATION  ACCESS:          0 HIT:          0 MISS:          0 MSHR_MERGE:          0
cpu0->cpu0_L2C PREFETCH REQUESTED:          0 ISSUED:          0 USEFUL:          0 USELESS:          0
cpu0->cpu0_L2C AVERAGE MISS LATENCY: 95.68 cycles
cpu0->cpu0_L1I TOTAL        ACCESS:      78375 HIT:      78315 MISS:         60 MSHR_MERGE:          3
cpu0->cpu0_L1I LOAD         ACCESS:      78375 HIT:      78315 MISS:         60 MSHR_MERGE:          3
cpu0->cpu0_L1I RFO          ACCESS:          0 HIT:          0 MISS:          0 MSHR_MERGE:          0
cpu0->cpu0_L1I PREFETCH     ACCESS:          0 HIT:          0 MISS:          0 MSHR_MERGE:          0
cpu0->cpu0_L1I WRITE        ACCESS:          0 HIT:          0 MISS:          0 MSHR_MERGE:          0
cpu0->cpu0_L1I TRANSLATION  ACCESS:          0 HIT:          0 MISS:          0 MSHR_MERGE:          0
cpu0->cpu0_L1I PREFETCH REQUESTED:          0 ISSUED:          0 USEFUL:          0 USELESS:          0
cpu0->cpu0_L1I AVERAGE MISS LATENCY: 107.5 cycles
cpu0->cpu0_L1D TOTAL        ACCESS:  605689827 HIT:  522317807 MISS:   83372020 MSHR_MERGE:   35250854
cpu0->cpu0_L1D LOAD         ACCESS:  433067275 HIT:  349712637 MISS:   83354638 MSHR_MERGE:   35250418
cpu0->cpu0_L1D RFO          ACCESS:          0 HIT:          0 MISS:          0 MSHR_MERGE:          0
cpu0->cpu0_L1D PREFETCH     ACCESS:          0 HIT:          0 MISS:          0 MSHR_MERGE:          0
cpu0->cpu0_L1D WRITE        ACCESS:  172622552 HIT:  172605170 MISS:      17382 MSHR_MERGE:        436
cpu0->cpu0_L1D TRANSLATION  ACCESS:          0 HIT:          0 MISS:          0 MSHR_MERGE:          0
cpu0->cpu0_L1D PREFETCH REQUESTED:          0 ISSUED:          0 USEFUL:          0 USELESS:          0
cpu0->cpu0_L1D AVERAGE MISS LATENCY: 79.63 cycles
cpu0->cpu0_ITLB TOTAL        ACCESS:      73691 HIT:      73688 MISS:          3 MSHR_MERGE:          1
cpu0->cpu0_ITLB LOAD         ACCESS:      73691 HIT:      73688 MISS:          3 MSHR_MERGE:          1
cpu0->cpu0_ITLB RFO          ACCESS:          0 HIT:          0 MISS:          0 MSHR_MERGE:          0
cpu0->cpu0_ITLB PREFETCH     ACCESS:          0 HIT:          0 MISS:          0 MSHR_MERGE:          0
cpu0->cpu0_ITLB WRITE        ACCESS:          0 HIT:          0 MISS:          0 MSHR_MERGE:          0
cpu0->cpu0_ITLB TRANSLATION  ACCESS:          0 HIT:          0 MISS:          0 MSHR_MERGE:          0
cpu0->cpu0_ITLB PREFETCH REQUESTED:          0 ISSUED:          0 USEFUL:          0 USELESS:          0
cpu0->cpu0_ITLB AVERAGE MISS LATENCY: 1.292e+04 cycles
cpu0->cpu0_DTLB TOTAL        ACCESS:  551964297 HIT:  551939599 MISS:      24698 MSHR_MERGE:       8714
cpu0->cpu0_DTLB LOAD         ACCESS:  551964297 HIT:  551939599 MISS:      24698 MSHR_MERGE:       8714
cpu0->cpu0_DTLB RFO          ACCESS:          0 HIT:          0 MISS:          0 MSHR_MERGE:          0
cpu0->cpu0_DTLB PREFETCH     ACCESS:          0 HIT:          0 MISS:          0 MSHR_MERGE:          0
cpu0->cpu0_DTLB WRITE        ACCESS:          0 HIT:          0 MISS:          0 MSHR_MERGE:          0
cpu0->cpu0_DTLB TRANSLATION  ACCESS:          0 HIT:          0 MISS:          0 MSHR_MERGE:          0
cpu0->cpu0_DTLB PREFETCH REQUESTED:          0 ISSUED:          0 USEFUL:          0 USELESS:          0
cpu0->cpu0_DTLB AVERAGE MISS LATENCY: 1353 cycles
cpu0->LLC TOTAL        ACCESS:   35701266 HIT:     113972 MISS:   35587294 MSHR_MERGE:          0
cpu0->LLC LOAD         ACCESS:   35634267 HIT:      63993 MISS:   35570274 MSHR_MERGE:          0
cpu0->LLC RFO          ACCESS:      16834 HIT:         95 MISS:      16739 MSHR_MERGE:          0
cpu0->LLC PREFETCH     ACCESS:          0 HIT:          0 MISS:          0 MSHR_MERGE:          0
cpu0->LLC WRITE        ACCESS:      50165 HIT:      49884 MISS:        281 MSHR_MERGE:          0
cpu0->LLC TRANSLATION  ACCESS:          0 HIT:          0 MISS:          0 MSHR_MERGE:          0
cpu0->LLC PREFETCH REQUESTED:          0 ISSUED:          0 USEFUL:          0 USELESS:          0
cpu0->LLC AVERAGE MISS LATENCY: 79.83 cycles

DRAM Statistics

Channel 0 RQ ROW_BUFFER_HIT:    3267604
  ROW_BUFFER_MISS:   14528215
  AVG DBUS CONGESTED CYCLE: 13.56
Channel 0 WQ ROW_BUFFER_HIT:       3219
  ROW_BUFFER_MISS:      21802
  FULL:          0
Channel 0 REFRESHES ISSUED:     439540

Channel 1 RQ ROW_BUFFER_HIT:    3267160
  ROW_BUFFER_MISS:   14530723
  AVG DBUS CONGESTED CYCLE: 13.6
Channel 1 WQ ROW_BUFFER_HIT:       3295
  ROW_BUFFER_MISS:      21767
  FULL:          0
Channel 1 REFRESHES ISSUED:     439540
