[VMEM] WARNING: physical memory size is smaller than virtual memory size.

*** ChampSim Multicore Out-of-Order Simulator ***
Warmup Instructions: 0
Simulation Instructions: 9223372036854775807
Number of CPUs: 1
Page size: 4096

Off-chip DRAM Size: 64 GiB Channels: 2 Width: 32-bit Data Rate: 4807 MT/s
[ERROR_PAGE_MANAGER] Error latency: 173500 
[ERROR_PAGE_MANAGER] Random seed: 54321 (fixed for preload reproducibility)
[ERROR_PAGE_MANAGER] Cycle-based error modeling enabled
[ERROR_PAGE_MANAGER] Errors per interval: 1
[ERROR_PAGE_MANAGER] Error cycle interval: 1000000000 cycles

=== ERROR PAGE STATISTICS ===
Mode: CYCLE
Error Cycle Interval: 1000000000 CPU cycles
Total Error Accesses: 0
==============================
Warmup finished CPU 0 instructions: 0 cycles: 1 cumulative IPC: 0 (Simulation time: 00 hr 00 min 01 sec)
Warmup complete CPU 0 instructions: 0 cycles: 1 cumulative IPC: 0 (Simulation time: 00 hr 00 min 01 sec)
Heartbeat CPU 0 instructions: 10000002 cycles: 6870258 heartbeat IPC: 1.456 cumulative IPC: 1.456 (Simulation time: 00 hr 00 min 55 sec)
Heartbeat CPU 0 instructions: 20000003 cycles: 13139793 heartbeat IPC: 1.595 cumulative IPC: 1.522 (Simulation time: 00 hr 01 min 51 sec)
Heartbeat CPU 0 instructions: 30000006 cycles: 19406558 heartbeat IPC: 1.596 cumulative IPC: 1.546 (Simulation time: 00 hr 02 min 46 sec)
Heartbeat CPU 0 instructions: 40000006 cycles: 25712054 heartbeat IPC: 1.586 cumulative IPC: 1.556 (Simulation time: 00 hr 03 min 39 sec)
Heartbeat CPU 0 instructions: 50000010 cycles: 31862727 heartbeat IPC: 1.626 cumulative IPC: 1.569 (Simulation time: 00 hr 04 min 35 sec)
Heartbeat CPU 0 instructions: 60000011 cycles: 37999373 heartbeat IPC: 1.63 cumulative IPC: 1.579 (Simulation time: 00 hr 05 min 31 sec)
Heartbeat CPU 0 instructions: 70000011 cycles: 43958901 heartbeat IPC: 1.678 cumulative IPC: 1.592 (Simulation time: 00 hr 06 min 26 sec)
Heartbeat CPU 0 instructions: 80000014 cycles: 49551110 heartbeat IPC: 1.788 cumulative IPC: 1.614 (Simulation time: 00 hr 07 min 04 sec)
Heartbeat CPU 0 instructions: 90000016 cycles: 55966672 heartbeat IPC: 1.559 cumulative IPC: 1.608 (Simulation time: 00 hr 07 min 58 sec)
Heartbeat CPU 0 instructions: 100000020 cycles: 61673118 heartbeat IPC: 1.752 cumulative IPC: 1.621 (Simulation time: 00 hr 08 min 51 sec)
Heartbeat CPU 0 instructions: 110000020 cycles: 67861545 heartbeat IPC: 1.616 cumulative IPC: 1.621 (Simulation time: 00 hr 09 min 45 sec)
Heartbeat CPU 0 instructions: 120000021 cycles: 73279271 heartbeat IPC: 1.846 cumulative IPC: 1.638 (Simulation time: 00 hr 10 min 34 sec)
Heartbeat CPU 0 instructions: 130000023 cycles: 78444753 heartbeat IPC: 1.936 cumulative IPC: 1.657 (Simulation time: 00 hr 11 min 20 sec)
Heartbeat CPU 0 instructions: 140000023 cycles: 82585017 heartbeat IPC: 2.415 cumulative IPC: 1.695 (Simulation time: 00 hr 11 min 56 sec)
Heartbeat CPU 0 instructions: 150000026 cycles: 87111445 heartbeat IPC: 2.209 cumulative IPC: 1.722 (Simulation time: 00 hr 12 min 34 sec)
Heartbeat CPU 0 instructions: 160000026 cycles: 91495995 heartbeat IPC: 2.281 cumulative IPC: 1.749 (Simulation time: 00 hr 13 min 12 sec)
Heartbeat CPU 0 instructions: 170000030 cycles: 96548575 heartbeat IPC: 1.979 cumulative IPC: 1.761 (Simulation time: 00 hr 13 min 56 sec)
Heartbeat CPU 0 instructions: 180000030 cycles: 102877871 heartbeat IPC: 1.58 cumulative IPC: 1.75 (Simulation time: 00 hr 14 min 40 sec)
Heartbeat CPU 0 instructions: 190000030 cycles: 109222920 heartbeat IPC: 1.576 cumulative IPC: 1.74 (Simulation time: 00 hr 15 min 20 sec)
Heartbeat CPU 0 instructions: 200000032 cycles: 115577162 heartbeat IPC: 1.574 cumulative IPC: 1.73 (Simulation time: 00 hr 15 min 59 sec)
Heartbeat CPU 0 instructions: 210000032 cycles: 121929070 heartbeat IPC: 1.574 cumulative IPC: 1.722 (Simulation time: 00 hr 16 min 46 sec)
Heartbeat CPU 0 instructions: 220000033 cycles: 128275985 heartbeat IPC: 1.576 cumulative IPC: 1.715 (Simulation time: 00 hr 17 min 41 sec)
Heartbeat CPU 0 instructions: 230000035 cycles: 134598190 heartbeat IPC: 1.582 cumulative IPC: 1.709 (Simulation time: 00 hr 18 min 36 sec)
Heartbeat CPU 0 instructions: 240000036 cycles: 140873279 heartbeat IPC: 1.594 cumulative IPC: 1.704 (Simulation time: 00 hr 19 min 30 sec)
Heartbeat CPU 0 instructions: 250000039 cycles: 146908609 heartbeat IPC: 1.657 cumulative IPC: 1.702 (Simulation time: 00 hr 20 min 07 sec)
Heartbeat CPU 0 instructions: 260000043 cycles: 153457232 heartbeat IPC: 1.527 cumulative IPC: 1.694 (Simulation time: 00 hr 20 min 49 sec)
Heartbeat CPU 0 instructions: 270000044 cycles: 159727504 heartbeat IPC: 1.595 cumulative IPC: 1.69 (Simulation time: 00 hr 21 min 30 sec)
Heartbeat CPU 0 instructions: 280000046 cycles: 165775664 heartbeat IPC: 1.653 cumulative IPC: 1.689 (Simulation time: 00 hr 22 min 21 sec)
Heartbeat CPU 0 instructions: 290000050 cycles: 172080499 heartbeat IPC: 1.586 cumulative IPC: 1.685 (Simulation time: 00 hr 23 min 15 sec)
Heartbeat CPU 0 instructions: 300000050 cycles: 177677129 heartbeat IPC: 1.787 cumulative IPC: 1.688 (Simulation time: 00 hr 24 min 04 sec)
Heartbeat CPU 0 instructions: 310000051 cycles: 183069055 heartbeat IPC: 1.855 cumulative IPC: 1.693 (Simulation time: 00 hr 24 min 47 sec)
Heartbeat CPU 0 instructions: 320000051 cycles: 187474978 heartbeat IPC: 2.27 cumulative IPC: 1.707 (Simulation time: 00 hr 25 min 21 sec)
Heartbeat CPU 0 instructions: 330000055 cycles: 192968715 heartbeat IPC: 1.82 cumulative IPC: 1.71 (Simulation time: 00 hr 26 min 05 sec)
Heartbeat CPU 0 instructions: 340000056 cycles: 197797463 heartbeat IPC: 2.071 cumulative IPC: 1.719 (Simulation time: 00 hr 26 min 47 sec)
Heartbeat CPU 0 instructions: 350000056 cycles: 202804815 heartbeat IPC: 1.997 cumulative IPC: 1.726 (Simulation time: 00 hr 27 min 25 sec)
Heartbeat CPU 0 instructions: 360000058 cycles: 209132999 heartbeat IPC: 1.58 cumulative IPC: 1.721 (Simulation time: 00 hr 28 min 12 sec)
Heartbeat CPU 0 instructions: 370000059 cycles: 215629474 heartbeat IPC: 1.539 cumulative IPC: 1.716 (Simulation time: 00 hr 29 min 09 sec)
Heartbeat CPU 0 instructions: 380000059 cycles: 222135798 heartbeat IPC: 1.537 cumulative IPC: 1.711 (Simulation time: 00 hr 30 min 05 sec)
Heartbeat CPU 0 instructions: 390000059 cycles: 228657165 heartbeat IPC: 1.533 cumulative IPC: 1.706 (Simulation time: 00 hr 31 min 02 sec)
Heartbeat CPU 0 instructions: 400000059 cycles: 235165061 heartbeat IPC: 1.537 cumulative IPC: 1.701 (Simulation time: 00 hr 31 min 58 sec)
Heartbeat CPU 0 instructions: 410000063 cycles: 241620022 heartbeat IPC: 1.549 cumulative IPC: 1.697 (Simulation time: 00 hr 32 min 53 sec)
Heartbeat CPU 0 instructions: 420000063 cycles: 247993295 heartbeat IPC: 1.569 cumulative IPC: 1.694 (Simulation time: 00 hr 33 min 49 sec)
Heartbeat CPU 0 instructions: 430000065 cycles: 254206355 heartbeat IPC: 1.61 cumulative IPC: 1.692 (Simulation time: 00 hr 34 min 43 sec)
Heartbeat CPU 0 instructions: 440000065 cycles: 259882484 heartbeat IPC: 1.762 cumulative IPC: 1.693 (Simulation time: 00 hr 35 min 33 sec)
Heartbeat CPU 0 instructions: 450000066 cycles: 267111600 heartbeat IPC: 1.383 cumulative IPC: 1.685 (Simulation time: 00 hr 36 min 30 sec)
Heartbeat CPU 0 instructions: 460000069 cycles: 272684754 heartbeat IPC: 1.794 cumulative IPC: 1.687 (Simulation time: 00 hr 37 min 21 sec)
Heartbeat CPU 0 instructions: 470000072 cycles: 279164170 heartbeat IPC: 1.543 cumulative IPC: 1.684 (Simulation time: 00 hr 38 min 03 sec)
Heartbeat CPU 0 instructions: 480000072 cycles: 285010816 heartbeat IPC: 1.71 cumulative IPC: 1.684 (Simulation time: 00 hr 38 min 45 sec)
Heartbeat CPU 0 instructions: 490000072 cycles: 289942609 heartbeat IPC: 2.028 cumulative IPC: 1.69 (Simulation time: 00 hr 39 min 20 sec)
Heartbeat CPU 0 instructions: 500000075 cycles: 294859957 heartbeat IPC: 2.034 cumulative IPC: 1.696 (Simulation time: 00 hr 39 min 58 sec)
Heartbeat CPU 0 instructions: 510000076 cycles: 299529394 heartbeat IPC: 2.142 cumulative IPC: 1.703 (Simulation time: 00 hr 40 min 37 sec)
Heartbeat CPU 0 instructions: 520000078 cycles: 305165830 heartbeat IPC: 1.774 cumulative IPC: 1.704 (Simulation time: 00 hr 41 min 23 sec)
Heartbeat CPU 0 instructions: 530000079 cycles: 309735737 heartbeat IPC: 2.188 cumulative IPC: 1.711 (Simulation time: 00 hr 42 min 02 sec)
Heartbeat CPU 0 instructions: 540000079 cycles: 315769244 heartbeat IPC: 1.657 cumulative IPC: 1.71 (Simulation time: 00 hr 42 min 53 sec)
Heartbeat CPU 0 instructions: 550000079 cycles: 322116985 heartbeat IPC: 1.575 cumulative IPC: 1.707 (Simulation time: 00 hr 43 min 41 sec)
Heartbeat CPU 0 instructions: 560000081 cycles: 328496584 heartbeat IPC: 1.567 cumulative IPC: 1.705 (Simulation time: 00 hr 44 min 26 sec)
Heartbeat CPU 0 instructions: 570000084 cycles: 334889868 heartbeat IPC: 1.564 cumulative IPC: 1.702 (Simulation time: 00 hr 45 min 24 sec)
Heartbeat CPU 0 instructions: 580000084 cycles: 341280133 heartbeat IPC: 1.565 cumulative IPC: 1.699 (Simulation time: 00 hr 46 min 13 sec)
Heartbeat CPU 0 instructions: 590000084 cycles: 347633663 heartbeat IPC: 1.574 cumulative IPC: 1.697 (Simulation time: 00 hr 47 min 02 sec)
Heartbeat CPU 0 instructions: 600000087 cycles: 353939897 heartbeat IPC: 1.586 cumulative IPC: 1.695 (Simulation time: 00 hr 47 min 59 sec)
Heartbeat CPU 0 instructions: 610000090 cycles: 360315197 heartbeat IPC: 1.569 cumulative IPC: 1.693 (Simulation time: 00 hr 48 min 56 sec)
Heartbeat CPU 0 instructions: 620000094 cycles: 365283236 heartbeat IPC: 2.013 cumulative IPC: 1.697 (Simulation time: 00 hr 49 min 39 sec)
Heartbeat CPU 0 instructions: 630000096 cycles: 373513793 heartbeat IPC: 1.215 cumulative IPC: 1.687 (Simulation time: 00 hr 50 min 41 sec)
Heartbeat CPU 0 instructions: 640000096 cycles: 379584039 heartbeat IPC: 1.647 cumulative IPC: 1.686 (Simulation time: 00 hr 51 min 33 sec)
Heartbeat CPU 0 instructions: 650000096 cycles: 385928684 heartbeat IPC: 1.576 cumulative IPC: 1.684 (Simulation time: 00 hr 52 min 18 sec)
Heartbeat CPU 0 instructions: 660000097 cycles: 392181265 heartbeat IPC: 1.599 cumulative IPC: 1.683 (Simulation time: 00 hr 53 min 09 sec)
Heartbeat CPU 0 instructions: 670000097 cycles: 396918695 heartbeat IPC: 2.111 cumulative IPC: 1.688 (Simulation time: 00 hr 53 min 36 sec)
Heartbeat CPU 0 instructions: 680000097 cycles: 402627141 heartbeat IPC: 1.752 cumulative IPC: 1.689 (Simulation time: 00 hr 54 min 08 sec)
Heartbeat CPU 0 instructions: 690000101 cycles: 406237792 heartbeat IPC: 2.77 cumulative IPC: 1.699 (Simulation time: 00 hr 54 min 41 sec)
Heartbeat CPU 0 instructions: 700000105 cycles: 412543853 heartbeat IPC: 1.586 cumulative IPC: 1.697 (Simulation time: 00 hr 55 min 31 sec)
Heartbeat CPU 0 instructions: 710000106 cycles: 417485115 heartbeat IPC: 2.024 cumulative IPC: 1.701 (Simulation time: 00 hr 56 min 04 sec)
Heartbeat CPU 0 instructions: 720000107 cycles: 423000473 heartbeat IPC: 1.813 cumulative IPC: 1.702 (Simulation time: 00 hr 56 min 37 sec)
Heartbeat CPU 0 instructions: 730000109 cycles: 429693529 heartbeat IPC: 1.494 cumulative IPC: 1.699 (Simulation time: 00 hr 57 min 34 sec)
Heartbeat CPU 0 instructions: 740000109 cycles: 436044174 heartbeat IPC: 1.575 cumulative IPC: 1.697 (Simulation time: 00 hr 58 min 25 sec)
Heartbeat CPU 0 instructions: 750000112 cycles: 442464725 heartbeat IPC: 1.557 cumulative IPC: 1.695 (Simulation time: 00 hr 59 min 09 sec)
Heartbeat CPU 0 instructions: 760000115 cycles: 448874494 heartbeat IPC: 1.56 cumulative IPC: 1.693 (Simulation time: 00 hr 59 min 55 sec)
Heartbeat CPU 0 instructions: 770000118 cycles: 455307622 heartbeat IPC: 1.554 cumulative IPC: 1.691 (Simulation time: 01 hr 00 min 37 sec)
Heartbeat CPU 0 instructions: 780000121 cycles: 461808889 heartbeat IPC: 1.538 cumulative IPC: 1.689 (Simulation time: 01 hr 01 min 25 sec)
Heartbeat CPU 0 instructions: 790000122 cycles: 468286657 heartbeat IPC: 1.544 cumulative IPC: 1.687 (Simulation time: 01 hr 02 min 23 sec)
Heartbeat CPU 0 instructions: 800000126 cycles: 473862389 heartbeat IPC: 1.793 cumulative IPC: 1.688 (Simulation time: 01 hr 03 min 13 sec)
Heartbeat CPU 0 instructions: 810000126 cycles: 481344659 heartbeat IPC: 1.336 cumulative IPC: 1.683 (Simulation time: 01 hr 04 min 00 sec)
Heartbeat CPU 0 instructions: 820000127 cycles: 487417248 heartbeat IPC: 1.647 cumulative IPC: 1.682 (Simulation time: 01 hr 04 min 46 sec)
Heartbeat CPU 0 instructions: 830000129 cycles: 493338092 heartbeat IPC: 1.689 cumulative IPC: 1.682 (Simulation time: 01 hr 05 min 32 sec)
Heartbeat CPU 0 instructions: 840000130 cycles: 499186194 heartbeat IPC: 1.71 cumulative IPC: 1.683 (Simulation time: 01 hr 06 min 14 sec)
Heartbeat CPU 0 instructions: 850000134 cycles: 504680706 heartbeat IPC: 1.82 cumulative IPC: 1.684 (Simulation time: 01 hr 07 min 00 sec)
Heartbeat CPU 0 instructions: 860000134 cycles: 510252018 heartbeat IPC: 1.795 cumulative IPC: 1.685 (Simulation time: 01 hr 07 min 47 sec)
Heartbeat CPU 0 instructions: 870000135 cycles: 514583999 heartbeat IPC: 2.308 cumulative IPC: 1.691 (Simulation time: 01 hr 08 min 15 sec)
Heartbeat CPU 0 instructions: 880000136 cycles: 520673292 heartbeat IPC: 1.642 cumulative IPC: 1.69 (Simulation time: 01 hr 08 min 47 sec)
Heartbeat CPU 0 instructions: 890000138 cycles: 525811084 heartbeat IPC: 1.946 cumulative IPC: 1.693 (Simulation time: 01 hr 09 min 19 sec)
Heartbeat CPU 0 instructions: 900000140 cycles: 530761708 heartbeat IPC: 2.02 cumulative IPC: 1.696 (Simulation time: 01 hr 10 min 01 sec)
Heartbeat CPU 0 instructions: 910000140 cycles: 537044549 heartbeat IPC: 1.592 cumulative IPC: 1.694 (Simulation time: 01 hr 10 min 55 sec)
Heartbeat CPU 0 instructions: 920000142 cycles: 543396522 heartbeat IPC: 1.574 cumulative IPC: 1.693 (Simulation time: 01 hr 11 min 51 sec)
Heartbeat CPU 0 instructions: 930000142 cycles: 549775914 heartbeat IPC: 1.568 cumulative IPC: 1.692 (Simulation time: 01 hr 12 min 48 sec)
Heartbeat CPU 0 instructions: 940000143 cycles: 556116714 heartbeat IPC: 1.577 cumulative IPC: 1.69 (Simulation time: 01 hr 13 min 44 sec)
Heartbeat CPU 0 instructions: 950000144 cycles: 562430411 heartbeat IPC: 1.584 cumulative IPC: 1.689 (Simulation time: 01 hr 14 min 42 sec)
Heartbeat CPU 0 instructions: 960000147 cycles: 568742729 heartbeat IPC: 1.584 cumulative IPC: 1.688 (Simulation time: 01 hr 15 min 35 sec)
Heartbeat CPU 0 instructions: 970000147 cycles: 575182208 heartbeat IPC: 1.553 cumulative IPC: 1.686 (Simulation time: 01 hr 16 min 14 sec)
Heartbeat CPU 0 instructions: 980000148 cycles: 581644859 heartbeat IPC: 1.547 cumulative IPC: 1.685 (Simulation time: 01 hr 16 min 53 sec)
Heartbeat CPU 0 instructions: 990000149 cycles: 587088135 heartbeat IPC: 1.837 cumulative IPC: 1.686 (Simulation time: 01 hr 17 min 28 sec)
Heartbeat CPU 0 instructions: 1000000149 cycles: 594656526 heartbeat IPC: 1.321 cumulative IPC: 1.682 (Simulation time: 01 hr 18 min 07 sec)
Heartbeat CPU 0 instructions: 1010000149 cycles: 600308518 heartbeat IPC: 1.769 cumulative IPC: 1.682 (Simulation time: 01 hr 18 min 44 sec)
Heartbeat CPU 0 instructions: 1020000150 cycles: 606853746 heartbeat IPC: 1.528 cumulative IPC: 1.681 (Simulation time: 01 hr 19 min 34 sec)
Heartbeat CPU 0 instructions: 1030000150 cycles: 612776392 heartbeat IPC: 1.688 cumulative IPC: 1.681 (Simulation time: 01 hr 20 min 28 sec)
Heartbeat CPU 0 instructions: 1040000151 cycles: 617851163 heartbeat IPC: 1.971 cumulative IPC: 1.683 (Simulation time: 01 hr 21 min 00 sec)
Heartbeat CPU 0 instructions: 1050000153 cycles: 623063832 heartbeat IPC: 1.918 cumulative IPC: 1.685 (Simulation time: 01 hr 21 min 30 sec)
Heartbeat CPU 0 instructions: 1060000153 cycles: 627670331 heartbeat IPC: 2.171 cumulative IPC: 1.689 (Simulation time: 01 hr 22 min 00 sec)
Heartbeat CPU 0 instructions: 1070000155 cycles: 634101899 heartbeat IPC: 1.555 cumulative IPC: 1.687 (Simulation time: 01 hr 22 min 52 sec)
Heartbeat CPU 0 instructions: 1080000159 cycles: 638610157 heartbeat IPC: 2.218 cumulative IPC: 1.691 (Simulation time: 01 hr 23 min 31 sec)
Heartbeat CPU 0 instructions: 1090000160 cycles: 644491964 heartbeat IPC: 1.7 cumulative IPC: 1.691 (Simulation time: 01 hr 24 min 21 sec)
Heartbeat CPU 0 instructions: 1100000160 cycles: 650979402 heartbeat IPC: 1.541 cumulative IPC: 1.69 (Simulation time: 01 hr 25 min 19 sec)
Heartbeat CPU 0 instructions: 1110000164 cycles: 657337786 heartbeat IPC: 1.573 cumulative IPC: 1.689 (Simulation time: 01 hr 26 min 16 sec)
Heartbeat CPU 0 instructions: 1120000167 cycles: 663702028 heartbeat IPC: 1.571 cumulative IPC: 1.688 (Simulation time: 01 hr 27 min 03 sec)
Heartbeat CPU 0 instructions: 1130000169 cycles: 670094134 heartbeat IPC: 1.564 cumulative IPC: 1.686 (Simulation time: 01 hr 27 min 56 sec)
Heartbeat CPU 0 instructions: 1140000169 cycles: 676445985 heartbeat IPC: 1.574 cumulative IPC: 1.685 (Simulation time: 01 hr 28 min 54 sec)
Heartbeat CPU 0 instructions: 1150000169 cycles: 682815256 heartbeat IPC: 1.57 cumulative IPC: 1.684 (Simulation time: 01 hr 29 min 52 sec)
Heartbeat CPU 0 instructions: 1160000169 cycles: 689338212 heartbeat IPC: 1.533 cumulative IPC: 1.683 (Simulation time: 01 hr 30 min 51 sec)
Heartbeat CPU 0 instructions: 1170000172 cycles: 694553769 heartbeat IPC: 1.917 cumulative IPC: 1.685 (Simulation time: 01 hr 31 min 40 sec)
Heartbeat CPU 0 instructions: 1180000172 cycles: 702484301 heartbeat IPC: 1.261 cumulative IPC: 1.68 (Simulation time: 01 hr 32 min 41 sec)
Heartbeat CPU 0 instructions: 1190000172 cycles: 708674805 heartbeat IPC: 1.615 cumulative IPC: 1.679 (Simulation time: 01 hr 33 min 35 sec)
[ERROR_CYCLE] Error added at CPU cycle 712780568, next at 915330628, pending count: 1
[DRAM_CYCLE_ERROR] Cycle-based error applied! address=0xf746f0b40 additional_latency=173500 cycles
Heartbeat CPU 0 instructions: 1200000172 cycles: 714911754 heartbeat IPC: 1.603 cumulative IPC: 1.679 (Simulation time: 01 hr 34 min 30 sec)
Heartbeat CPU 0 instructions: 1210000174 cycles: 720385838 heartbeat IPC: 1.827 cumulative IPC: 1.68 (Simulation time: 01 hr 35 min 21 sec)
Heartbeat CPU 0 instructions: 1220000176 cycles: 725740728 heartbeat IPC: 1.867 cumulative IPC: 1.681 (Simulation time: 01 hr 36 min 06 sec)
Heartbeat CPU 0 instructions: 1230000180 cycles: 731791621 heartbeat IPC: 1.653 cumulative IPC: 1.681 (Simulation time: 01 hr 36 min 55 sec)
Heartbeat CPU 0 instructions: 1240000181 cycles: 735086983 heartbeat IPC: 3.035 cumulative IPC: 1.687 (Simulation time: 01 hr 37 min 22 sec)
Heartbeat CPU 0 instructions: 1250000182 cycles: 741817074 heartbeat IPC: 1.486 cumulative IPC: 1.685 (Simulation time: 01 hr 37 min 58 sec)
Heartbeat CPU 0 instructions: 1260000186 cycles: 746561798 heartbeat IPC: 2.108 cumulative IPC: 1.688 (Simulation time: 01 hr 38 min 33 sec)
Heartbeat CPU 0 instructions: 1270000190 cycles: 751941251 heartbeat IPC: 1.859 cumulative IPC: 1.689 (Simulation time: 01 hr 39 min 12 sec)
Heartbeat CPU 0 instructions: 1280000192 cycles: 758460087 heartbeat IPC: 1.534 cumulative IPC: 1.688 (Simulation time: 01 hr 39 min 56 sec)
Heartbeat CPU 0 instructions: 1290000194 cycles: 764803168 heartbeat IPC: 1.577 cumulative IPC: 1.687 (Simulation time: 01 hr 40 min 34 sec)
Heartbeat CPU 0 instructions: 1300000198 cycles: 771166984 heartbeat IPC: 1.571 cumulative IPC: 1.686 (Simulation time: 01 hr 41 min 17 sec)
Heartbeat CPU 0 instructions: 1310000200 cycles: 777498025 heartbeat IPC: 1.58 cumulative IPC: 1.685 (Simulation time: 01 hr 42 min 01 sec)
Heartbeat CPU 0 instructions: 1320000203 cycles: 783789617 heartbeat IPC: 1.589 cumulative IPC: 1.684 (Simulation time: 01 hr 42 min 46 sec)
Heartbeat CPU 0 instructions: 1330000207 cycles: 790088595 heartbeat IPC: 1.588 cumulative IPC: 1.683 (Simulation time: 01 hr 43 min 27 sec)
Heartbeat CPU 0 instructions: 1340000207 cycles: 796620817 heartbeat IPC: 1.531 cumulative IPC: 1.682 (Simulation time: 01 hr 44 min 26 sec)
Heartbeat CPU 0 instructions: 1350000209 cycles: 802744825 heartbeat IPC: 1.633 cumulative IPC: 1.682 (Simulation time: 01 hr 45 min 20 sec)
Heartbeat CPU 0 instructions: 1360000212 cycles: 809790485 heartbeat IPC: 1.419 cumulative IPC: 1.679 (Simulation time: 01 hr 46 min 18 sec)
Heartbeat CPU 0 instructions: 1370000214 cycles: 815910944 heartbeat IPC: 1.634 cumulative IPC: 1.679 (Simulation time: 01 hr 47 min 08 sec)
Heartbeat CPU 0 instructions: 1380000218 cycles: 821976896 heartbeat IPC: 1.649 cumulative IPC: 1.679 (Simulation time: 01 hr 48 min 03 sec)
Heartbeat CPU 0 instructions: 1390000221 cycles: 828046268 heartbeat IPC: 1.648 cumulative IPC: 1.679 (Simulation time: 01 hr 48 min 58 sec)
Heartbeat CPU 0 instructions: 1400000221 cycles: 833618574 heartbeat IPC: 1.795 cumulative IPC: 1.679 (Simulation time: 01 hr 49 min 47 sec)
Heartbeat CPU 0 instructions: 1410000223 cycles: 839252617 heartbeat IPC: 1.775 cumulative IPC: 1.68 (Simulation time: 01 hr 50 min 36 sec)
Heartbeat CPU 0 instructions: 1420000225 cycles: 843575442 heartbeat IPC: 2.313 cumulative IPC: 1.683 (Simulation time: 01 hr 51 min 15 sec)
Heartbeat CPU 0 instructions: 1430000226 cycles: 849688140 heartbeat IPC: 1.636 cumulative IPC: 1.683 (Simulation time: 01 hr 52 min 03 sec)
Heartbeat CPU 0 instructions: 1440000227 cycles: 854974771 heartbeat IPC: 1.892 cumulative IPC: 1.684 (Simulation time: 01 hr 52 min 47 sec)
Heartbeat CPU 0 instructions: 1450000231 cycles: 859997387 heartbeat IPC: 1.991 cumulative IPC: 1.686 (Simulation time: 01 hr 53 min 31 sec)
Heartbeat CPU 0 instructions: 1460000235 cycles: 866390633 heartbeat IPC: 1.564 cumulative IPC: 1.685 (Simulation time: 01 hr 54 min 26 sec)
Heartbeat CPU 0 instructions: 1470000235 cycles: 872818419 heartbeat IPC: 1.556 cumulative IPC: 1.684 (Simulation time: 01 hr 55 min 24 sec)
Heartbeat CPU 0 instructions: 1480000239 cycles: 879269398 heartbeat IPC: 1.55 cumulative IPC: 1.683 (Simulation time: 01 hr 56 min 22 sec)
Heartbeat CPU 0 instructions: 1490000239 cycles: 885707616 heartbeat IPC: 1.553 cumulative IPC: 1.682 (Simulation time: 01 hr 57 min 20 sec)
Heartbeat CPU 0 instructions: 1500000241 cycles: 892075328 heartbeat IPC: 1.57 cumulative IPC: 1.681 (Simulation time: 01 hr 58 min 18 sec)
Heartbeat CPU 0 instructions: 1510000241 cycles: 898527609 heartbeat IPC: 1.55 cumulative IPC: 1.681 (Simulation time: 01 hr 59 min 15 sec)
Heartbeat CPU 0 instructions: 1520000242 cycles: 905076569 heartbeat IPC: 1.527 cumulative IPC: 1.679 (Simulation time: 02 hr 00 min 11 sec)
Heartbeat CPU 0 instructions: 1530000242 cycles: 911589855 heartbeat IPC: 1.535 cumulative IPC: 1.678 (Simulation time: 02 hr 01 min 06 sec)
[ERROR_CYCLE] Error added at CPU cycle 915330628, next at 2569606398, pending count: 1
[DRAM_CYCLE_ERROR] Cycle-based error applied! address=0x2a97c0040 additional_latency=173500 cycles
Heartbeat CPU 0 instructions: 1540000242 cycles: 917075506 heartbeat IPC: 1.823 cumulative IPC: 1.679 (Simulation time: 02 hr 01 min 49 sec)
Heartbeat CPU 0 instructions: 1550000243 cycles: 924407831 heartbeat IPC: 1.364 cumulative IPC: 1.677 (Simulation time: 02 hr 02 min 46 sec)
Heartbeat CPU 0 instructions: 1560000244 cycles: 930391789 heartbeat IPC: 1.671 cumulative IPC: 1.677 (Simulation time: 02 hr 03 min 40 sec)
Heartbeat CPU 0 instructions: 1570000244 cycles: 936845530 heartbeat IPC: 1.549 cumulative IPC: 1.676 (Simulation time: 02 hr 04 min 37 sec)
Heartbeat CPU 0 instructions: 1580000244 cycles: 942915123 heartbeat IPC: 1.648 cumulative IPC: 1.676 (Simulation time: 02 hr 05 min 34 sec)
Heartbeat CPU 0 instructions: 1590000245 cycles: 947751594 heartbeat IPC: 2.068 cumulative IPC: 1.678 (Simulation time: 02 hr 06 min 17 sec)
Heartbeat CPU 0 instructions: 1600000248 cycles: 953202051 heartbeat IPC: 1.835 cumulative IPC: 1.679 (Simulation time: 02 hr 07 min 04 sec)
Heartbeat CPU 0 instructions: 1610000250 cycles: 957271929 heartbeat IPC: 2.457 cumulative IPC: 1.682 (Simulation time: 02 hr 07 min 38 sec)
Heartbeat CPU 0 instructions: 1620000252 cycles: 963676904 heartbeat IPC: 1.561 cumulative IPC: 1.681 (Simulation time: 02 hr 08 min 22 sec)
Heartbeat CPU 0 instructions: 1630000256 cycles: 968467502 heartbeat IPC: 2.087 cumulative IPC: 1.683 (Simulation time: 02 hr 08 min 57 sec)
Heartbeat CPU 0 instructions: 1640000259 cycles: 974072098 heartbeat IPC: 1.784 cumulative IPC: 1.684 (Simulation time: 02 hr 09 min 30 sec)
Heartbeat CPU 0 instructions: 1650000260 cycles: 980800106 heartbeat IPC: 1.486 cumulative IPC: 1.682 (Simulation time: 02 hr 10 min 14 sec)
Heartbeat CPU 0 instructions: 1660000262 cycles: 987206856 heartbeat IPC: 1.561 cumulative IPC: 1.682 (Simulation time: 02 hr 11 min 06 sec)
Heartbeat CPU 0 instructions: 1670000265 cycles: 993595438 heartbeat IPC: 1.565 cumulative IPC: 1.681 (Simulation time: 02 hr 12 min 03 sec)
Heartbeat CPU 0 instructions: 1680000266 cycles: 1000021265 heartbeat IPC: 1.556 cumulative IPC: 1.68 (Simulation time: 02 hr 13 min 00 sec)
Heartbeat CPU 0 instructions: 1690000269 cycles: 1006448727 heartbeat IPC: 1.556 cumulative IPC: 1.679 (Simulation time: 02 hr 13 min 57 sec)
Heartbeat CPU 0 instructions: 1700000272 cycles: 1012876140 heartbeat IPC: 1.556 cumulative IPC: 1.678 (Simulation time: 02 hr 14 min 54 sec)
Heartbeat CPU 0 instructions: 1710000273 cycles: 1019465338 heartbeat IPC: 1.518 cumulative IPC: 1.677 (Simulation time: 02 hr 15 min 51 sec)
Heartbeat CPU 0 instructions: 1720000275 cycles: 1024876433 heartbeat IPC: 1.848 cumulative IPC: 1.678 (Simulation time: 02 hr 16 min 40 sec)
Heartbeat CPU 0 instructions: 1730000277 cycles: 1032647381 heartbeat IPC: 1.287 cumulative IPC: 1.675 (Simulation time: 02 hr 17 min 44 sec)
Heartbeat CPU 0 instructions: 1740000277 cycles: 1038787711 heartbeat IPC: 1.629 cumulative IPC: 1.675 (Simulation time: 02 hr 18 min 37 sec)
Heartbeat CPU 0 instructions: 1750000280 cycles: 1045251263 heartbeat IPC: 1.547 cumulative IPC: 1.674 (Simulation time: 02 hr 19 min 34 sec)
Heartbeat CPU 0 instructions: 1760000281 cycles: 1050993064 heartbeat IPC: 1.742 cumulative IPC: 1.675 (Simulation time: 02 hr 20 min 29 sec)
Heartbeat CPU 0 instructions: 1770000281 cycles: 1056187052 heartbeat IPC: 1.925 cumulative IPC: 1.676 (Simulation time: 02 hr 21 min 14 sec)
Heartbeat CPU 0 instructions: 1780000284 cycles: 1062152458 heartbeat IPC: 1.676 cumulative IPC: 1.676 (Simulation time: 02 hr 22 min 06 sec)
Heartbeat CPU 0 instructions: 1790000288 cycles: 1065377640 heartbeat IPC: 3.101 cumulative IPC: 1.68 (Simulation time: 02 hr 22 min 36 sec)
Heartbeat CPU 0 instructions: 1800000291 cycles: 1072305704 heartbeat IPC: 1.443 cumulative IPC: 1.679 (Simulation time: 02 hr 23 min 27 sec)
Heartbeat CPU 0 instructions: 1810000291 cycles: 1077032815 heartbeat IPC: 2.115 cumulative IPC: 1.681 (Simulation time: 02 hr 24 min 06 sec)
Heartbeat CPU 0 instructions: 1820000294 cycles: 1082617487 heartbeat IPC: 1.791 cumulative IPC: 1.681 (Simulation time: 02 hr 24 min 52 sec)
Heartbeat CPU 0 instructions: 1830000294 cycles: 1089351603 heartbeat IPC: 1.485 cumulative IPC: 1.68 (Simulation time: 02 hr 25 min 50 sec)
Heartbeat CPU 0 instructions: 1840000294 cycles: 1095871371 heartbeat IPC: 1.534 cumulative IPC: 1.679 (Simulation time: 02 hr 26 min 48 sec)
Heartbeat CPU 0 instructions: 1850000297 cycles: 1102348130 heartbeat IPC: 1.544 cumulative IPC: 1.678 (Simulation time: 02 hr 27 min 45 sec)
Heartbeat CPU 0 instructions: 1860000301 cycles: 1108847097 heartbeat IPC: 1.539 cumulative IPC: 1.677 (Simulation time: 02 hr 28 min 42 sec)
Heartbeat CPU 0 instructions: 1870000302 cycles: 1115393303 heartbeat IPC: 1.528 cumulative IPC: 1.677 (Simulation time: 02 hr 29 min 39 sec)
Heartbeat CPU 0 instructions: 1880000306 cycles: 1121950175 heartbeat IPC: 1.525 cumulative IPC: 1.676 (Simulation time: 02 hr 30 min 36 sec)
Heartbeat CPU 0 instructions: 1890000308 cycles: 1128585785 heartbeat IPC: 1.507 cumulative IPC: 1.675 (Simulation time: 02 hr 31 min 34 sec)
Heartbeat CPU 0 instructions: 1900000308 cycles: 1134525496 heartbeat IPC: 1.684 cumulative IPC: 1.675 (Simulation time: 02 hr 32 min 28 sec)
Heartbeat CPU 0 instructions: 1910000308 cycles: 1141953245 heartbeat IPC: 1.346 cumulative IPC: 1.673 (Simulation time: 02 hr 33 min 30 sec)
Heartbeat CPU 0 instructions: 1920000310 cycles: 1147800210 heartbeat IPC: 1.71 cumulative IPC: 1.673 (Simulation time: 02 hr 34 min 19 sec)
Heartbeat CPU 0 instructions: 1930000312 cycles: 1153158031 heartbeat IPC: 1.866 cumulative IPC: 1.674 (Simulation time: 02 hr 35 min 09 sec)
Heartbeat CPU 0 instructions: 1940000315 cycles: 1159946200 heartbeat IPC: 1.473 cumulative IPC: 1.672 (Simulation time: 02 hr 36 min 07 sec)
Heartbeat CPU 0 instructions: 1950000315 cycles: 1165879249 heartbeat IPC: 1.685 cumulative IPC: 1.673 (Simulation time: 02 hr 36 min 52 sec)
Heartbeat CPU 0 instructions: 1960000317 cycles: 1170973513 heartbeat IPC: 1.963 cumulative IPC: 1.674 (Simulation time: 02 hr 37 min 25 sec)
Heartbeat CPU 0 instructions: 1970000318 cycles: 1175883921 heartbeat IPC: 2.036 cumulative IPC: 1.675 (Simulation time: 02 hr 37 min 59 sec)
Heartbeat CPU 0 instructions: 1980000318 cycles: 1180781498 heartbeat IPC: 2.042 cumulative IPC: 1.677 (Simulation time: 02 hr 38 min 30 sec)
Heartbeat CPU 0 instructions: 1990000319 cycles: 1186906295 heartbeat IPC: 1.633 cumulative IPC: 1.677 (Simulation time: 02 hr 39 min 06 sec)

=== ERROR PAGE STATISTICS ===
Mode: CYCLE
Error Cycle Interval: 1000000000 CPU cycles
Total Error Accesses: 2
==============================
Simulation finished CPU 0 instructions: 1999999926 cycles: 1191562931 cumulative IPC: 1.678 (Simulation time: 02 hr 39 min 42 sec)
Simulation complete CPU 0 instructions: 1999999926 cycles: 1191562931 cumulative IPC: 1.678 (Simulation time: 02 hr 39 min 42 sec)

ChampSim completed all CPUs

=== Simulation ===
CPU 0 runs test_traces/628.pop2_s-17B.champsimtrace.xz

Region of Interest Statistics

CPU 0 cumulative IPC: 1.678 instructions: 1999999926 cycles: 1191562931
CPU 0 Branch Prediction Accuracy: 97.16% MPKI: 4.393 Average ROB Occupancy at Mispredict: 78.82
Branch type MPKI
BRANCH_DIRECT_JUMP: 0.02883
BRANCH_INDIRECT: 0.0006925
BRANCH_CONDITIONAL: 4.321
BRANCH_DIRECT_CALL: 0.0002875
BRANCH_INDIRECT_CALL: 0
BRANCH_RETURN: 0.04196

cpu0->cpu0_STLB TOTAL        ACCESS:     970100 HIT:     874898 MISS:      95202 MSHR_MERGE:          0
cpu0->cpu0_STLB LOAD         ACCESS:     970100 HIT:     874898 MISS:      95202 MSHR_MERGE:          0
cpu0->cpu0_STLB RFO          ACCESS:          0 HIT:          0 MISS:          0 MSHR_MERGE:          0
cpu0->cpu0_STLB PREFETCH     ACCESS:          0 HIT:          0 MISS:          0 MSHR_MERGE:          0
cpu0->cpu0_STLB WRITE        ACCESS:          0 HIT:          0 MISS:          0 MSHR_MERGE:          0
cpu0->cpu0_STLB TRANSLATION  ACCESS:          0 HIT:          0 MISS:          0 MSHR_MERGE:          0
cpu0->cpu0_STLB PREFETCH REQUESTED:          0 ISSUED:          0 USEFUL:          0 USELESS:          0
cpu0->cpu0_STLB AVERAGE MISS LATENCY: 435.9 cycles
cpu0->cpu0_L2C TOTAL        ACCESS:   43525150 HIT:   30699737 MISS:   12825413 MSHR_MERGE:          0
cpu0->cpu0_L2C LOAD         ACCESS:   20310934 HIT:   11704480 MISS:    8606454 MSHR_MERGE:          0
cpu0->cpu0_L2C RFO          ACCESS:    9924934 HIT:    5715001 MISS:    4209933 MSHR_MERGE:          0
cpu0->cpu0_L2C PREFETCH     ACCESS:          0 HIT:          0 MISS:          0 MSHR_MERGE:          0
cpu0->cpu0_L2C WRITE        ACCESS:   13289282 HIT:   13280256 MISS:       9026 MSHR_MERGE:          0
cpu0->cpu0_L2C TRANSLATION  ACCESS:          0 HIT:          0 MISS:          0 MSHR_MERGE:          0
cpu0->cpu0_L2C PREFETCH REQUESTED:          0 ISSUED:          0 USEFUL:          0 USELESS:          0
cpu0->cpu0_L2C AVERAGE MISS LATENCY: 72.37 cycles
cpu0->cpu0_L1I TOTAL        ACCESS:  104493853 HIT:  102566663 MISS:    1927190 MSHR_MERGE:     936642
cpu0->cpu0_L1I LOAD         ACCESS:  104493853 HIT:  102566663 MISS:    1927190 MSHR_MERGE:     936642
cpu0->cpu0_L1I RFO          ACCESS:          0 HIT:          0 MISS:          0 MSHR_MERGE:          0
cpu0->cpu0_L1I PREFETCH     ACCESS:          0 HIT:          0 MISS:          0 MSHR_MERGE:          0
cpu0->cpu0_L1I WRITE        ACCESS:          0 HIT:          0 MISS:          0 MSHR_MERGE:          0
cpu0->cpu0_L1I TRANSLATION  ACCESS:          0 HIT:          0 MISS:          0 MSHR_MERGE:          0
cpu0->cpu0_L1I PREFETCH REQUESTED:          0 ISSUED:          0 USEFUL:          0 USELESS:          0
cpu0->cpu0_L1I AVERAGE MISS LATENCY: 27.02 cycles
cpu0->cpu0_L1D TOTAL        ACCESS:  487389198 HIT:  414966633 MISS:   72422565 MSHR_MERGE:   43176928
cpu0->cpu0_L1D LOAD         ACCESS:  353240477 HIT:  315361948 MISS:   37878529 MSHR_MERGE:   18557954
cpu0->cpu0_L1D RFO          ACCESS:          0 HIT:          0 MISS:          0 MSHR_MERGE:          0
cpu0->cpu0_L1D PREFETCH     ACCESS:          0 HIT:          0 MISS:          0 MSHR_MERGE:          0
cpu0->cpu0_L1D WRITE        ACCESS:  134148721 HIT:   99604685 MISS:   34544036 MSHR_MERGE:   24618974
cpu0->cpu0_L1D TRANSLATION  ACCESS:          0 HIT:          0 MISS:          0 MSHR_MERGE:          0
cpu0->cpu0_L1D PREFETCH REQUESTED:          0 ISSUED:          0 USEFUL:          0 USELESS:          0
cpu0->cpu0_L1D AVERAGE MISS LATENCY: 39.61 cycles
cpu0->cpu0_ITLB TOTAL        ACCESS:   87497370 HIT:   87391263 MISS:     106107 MSHR_MERGE:      64694
cpu0->cpu0_ITLB LOAD         ACCESS:   87497370 HIT:   87391263 MISS:     106107 MSHR_MERGE:      64694
cpu0->cpu0_ITLB RFO          ACCESS:          0 HIT:          0 MISS:          0 MSHR_MERGE:          0
cpu0->cpu0_ITLB PREFETCH     ACCESS:          0 HIT:          0 MISS:          0 MSHR_MERGE:          0
cpu0->cpu0_ITLB WRITE        ACCESS:          0 HIT:          0 MISS:          0 MSHR_MERGE:          0
cpu0->cpu0_ITLB TRANSLATION  ACCESS:          0 HIT:          0 MISS:          0 MSHR_MERGE:          0
cpu0->cpu0_ITLB PREFETCH REQUESTED:          0 ISSUED:          0 USEFUL:          0 USELESS:          0
cpu0->cpu0_ITLB AVERAGE MISS LATENCY: 12.98 cycles
cpu0->cpu0_DTLB TOTAL        ACCESS:  453811837 HIT:  451804745 MISS:    2007092 MSHR_MERGE:    1078405
cpu0->cpu0_DTLB LOAD         ACCESS:  453811837 HIT:  451804745 MISS:    2007092 MSHR_MERGE:    1078405
cpu0->cpu0_DTLB RFO          ACCESS:          0 HIT:          0 MISS:          0 MSHR_MERGE:          0
cpu0->cpu0_DTLB PREFETCH     ACCESS:          0 HIT:          0 MISS:          0 MSHR_MERGE:          0
cpu0->cpu0_DTLB WRITE        ACCESS:          0 HIT:          0 MISS:          0 MSHR_MERGE:          0
cpu0->cpu0_DTLB TRANSLATION  ACCESS:          0 HIT:          0 MISS:          0 MSHR_MERGE:          0
cpu0->cpu0_DTLB PREFETCH REQUESTED:          0 ISSUED:          0 USEFUL:          0 USELESS:          0
cpu0->cpu0_DTLB AVERAGE MISS LATENCY: 49.46 cycles
cpu0->LLC TOTAL        ACCESS:   18781036 HIT:   11606528 MISS:    7174508 MSHR_MERGE:          0
cpu0->LLC LOAD         ACCESS:    8606454 HIT:    4175989 MISS:    4430465 MSHR_MERGE:          0
cpu0->LLC RFO          ACCESS:    4209933 HIT:    1527910 MISS:    2682023 MSHR_MERGE:          0
cpu0->LLC PREFETCH     ACCESS:          0 HIT:          0 MISS:          0 MSHR_MERGE:          0
cpu0->LLC WRITE        ACCESS:    5964649 HIT:    5902629 MISS:      62020 MSHR_MERGE:          0
cpu0->LLC TRANSLATION  ACCESS:          0 HIT:          0 MISS:          0 MSHR_MERGE:          0
cpu0->LLC PREFETCH REQUESTED:          0 ISSUED:          0 USEFUL:          0 USELESS:          0
cpu0->LLC AVERAGE MISS LATENCY: 101.6 cycles

DRAM Statistics

Channel 0 RQ ROW_BUFFER_HIT:       2289
  ROW_BUFFER_MISS:    3656108
  AVG DBUS CONGESTED CYCLE: 10.26
Channel 0 WQ ROW_BUFFER_HIT:     265263
  ROW_BUFFER_MISS:    1547933
  FULL:        165
Channel 0 REFRESHES ISSUED:      99290

Channel 1 RQ ROW_BUFFER_HIT:       2328
  ROW_BUFFER_MISS:    3654424
  AVG DBUS CONGESTED CYCLE: 10.27
Channel 1 WQ ROW_BUFFER_HIT:     264763
  ROW_BUFFER_MISS:    1548274
  FULL:        213
Channel 1 REFRESHES ISSUED:      99290
