[VMEM] WARNING: physical memory size is smaller than virtual memory size.

*** ChampSim Multicore Out-of-Order Simulator ***
Warmup Instructions: 0
Simulation Instructions: 9223372036854775807
Number of CPUs: 1
Page size: 4096

Off-chip DRAM Size: 64 GiB Channels: 2 Width: 32-bit Data Rate: 4807 MT/s
[ERROR_PAGE_MANAGER] Error latency: 173500 
[ERROR_PAGE_MANAGER] Random seed: 54321 (fixed for preload reproducibility)
[ERROR_PAGE_MANAGER] Cycle-based error modeling enabled
[ERROR_PAGE_MANAGER] Errors per interval: 1
[ERROR_PAGE_MANAGER] Error cycle interval: 10000000 cycles

=== ERROR PAGE STATISTICS ===
Mode: CYCLE
Error Cycle Interval: 10000000 CPU cycles
Total Error Accesses: 0
==============================
Warmup finished CPU 0 instructions: 0 cycles: 1 cumulative IPC: 0 (Simulation time: 00 hr 00 min 01 sec)
Warmup complete CPU 0 instructions: 0 cycles: 1 cumulative IPC: 0 (Simulation time: 00 hr 00 min 01 sec)
[ERROR_CYCLE] Error added at CPU cycle 7127805, next at 9153305, pending count: 1
[DRAM_CYCLE_ERROR] Cycle-based error applied! address=0xfef280100 additional_latency=173500 cycles
[ERROR_CYCLE] Error added at CPU cycle 9153306, next at 25696063, pending count: 1
[DRAM_CYCLE_ERROR] Cycle-based error applied! address=0xd63bb1400 additional_latency=173500 cycles
Heartbeat CPU 0 instructions: 10000001 cycles: 16030022 heartbeat IPC: 0.6238 cumulative IPC: 0.6238 (Simulation time: 00 hr 02 min 16 sec)
[ERROR_CYCLE] Error added at CPU cycle 25696063, next at 53467688, pending count: 1
[DRAM_CYCLE_ERROR] Cycle-based error applied! address=0x32fdcc470 additional_latency=173500 cycles
Heartbeat CPU 0 instructions: 20000004 cycles: 32007922 heartbeat IPC: 0.6259 cumulative IPC: 0.6248 (Simulation time: 00 hr 04 min 26 sec)
Heartbeat CPU 0 instructions: 30000005 cycles: 47954402 heartbeat IPC: 0.6271 cumulative IPC: 0.6256 (Simulation time: 00 hr 06 min 50 sec)
[ERROR_CYCLE] Error added at CPU cycle 53467689, next at 53768224, pending count: 1
[DRAM_CYCLE_ERROR] Cycle-based error applied! address=0xd3d935f00 additional_latency=173500 cycles
[ERROR_CYCLE] Error added at CPU cycle 53768224, next at 69138641, pending count: 1
[DRAM_CYCLE_ERROR] Cycle-based error applied! address=0x712bda9e0 additional_latency=173500 cycles
Heartbeat CPU 0 instructions: 40000008 cycles: 63919557 heartbeat IPC: 0.6264 cumulative IPC: 0.6258 (Simulation time: 00 hr 09 min 09 sec)
[ERROR_CYCLE] Error added at CPU cycle 69138642, next at 70928443, pending count: 1
[DRAM_CYCLE_ERROR] Cycle-based error applied! address=0x4499c83c8 additional_latency=173500 cycles
[ERROR_CYCLE] Error added at CPU cycle 70928444, next at 76617422, pending count: 1
[DRAM_CYCLE_ERROR] Cycle-based error applied! address=0x80ff94650 additional_latency=173500 cycles
[ERROR_CYCLE] Error added at CPU cycle 76617422, next at 85156860, pending count: 1
[DRAM_CYCLE_ERROR] Cycle-based error applied! address=0xfa07e9940 additional_latency=173500 cycles
Heartbeat CPU 0 instructions: 50000010 cycles: 79890353 heartbeat IPC: 0.6261 cumulative IPC: 0.6259 (Simulation time: 00 hr 11 min 33 sec)
[ERROR_CYCLE] Error added at CPU cycle 85156860, next at 87603375, pending count: 1
[DRAM_CYCLE_ERROR] Cycle-based error applied! address=0xf5eecd280 additional_latency=173500 cycles
[ERROR_CYCLE] Error added at CPU cycle 87603376, next at 105362955, pending count: 1
[DRAM_CYCLE_ERROR] Cycle-based error applied! address=0x50f8c9f30 additional_latency=173500 cycles
Heartbeat CPU 0 instructions: 60000010 cycles: 95846261 heartbeat IPC: 0.6267 cumulative IPC: 0.626 (Simulation time: 00 hr 13 min 57 sec)
[ERROR_CYCLE] Error added at CPU cycle 105362955, next at 108923137, pending count: 1
[DRAM_CYCLE_ERROR] Cycle-based error applied! address=0x20ea55000 additional_latency=173500 cycles
[ERROR_CYCLE] Error added at CPU cycle 108923137, next at 113398998, pending count: 1
[DRAM_CYCLE_ERROR] Cycle-based error applied! address=0x234ff1620 additional_latency=173500 cycles
Heartbeat CPU 0 instructions: 70000010 cycles: 111805664 heartbeat IPC: 0.6266 cumulative IPC: 0.6261 (Simulation time: 00 hr 16 min 12 sec)
[ERROR_CYCLE] Error added at CPU cycle 113398999, next at 133751835, pending count: 1
[DRAM_CYCLE_ERROR] Cycle-based error applied! address=0xd91d39050 additional_latency=173500 cycles
Heartbeat CPU 0 instructions: 80000010 cycles: 127735121 heartbeat IPC: 0.6278 cumulative IPC: 0.6263 (Simulation time: 00 hr 18 min 26 sec)
[ERROR_CYCLE] Error added at CPU cycle 133751835, next at 133874359, pending count: 1
[DRAM_CYCLE_ERROR] Cycle-based error applied! address=0x5bfe41230 additional_latency=173500 cycles
[ERROR_CYCLE] Error added at CPU cycle 133874359, next at 145123863, pending count: 1
[DRAM_CYCLE_ERROR] Cycle-based error applied! address=0xe23a0e3c0 additional_latency=173500 cycles
Heartbeat CPU 0 instructions: 90000011 cycles: 143686085 heartbeat IPC: 0.6269 cumulative IPC: 0.6264 (Simulation time: 00 hr 20 min 31 sec)
[ERROR_CYCLE] Error added at CPU cycle 145123863, next at 151687113, pending count: 1
[DRAM_CYCLE_ERROR] Cycle-based error applied! address=0xc432ae800 additional_latency=173500 cycles
[ERROR_CYCLE] Error added at CPU cycle 151687113, next at 189526482, pending count: 1
[DRAM_CYCLE_ERROR] Cycle-based error applied! address=0x923097948 additional_latency=173500 cycles
Heartbeat CPU 0 instructions: 100000012 cycles: 159627202 heartbeat IPC: 0.6273 cumulative IPC: 0.6265 (Simulation time: 00 hr 22 min 45 sec)
Heartbeat CPU 0 instructions: 110000012 cycles: 175552427 heartbeat IPC: 0.6279 cumulative IPC: 0.6266 (Simulation time: 00 hr 25 min 06 sec)
[ERROR_CYCLE] Error added at CPU cycle 189526483, next at 191895927, pending count: 1
[DRAM_CYCLE_ERROR] Cycle-based error applied! address=0x1176f7740 additional_latency=173500 cycles
Heartbeat CPU 0 instructions: 120000015 cycles: 191506314 heartbeat IPC: 0.6268 cumulative IPC: 0.6266 (Simulation time: 00 hr 27 min 30 sec)
[ERROR_CYCLE] Error added at CPU cycle 191895927, next at 194297025, pending count: 1
[DRAM_CYCLE_ERROR] Cycle-based error applied! address=0x493b7e700 additional_latency=173500 cycles
[ERROR_CYCLE] Error added at CPU cycle 194297026, next at 223119032, pending count: 1
[DRAM_CYCLE_ERROR] Cycle-based error applied! address=0x1d549e658 additional_latency=173500 cycles
Heartbeat CPU 0 instructions: 130000019 cycles: 207468826 heartbeat IPC: 0.6265 cumulative IPC: 0.6266 (Simulation time: 00 hr 29 min 54 sec)
[ERROR_CYCLE] Error added at CPU cycle 223119032, next at 227066706, pending count: 1
[DRAM_CYCLE_ERROR] Cycle-based error applied! address=0xd2b8c8c40 additional_latency=173500 cycles
Heartbeat CPU 0 instructions: 140000020 cycles: 223391439 heartbeat IPC: 0.628 cumulative IPC: 0.6267 (Simulation time: 00 hr 32 min 16 sec)
[ERROR_CYCLE] Error added at CPU cycle 227066706, next at 269846489, pending count: 1
[DRAM_CYCLE_ERROR] Cycle-based error applied! address=0xfec8ec040 additional_latency=173500 cycles
Heartbeat CPU 0 instructions: 150000024 cycles: 239344399 heartbeat IPC: 0.6268 cumulative IPC: 0.6267 (Simulation time: 00 hr 34 min 11 sec)
Heartbeat CPU 0 instructions: 160000026 cycles: 255305667 heartbeat IPC: 0.6265 cumulative IPC: 0.6267 (Simulation time: 00 hr 35 min 59 sec)
[ERROR_CYCLE] Error added at CPU cycle 269846490, next at 275597170, pending count: 1
[DRAM_CYCLE_ERROR] Cycle-based error applied! address=0xe3ca17a80 additional_latency=173500 cycles
Heartbeat CPU 0 instructions: 170000026 cycles: 271241117 heartbeat IPC: 0.6275 cumulative IPC: 0.6267 (Simulation time: 00 hr 38 min 20 sec)
[ERROR_CYCLE] Error added at CPU cycle 275597171, next at 309231635, pending count: 1
[DRAM_CYCLE_ERROR] Cycle-based error applied! address=0x731fc9540 additional_latency=173500 cycles
Heartbeat CPU 0 instructions: 180000027 cycles: 287185722 heartbeat IPC: 0.6272 cumulative IPC: 0.6268 (Simulation time: 00 hr 40 min 40 sec)
Heartbeat CPU 0 instructions: 190000027 cycles: 303145264 heartbeat IPC: 0.6266 cumulative IPC: 0.6268 (Simulation time: 00 hr 43 min 01 sec)
[ERROR_CYCLE] Error added at CPU cycle 309231636, next at 312214761, pending count: 1
[DRAM_CYCLE_ERROR] Cycle-based error applied! address=0xa7e1c56c8 additional_latency=173500 cycles
[ERROR_CYCLE] Error added at CPU cycle 312214762, next at 326484517, pending count: 1
[DRAM_CYCLE_ERROR] Cycle-based error applied! address=0xbda8351c0 additional_latency=173500 cycles
Heartbeat CPU 0 instructions: 200000029 cycles: 319070667 heartbeat IPC: 0.6279 cumulative IPC: 0.6268 (Simulation time: 00 hr 44 min 48 sec)
[ERROR_CYCLE] Error added at CPU cycle 326484517, next at 328619258, pending count: 1
[DRAM_CYCLE_ERROR] Cycle-based error applied! address=0xd18db6028 additional_latency=173500 cycles
[ERROR_CYCLE] Error added at CPU cycle 328619258, next at 331945338, pending count: 1
[DRAM_CYCLE_ERROR] Cycle-based error applied! address=0x3a96472e8 additional_latency=173500 cycles
[ERROR_CYCLE] Error added at CPU cycle 331945339, next at 346622017, pending count: 1
[DRAM_CYCLE_ERROR] Cycle-based error applied! address=0x668cf32c0 additional_latency=173500 cycles
Heartbeat CPU 0 instructions: 210000029 cycles: 335012616 heartbeat IPC: 0.6273 cumulative IPC: 0.6268 (Simulation time: 00 hr 47 min 07 sec)
[ERROR_CYCLE] Error added at CPU cycle 346622017, next at 346704171, pending count: 1
[DRAM_CYCLE_ERROR] Cycle-based error applied! address=0x8044c7000 additional_latency=173500 cycles
[ERROR_CYCLE] Error added at CPU cycle 346704171, next at 351055557, pending count: 1
[DRAM_CYCLE_ERROR] Cycle-based error applied! address=0x5863d6a40 additional_latency=173500 cycles
Heartbeat CPU 0 instructions: 220000031 cycles: 350959197 heartbeat IPC: 0.6271 cumulative IPC: 0.6269 (Simulation time: 00 hr 49 min 26 sec)
[ERROR_CYCLE] Error added at CPU cycle 351055557, next at 353715518, pending count: 1
[DRAM_CYCLE_ERROR] Cycle-based error applied! address=0x45bd7e0c0 additional_latency=173500 cycles
[ERROR_CYCLE] Error added at CPU cycle 353715518, next at 358578569, pending count: 1
[DRAM_CYCLE_ERROR] Cycle-based error applied! address=0x7830bbfc0 additional_latency=173500 cycles
[ERROR_CYCLE] Error added at CPU cycle 358578569, next at 359734081, pending count: 1
[DRAM_CYCLE_ERROR] Cycle-based error applied! address=0x1ac2cdac0 additional_latency=173500 cycles
[ERROR_CYCLE] Error added at CPU cycle 359734081, next at 364965560, pending count: 1
[DRAM_CYCLE_ERROR] Cycle-based error applied! address=0xece57c80 additional_latency=173500 cycles
[ERROR_CYCLE] Error added at CPU cycle 364965560, next at 370163876, pending count: 1
[DRAM_CYCLE_ERROR] Cycle-based error applied! address=0x5ab0c14a8 additional_latency=173500 cycles
Heartbeat CPU 0 instructions: 230000031 cycles: 366906546 heartbeat IPC: 0.6271 cumulative IPC: 0.6269 (Simulation time: 00 hr 51 min 44 sec)
[ERROR_CYCLE] Error added at CPU cycle 370163876, next at 384861686, pending count: 1
[DRAM_CYCLE_ERROR] Cycle-based error applied! address=0x3f32f8680 additional_latency=173500 cycles
Heartbeat CPU 0 instructions: 240000034 cycles: 382858101 heartbeat IPC: 0.6269 cumulative IPC: 0.6269 (Simulation time: 00 hr 54 min 02 sec)
[ERROR_CYCLE] Error added at CPU cycle 384861686, next at 403305050, pending count: 1
[DRAM_CYCLE_ERROR] Cycle-based error applied! address=0x256ea4f00 additional_latency=173500 cycles
Heartbeat CPU 0 instructions: 250000038 cycles: 398799483 heartbeat IPC: 0.6273 cumulative IPC: 0.6269 (Simulation time: 00 hr 56 min 21 sec)
[ERROR_CYCLE] Error added at CPU cycle 403305051, next at 408299099, pending count: 1
[DRAM_CYCLE_ERROR] Cycle-based error applied! address=0x7eab7fcc0 additional_latency=173500 cycles
[ERROR_CYCLE] Error added at CPU cycle 408299099, next at 414578861, pending count: 1
[DRAM_CYCLE_ERROR] Cycle-based error applied! address=0x30e4d50f8 additional_latency=173500 cycles
[ERROR_CYCLE] Error added at CPU cycle 414578862, next at 415677269, pending count: 1
[DRAM_CYCLE_ERROR] Cycle-based error applied! address=0xee3fca7c0 additional_latency=173500 cycles
Heartbeat CPU 0 instructions: 260000040 cycles: 414752967 heartbeat IPC: 0.6268 cumulative IPC: 0.6269 (Simulation time: 00 hr 58 min 39 sec)
[ERROR_CYCLE] Error added at CPU cycle 415677270, next at 417793974, pending count: 1
[DRAM_CYCLE_ERROR] Cycle-based error applied! address=0xf34f0e340 additional_latency=173500 cycles
[ERROR_CYCLE] Error added at CPU cycle 417793975, next at 428962166, pending count: 1
[DRAM_CYCLE_ERROR] Cycle-based error applied! address=0x238736aa8 additional_latency=173500 cycles
[ERROR_CYCLE] Error added at CPU cycle 428962167, next at 435398726, pending count: 1
[DRAM_CYCLE_ERROR] Cycle-based error applied! address=0x8f7b9a6c0 additional_latency=173500 cycles
Heartbeat CPU 0 instructions: 270000041 cycles: 430720170 heartbeat IPC: 0.6263 cumulative IPC: 0.6269 (Simulation time: 01 hr 00 min 58 sec)
[ERROR_CYCLE] Error added at CPU cycle 435398727, next at 451570558, pending count: 1
[DRAM_CYCLE_ERROR] Cycle-based error applied! address=0xe5d455958 additional_latency=173500 cycles
[ERROR_CYCLE] Error added at CPU cycle 451570559, next at 454416191, pending count: 1
[DRAM_CYCLE_ERROR] Cycle-based error applied! address=0xadbf1b1c8 additional_latency=173500 cycles
[ERROR_CYCLE] Error added at CPU cycle 454416192, next at 467943289, pending count: 1
[DRAM_CYCLE_ERROR] Cycle-based error applied! address=0x49cdf7db8 additional_latency=173500 cycles
Heartbeat CPU 0 instructions: 280000044 cycles: 462668041 heartbeat IPC: 0.313 cumulative IPC: 0.6052 (Simulation time: 01 hr 05 min 14 sec)
[ERROR_CYCLE] Error added at CPU cycle 467943289, next at 479150351, pending count: 1
[DRAM_CYCLE_ERROR] Cycle-based error applied! address=0x5a78c1fd0 additional_latency=173500 cycles
[ERROR_CYCLE] Error added at CPU cycle 479150352, next at 489818806, pending count: 1
[DRAM_CYCLE_ERROR] Cycle-based error applied! address=0x8b51f21b8 additional_latency=173500 cycles
[ERROR_CYCLE] Error added at CPU cycle 489818807, next at 492199391, pending count: 1
[DRAM_CYCLE_ERROR] Cycle-based error applied! address=0x352445c00 additional_latency=173500 cycles
[ERROR_CYCLE] Error added at CPU cycle 492199392, next at 501105066, pending count: 1
[DRAM_CYCLE_ERROR] Cycle-based error applied! address=0xae4d1d000 additional_latency=173500 cycles
Heartbeat CPU 0 instructions: 290000047 cycles: 494495395 heartbeat IPC: 0.3142 cumulative IPC: 0.5865 (Simulation time: 01 hr 09 min 14 sec)
[ERROR_CYCLE] Error added at CPU cycle 501105067, next at 516413942, pending count: 1
[DRAM_CYCLE_ERROR] Cycle-based error applied! address=0x165ceacc0 additional_latency=173500 cycles
Heartbeat CPU 0 instructions: 300000048 cycles: 511058650 heartbeat IPC: 0.6037 cumulative IPC: 0.587 (Simulation time: 01 hr 11 min 02 sec)
[ERROR_CYCLE] Error added at CPU cycle 516413943, next at 523258148, pending count: 1
[DRAM_CYCLE_ERROR] Cycle-based error applied! address=0x6a2f71b00 additional_latency=173500 cycles
[ERROR_CYCLE] Error added at CPU cycle 523258148, next at 524320531, pending count: 1
[DRAM_CYCLE_ERROR] Cycle-based error applied! address=0x3361ac470 additional_latency=173500 cycles
[ERROR_CYCLE] Error added at CPU cycle 524320531, next at 545421303, pending count: 1
[DRAM_CYCLE_ERROR] Cycle-based error applied! address=0x3813db270 additional_latency=173500 cycles
Heartbeat CPU 0 instructions: 310000049 cycles: 526931505 heartbeat IPC: 0.63 cumulative IPC: 0.5883 (Simulation time: 01 hr 12 min 49 sec)
Heartbeat CPU 0 instructions: 320000049 cycles: 542802893 heartbeat IPC: 0.6301 cumulative IPC: 0.5895 (Simulation time: 01 hr 14 min 42 sec)
[ERROR_CYCLE] Error added at CPU cycle 545421304, next at 555011553, pending count: 1
[DRAM_CYCLE_ERROR] Cycle-based error applied! address=0x6155e8f80 additional_latency=173500 cycles
[ERROR_CYCLE] Error added at CPU cycle 555011553, next at 566707107, pending count: 1
[DRAM_CYCLE_ERROR] Cycle-based error applied! address=0xde3f9f440 additional_latency=173500 cycles
Heartbeat CPU 0 instructions: 330000049 cycles: 557819535 heartbeat IPC: 0.6659 cumulative IPC: 0.5916 (Simulation time: 01 hr 16 min 31 sec)
[ERROR_CYCLE] Error added at CPU cycle 566707107, next at 602334490, pending count: 1
[DRAM_CYCLE_ERROR] Cycle-based error applied! address=0xe7aed1c80 additional_latency=173500 cycles
Heartbeat CPU 0 instructions: 340000051 cycles: 570982682 heartbeat IPC: 0.7597 cumulative IPC: 0.5955 (Simulation time: 01 hr 18 min 33 sec)
Heartbeat CPU 0 instructions: 350000052 cycles: 584119665 heartbeat IPC: 0.7612 cumulative IPC: 0.5992 (Simulation time: 01 hr 20 min 35 sec)
Heartbeat CPU 0 instructions: 360000053 cycles: 597242863 heartbeat IPC: 0.762 cumulative IPC: 0.6028 (Simulation time: 01 hr 22 min 37 sec)
[ERROR_CYCLE] Error added at CPU cycle 602334490, next at 607801697, pending count: 1
[DRAM_CYCLE_ERROR] Cycle-based error applied! address=0xb50c9f010 additional_latency=173500 cycles
[ERROR_CYCLE] Error added at CPU cycle 607801697, next at 608543542, pending count: 1
[DRAM_CYCLE_ERROR] Cycle-based error applied! address=0xde3cad200 additional_latency=173500 cycles
[ERROR_CYCLE] Error added at CPU cycle 608543543, next at 610655090, pending count: 1
[DRAM_CYCLE_ERROR] Cycle-based error applied! address=0x7263fc1c0 additional_latency=173500 cycles
Heartbeat CPU 0 instructions: 370000053 cycles: 610391737 heartbeat IPC: 0.7605 cumulative IPC: 0.6062 (Simulation time: 01 hr 24 min 07 sec)
[ERROR_CYCLE] Error added at CPU cycle 610655091, next at 613219349, pending count: 1
[DRAM_CYCLE_ERROR] Cycle-based error applied! address=0x975d31a80 additional_latency=173500 cycles
[ERROR_CYCLE] Error added at CPU cycle 613219350, next at 613730924, pending count: 1
[DRAM_CYCLE_ERROR] Cycle-based error applied! address=0xdd612e340 additional_latency=173500 cycles
[ERROR_CYCLE] Error added at CPU cycle 613730925, next at 615686536, pending count: 1
[DRAM_CYCLE_ERROR] Cycle-based error applied! address=0xfd4f9b3a8 additional_latency=173500 cycles
[ERROR_CYCLE] Error added at CPU cycle 615686536, next at 623830395, pending count: 1
[DRAM_CYCLE_ERROR] Cycle-based error applied! address=0x2db987680 additional_latency=173500 cycles
Heartbeat CPU 0 instructions: 380000053 cycles: 623545524 heartbeat IPC: 0.7602 cumulative IPC: 0.6094 (Simulation time: 01 hr 26 min 06 sec)
[ERROR_CYCLE] Error added at CPU cycle 623830395, next at 655504590, pending count: 1
[DRAM_CYCLE_ERROR] Cycle-based error applied! address=0x3e7b5d940 additional_latency=173500 cycles
Heartbeat CPU 0 instructions: 390000055 cycles: 636674344 heartbeat IPC: 0.7617 cumulative IPC: 0.6126 (Simulation time: 01 hr 28 min 06 sec)
Heartbeat CPU 0 instructions: 400000058 cycles: 649803596 heartbeat IPC: 0.7617 cumulative IPC: 0.6156 (Simulation time: 01 hr 30 min 06 sec)
[ERROR_CYCLE] Error added at CPU cycle 655504590, next at 685296427, pending count: 1
[DRAM_CYCLE_ERROR] Cycle-based error applied! address=0xfb6d81f00 additional_latency=173500 cycles
Heartbeat CPU 0 instructions: 410000061 cycles: 662925609 heartbeat IPC: 0.7621 cumulative IPC: 0.6185 (Simulation time: 01 hr 32 min 05 sec)
Heartbeat CPU 0 instructions: 420000061 cycles: 676074263 heartbeat IPC: 0.7605 cumulative IPC: 0.6212 (Simulation time: 01 hr 34 min 06 sec)
[ERROR_CYCLE] Error added at CPU cycle 685296428, next at 692067362, pending count: 1
[DRAM_CYCLE_ERROR] Cycle-based error applied! address=0x5b58fcf10 additional_latency=173500 cycles
Heartbeat CPU 0 instructions: 430000062 cycles: 689186266 heartbeat IPC: 0.7627 cumulative IPC: 0.6239 (Simulation time: 01 hr 36 min 07 sec)
[ERROR_CYCLE] Error added at CPU cycle 692067362, next at 693560863, pending count: 1
[DRAM_CYCLE_ERROR] Cycle-based error applied! address=0xd327addc8 additional_latency=173500 cycles
[ERROR_CYCLE] Error added at CPU cycle 693560864, next at 696567615, pending count: 1
[DRAM_CYCLE_ERROR] Cycle-based error applied! address=0x5be4547d0 additional_latency=173500 cycles
[ERROR_CYCLE] Error added at CPU cycle 696567615, next at 705122761, pending count: 1
[DRAM_CYCLE_ERROR] Cycle-based error applied! address=0xfde983fc0 additional_latency=173500 cycles
Heartbeat CPU 0 instructions: 440000062 cycles: 702327971 heartbeat IPC: 0.7609 cumulative IPC: 0.6265 (Simulation time: 01 hr 38 min 08 sec)
[ERROR_CYCLE] Error added at CPU cycle 705122762, next at 747545945, pending count: 1
[DRAM_CYCLE_ERROR] Cycle-based error applied! address=0x333aba8a0 additional_latency=173500 cycles
Heartbeat CPU 0 instructions: 450000066 cycles: 715453793 heartbeat IPC: 0.7619 cumulative IPC: 0.629 (Simulation time: 01 hr 39 min 54 sec)
Heartbeat CPU 0 instructions: 460000067 cycles: 728596068 heartbeat IPC: 0.7609 cumulative IPC: 0.6314 (Simulation time: 01 hr 41 min 44 sec)
Heartbeat CPU 0 instructions: 470000068 cycles: 741703210 heartbeat IPC: 0.7629 cumulative IPC: 0.6337 (Simulation time: 01 hr 43 min 46 sec)
[ERROR_CYCLE] Error added at CPU cycle 747545946, next at 748669179, pending count: 1
[DRAM_CYCLE_ERROR] Cycle-based error applied! address=0x280262540 additional_latency=173500 cycles
[ERROR_CYCLE] Error added at CPU cycle 748669179, next at 755019492, pending count: 1
[DRAM_CYCLE_ERROR] Cycle-based error applied! address=0xceeccdcc0 additional_latency=173500 cycles
Heartbeat CPU 0 instructions: 480000069 cycles: 754851244 heartbeat IPC: 0.7606 cumulative IPC: 0.6359 (Simulation time: 01 hr 45 min 34 sec)
[ERROR_CYCLE] Error added at CPU cycle 755019492, next at 755497083, pending count: 1
[DRAM_CYCLE_ERROR] Cycle-based error applied! address=0x3c9d37c80 additional_latency=173500 cycles
[ERROR_CYCLE] Error added at CPU cycle 755497084, next at 758773095, pending count: 1
[DRAM_CYCLE_ERROR] Cycle-based error applied! address=0x9d9991540 additional_latency=173500 cycles
[ERROR_CYCLE] Error added at CPU cycle 758773095, next at 767932446, pending count: 1
[DRAM_CYCLE_ERROR] Cycle-based error applied! address=0x1e8850440 additional_latency=173500 cycles
[ERROR_CYCLE] Error added at CPU cycle 767932447, next at 768052303, pending count: 1
[DRAM_CYCLE_ERROR] Cycle-based error applied! address=0x29cc73c0 additional_latency=173500 cycles
Heartbeat CPU 0 instructions: 490000071 cycles: 767992425 heartbeat IPC: 0.761 cumulative IPC: 0.638 (Simulation time: 01 hr 46 min 58 sec)
[ERROR_CYCLE] Error added at CPU cycle 768052303, next at 768100071, pending count: 1
[DRAM_CYCLE_ERROR] Cycle-based error applied! address=0x866657b0 additional_latency=173500 cycles
[ERROR_CYCLE] Error added at CPU cycle 768100072, next at 768264987, pending count: 1
[DRAM_CYCLE_ERROR] Cycle-based error applied! address=0x2a122740 additional_latency=173500 cycles
[ERROR_CYCLE] Error added at CPU cycle 768264987, next at 773476830, pending count: 1
[DRAM_CYCLE_ERROR] Cycle-based error applied! address=0x55bf5c7c0 additional_latency=173500 cycles
[ERROR_CYCLE] Error added at CPU cycle 773476830, next at 775408797, pending count: 1
[DRAM_CYCLE_ERROR] Cycle-based error applied! address=0xbcc34d818 additional_latency=173500 cycles
[ERROR_CYCLE] Error added at CPU cycle 775408797, next at 776477567, pending count: 1
[DRAM_CYCLE_ERROR] Cycle-based error applied! address=0x20d86e40 additional_latency=173500 cycles
[ERROR_CYCLE] Error added at CPU cycle 776477568, next at 782055313, pending count: 1
[DRAM_CYCLE_ERROR] Cycle-based error applied! address=0x4cf487e00 additional_latency=173500 cycles
Heartbeat CPU 0 instructions: 500000074 cycles: 781130995 heartbeat IPC: 0.7611 cumulative IPC: 0.6401 (Simulation time: 01 hr 48 min 48 sec)
[ERROR_CYCLE] Error added at CPU cycle 782055314, next at 793366198, pending count: 1
[DRAM_CYCLE_ERROR] Cycle-based error applied! address=0x5a4da6278 additional_latency=173500 cycles
[ERROR_CYCLE] Error added at CPU cycle 793366198, next at 800738627, pending count: 1
[DRAM_CYCLE_ERROR] Cycle-based error applied! address=0xe2e228700 additional_latency=173500 cycles
Heartbeat CPU 0 instructions: 510000078 cycles: 794248338 heartbeat IPC: 0.7623 cumulative IPC: 0.6421 (Simulation time: 01 hr 50 min 47 sec)
[ERROR_CYCLE] Error added at CPU cycle 800738628, next at 804703481, pending count: 1
[DRAM_CYCLE_ERROR] Cycle-based error applied! address=0x184561000 additional_latency=173500 cycles
[ERROR_CYCLE] Error added at CPU cycle 804703481, next at 812634114, pending count: 1
[DRAM_CYCLE_ERROR] Cycle-based error applied! address=0xef93a35d8 additional_latency=173500 cycles
Heartbeat CPU 0 instructions: 520000082 cycles: 807387078 heartbeat IPC: 0.7611 cumulative IPC: 0.6441 (Simulation time: 01 hr 52 min 36 sec)
[ERROR_CYCLE] Error added at CPU cycle 812634115, next at 825252033, pending count: 1
[DRAM_CYCLE_ERROR] Cycle-based error applied! address=0x3b602b3d8 additional_latency=173500 cycles
Heartbeat CPU 0 instructions: 530000082 cycles: 820527022 heartbeat IPC: 0.761 cumulative IPC: 0.6459 (Simulation time: 01 hr 54 min 35 sec)
[ERROR_CYCLE] Error added at CPU cycle 825252034, next at 830437472, pending count: 1
[DRAM_CYCLE_ERROR] Cycle-based error applied! address=0x1900162c0 additional_latency=173500 cycles
[ERROR_CYCLE] Error added at CPU cycle 830437472, next at 838935145, pending count: 1
[DRAM_CYCLE_ERROR] Cycle-based error applied! address=0xb2b3ba540 additional_latency=173500 cycles
Heartbeat CPU 0 instructions: 540000083 cycles: 833661940 heartbeat IPC: 0.7613 cumulative IPC: 0.6477 (Simulation time: 01 hr 56 min 37 sec)
[ERROR_CYCLE] Error added at CPU cycle 838935145, next at 861804158, pending count: 1
[DRAM_CYCLE_ERROR] Cycle-based error applied! address=0x6b1dbfd00 additional_latency=173500 cycles
Heartbeat CPU 0 instructions: 550000084 cycles: 846804666 heartbeat IPC: 0.7609 cumulative IPC: 0.6495 (Simulation time: 01 hr 58 min 39 sec)
Heartbeat CPU 0 instructions: 560000086 cycles: 859944223 heartbeat IPC: 0.7611 cumulative IPC: 0.6512 (Simulation time: 02 hr 00 min 41 sec)
[ERROR_CYCLE] Error added at CPU cycle 861804158, next at 864139244, pending count: 1
[DRAM_CYCLE_ERROR] Cycle-based error applied! address=0x49b886378 additional_latency=173500 cycles
[ERROR_CYCLE] Error added at CPU cycle 864139244, next at 883044804, pending count: 1
[DRAM_CYCLE_ERROR] Cycle-based error applied! address=0x8dd59fac0 additional_latency=173500 cycles
Heartbeat CPU 0 instructions: 570000086 cycles: 873081839 heartbeat IPC: 0.7612 cumulative IPC: 0.6529 (Simulation time: 02 hr 02 min 32 sec)
[ERROR_CYCLE] Error added at CPU cycle 883044804, next at 885467139, pending count: 1
[DRAM_CYCLE_ERROR] Cycle-based error applied! address=0x2c83f8900 additional_latency=173500 cycles
[ERROR_CYCLE] Error added at CPU cycle 885467140, next at 887176065, pending count: 1
[DRAM_CYCLE_ERROR] Cycle-based error applied! address=0xaae567940 additional_latency=173500 cycles
Heartbeat CPU 0 instructions: 580000086 cycles: 886221449 heartbeat IPC: 0.7611 cumulative IPC: 0.6545 (Simulation time: 02 hr 04 min 31 sec)
[ERROR_CYCLE] Error added at CPU cycle 887176065, next at 891433294, pending count: 1
[DRAM_CYCLE_ERROR] Cycle-based error applied! address=0x2691f0680 additional_latency=173500 cycles
[ERROR_CYCLE] Error added at CPU cycle 891433294, next at 910142062, pending count: 1
[DRAM_CYCLE_ERROR] Cycle-based error applied! address=0x8a40f5300 additional_latency=173500 cycles
Heartbeat CPU 0 instructions: 590000088 cycles: 899371216 heartbeat IPC: 0.7605 cumulative IPC: 0.656 (Simulation time: 02 hr 06 min 18 sec)
[ERROR_CYCLE] Error added at CPU cycle 910142062, next at 912455925, pending count: 1
[DRAM_CYCLE_ERROR] Cycle-based error applied! address=0x1b70be480 additional_latency=173500 cycles
[ERROR_CYCLE] Error added at CPU cycle 912455925, next at 920452495, pending count: 1
[DRAM_CYCLE_ERROR] Cycle-based error applied! address=0x6dcab5380 additional_latency=173500 cycles
Heartbeat CPU 0 instructions: 600000089 cycles: 912529985 heartbeat IPC: 0.7599 cumulative IPC: 0.6575 (Simulation time: 02 hr 08 min 16 sec)
[ERROR_CYCLE] Error added at CPU cycle 920452495, next at 925358975, pending count: 1
[DRAM_CYCLE_ERROR] Cycle-based error applied! address=0xfd43d5d70 additional_latency=173500 cycles
Heartbeat CPU 0 instructions: 610000089 cycles: 925241851 heartbeat IPC: 0.7867 cumulative IPC: 0.6593 (Simulation time: 02 hr 10 min 17 sec)
[ERROR_CYCLE] Error added at CPU cycle 925358976, next at 928208581, pending count: 1
[DRAM_CYCLE_ERROR] Cycle-based error applied! address=0x9f6491400 additional_latency=173500 cycles
[ERROR_CYCLE] Error added at CPU cycle 928208581, next at 935551244, pending count: 1
[DRAM_CYCLE_ERROR] Cycle-based error applied! address=0x6cf935440 additional_latency=173500 cycles
[ERROR_CYCLE] Error added at CPU cycle 935551244, next at 940277711, pending count: 1
[DRAM_CYCLE_ERROR] Cycle-based error applied! address=0x99653f300 additional_latency=173500 cycles
Heartbeat CPU 0 instructions: 620000092 cycles: 936937729 heartbeat IPC: 0.855 cumulative IPC: 0.6617 (Simulation time: 02 hr 12 min 10 sec)
[ERROR_CYCLE] Error added at CPU cycle 940277711, next at 941361915, pending count: 1
[DRAM_CYCLE_ERROR] Cycle-based error applied! address=0x9d0113340 additional_latency=173500 cycles
[ERROR_CYCLE] Error added at CPU cycle 941361915, next at 944131710, pending count: 1
[DRAM_CYCLE_ERROR] Cycle-based error applied! address=0x5be164200 additional_latency=173500 cycles
[ERROR_CYCLE] Error added at CPU cycle 944131710, next at 965831250, pending count: 1
[DRAM_CYCLE_ERROR] Cycle-based error applied! address=0x96ee71a40 additional_latency=173500 cycles
Heartbeat CPU 0 instructions: 630000096 cycles: 948665322 heartbeat IPC: 0.8527 cumulative IPC: 0.6641 (Simulation time: 02 hr 14 min 04 sec)
Heartbeat CPU 0 instructions: 640000096 cycles: 960344643 heartbeat IPC: 0.8562 cumulative IPC: 0.6664 (Simulation time: 02 hr 15 min 59 sec)
[ERROR_CYCLE] Error added at CPU cycle 965831250, next at 978230112, pending count: 1
[DRAM_CYCLE_ERROR] Cycle-based error applied! address=0x277ad2a40 additional_latency=173500 cycles
Heartbeat CPU 0 instructions: 650000096 cycles: 972049325 heartbeat IPC: 0.8544 cumulative IPC: 0.6687 (Simulation time: 02 hr 17 min 42 sec)
[ERROR_CYCLE] Error added at CPU cycle 978230113, next at 995345989, pending count: 1
[DRAM_CYCLE_ERROR] Cycle-based error applied! address=0x70d15fd40 additional_latency=173500 cycles
Heartbeat CPU 0 instructions: 660000097 cycles: 983732711 heartbeat IPC: 0.8559 cumulative IPC: 0.6709 (Simulation time: 02 hr 19 min 35 sec)
[ERROR_CYCLE] Error added at CPU cycle 995345989, next at 1001484614, pending count: 1
[DRAM_CYCLE_ERROR] Cycle-based error applied! address=0x4709189c0 additional_latency=173500 cycles
Heartbeat CPU 0 instructions: 670000097 cycles: 995439482 heartbeat IPC: 0.8542 cumulative IPC: 0.6731 (Simulation time: 02 hr 21 min 08 sec)
[ERROR_CYCLE] Error added at CPU cycle 1001484615, next at 1010972056, pending count: 1
[DRAM_CYCLE_ERROR] Cycle-based error applied! address=0xeb6dede40 additional_latency=173500 cycles
Heartbeat CPU 0 instructions: 680000100 cycles: 1007276370 heartbeat IPC: 0.8448 cumulative IPC: 0.6751 (Simulation time: 02 hr 22 min 35 sec)
[ERROR_CYCLE] Error added at CPU cycle 1010972057, next at 1013450836, pending count: 1
[DRAM_CYCLE_ERROR] Cycle-based error applied! address=0xb51b831f0 additional_latency=173500 cycles
[ERROR_CYCLE] Error added at CPU cycle 1013450836, next at 1027850374, pending count: 1
[DRAM_CYCLE_ERROR] Cycle-based error applied! address=0x339334440 additional_latency=173500 cycles
Heartbeat CPU 0 instructions: 690000100 cycles: 1019347457 heartbeat IPC: 0.8284 cumulative IPC: 0.6769 (Simulation time: 02 hr 23 min 57 sec)
[ERROR_CYCLE] Error added at CPU cycle 1027850375, next at 1040360188, pending count: 1
[DRAM_CYCLE_ERROR] Cycle-based error applied! address=0xa08c8e5c0 additional_latency=173500 cycles
Heartbeat CPU 0 instructions: 700000104 cycles: 1030704002 heartbeat IPC: 0.8805 cumulative IPC: 0.6791 (Simulation time: 02 hr 25 min 41 sec)
[ERROR_CYCLE] Error added at CPU cycle 1040360189, next at 1048241966, pending count: 1
[DRAM_CYCLE_ERROR] Cycle-based error applied! address=0x20c04cec0 additional_latency=173500 cycles
Heartbeat CPU 0 instructions: 710000107 cycles: 1042119847 heartbeat IPC: 0.876 cumulative IPC: 0.6813 (Simulation time: 02 hr 27 min 32 sec)
[ERROR_CYCLE] Error added at CPU cycle 1048241966, next at 1057607729, pending count: 1
[DRAM_CYCLE_ERROR] Cycle-based error applied! address=0xfee745700 additional_latency=173500 cycles
Heartbeat CPU 0 instructions: 720000111 cycles: 1053520836 heartbeat IPC: 0.8771 cumulative IPC: 0.6834 (Simulation time: 02 hr 29 min 21 sec)
[ERROR_CYCLE] Error added at CPU cycle 1057607729, next at 1078039556, pending count: 1
[DRAM_CYCLE_ERROR] Cycle-based error applied! address=0x2d8a51580 additional_latency=173500 cycles
Heartbeat CPU 0 instructions: 730000111 cycles: 1064934875 heartbeat IPC: 0.8761 cumulative IPC: 0.6855 (Simulation time: 02 hr 31 min 13 sec)
Heartbeat CPU 0 instructions: 740000113 cycles: 1076306071 heartbeat IPC: 0.8794 cumulative IPC: 0.6875 (Simulation time: 02 hr 32 min 55 sec)
[ERROR_CYCLE] Error added at CPU cycle 1078039557, next at 1093227895, pending count: 1
[DRAM_CYCLE_ERROR] Cycle-based error applied! address=0x6c82be8a0 additional_latency=173500 cycles
Heartbeat CPU 0 instructions: 750000113 cycles: 1087709235 heartbeat IPC: 0.8769 cumulative IPC: 0.6895 (Simulation time: 02 hr 34 min 15 sec)
[ERROR_CYCLE] Error added at CPU cycle 1093227895, next at 1095375545, pending count: 1
[DRAM_CYCLE_ERROR] Cycle-based error applied! address=0xec90c4a00 additional_latency=173500 cycles
[ERROR_CYCLE] Error added at CPU cycle 1095375545, next at 1101804530, pending count: 1
[DRAM_CYCLE_ERROR] Cycle-based error applied! address=0x5db039c80 additional_latency=173500 cycles
Heartbeat CPU 0 instructions: 760000115 cycles: 1099104935 heartbeat IPC: 0.8775 cumulative IPC: 0.6915 (Simulation time: 02 hr 36 min 06 sec)
[ERROR_CYCLE] Error added at CPU cycle 1101804530, next at 1107079687, pending count: 1
[DRAM_CYCLE_ERROR] Cycle-based error applied! address=0xb4a0ef780 additional_latency=173500 cycles
[ERROR_CYCLE] Error added at CPU cycle 1107079687, next at 1115318803, pending count: 1
[DRAM_CYCLE_ERROR] Cycle-based error applied! address=0x9a78a1200 additional_latency=173500 cycles
Heartbeat CPU 0 instructions: 770000116 cycles: 1110626072 heartbeat IPC: 0.868 cumulative IPC: 0.6933 (Simulation time: 02 hr 37 min 56 sec)
[ERROR_CYCLE] Error added at CPU cycle 1115318803, next at 1135008200, pending count: 1
[DRAM_CYCLE_ERROR] Cycle-based error applied! address=0xde1adb800 additional_latency=173500 cycles
Heartbeat CPU 0 instructions: 780000120 cycles: 1123382411 heartbeat IPC: 0.7839 cumulative IPC: 0.6943 (Simulation time: 02 hr 39 min 58 sec)
[ERROR_CYCLE] Error added at CPU cycle 1135008201, next at 1140982700, pending count: 1
[DRAM_CYCLE_ERROR] Cycle-based error applied! address=0x71ffd45c0 additional_latency=173500 cycles
Heartbeat CPU 0 instructions: 790000123 cycles: 1136163723 heartbeat IPC: 0.7824 cumulative IPC: 0.6953 (Simulation time: 02 hr 41 min 59 sec)
[ERROR_CYCLE] Error added at CPU cycle 1140982700, next at 1154083331, pending count: 1
[DRAM_CYCLE_ERROR] Cycle-based error applied! address=0x132ce4200 additional_latency=173500 cycles
Heartbeat CPU 0 instructions: 800000124 cycles: 1148863917 heartbeat IPC: 0.7874 cumulative IPC: 0.6963 (Simulation time: 02 hr 43 min 56 sec)
[ERROR_CYCLE] Error added at CPU cycle 1154083332, next at 1155066855, pending count: 1
[DRAM_CYCLE_ERROR] Cycle-based error applied! address=0xf5ded6680 additional_latency=173500 cycles
[ERROR_CYCLE] Error added at CPU cycle 1155066856, next at 1164180982, pending count: 1
[DRAM_CYCLE_ERROR] Cycle-based error applied! address=0x93dfa1fc0 additional_latency=173500 cycles
Heartbeat CPU 0 instructions: 810000126 cycles: 1161560723 heartbeat IPC: 0.7876 cumulative IPC: 0.6973 (Simulation time: 02 hr 45 min 53 sec)
[ERROR_CYCLE] Error added at CPU cycle 1164180982, next at 1170052729, pending count: 1
[DRAM_CYCLE_ERROR] Cycle-based error applied! address=0xf996b4e80 additional_latency=173500 cycles
[ERROR_CYCLE] Error added at CPU cycle 1170052730, next at 1201159550, pending count: 1
[DRAM_CYCLE_ERROR] Cycle-based error applied! address=0x7e83aee80 additional_latency=173500 cycles
Heartbeat CPU 0 instructions: 820000129 cycles: 1173847942 heartbeat IPC: 0.8139 cumulative IPC: 0.6986 (Simulation time: 02 hr 47 min 47 sec)
Heartbeat CPU 0 instructions: 830000130 cycles: 1186064721 heartbeat IPC: 0.8185 cumulative IPC: 0.6998 (Simulation time: 02 hr 49 min 42 sec)
Heartbeat CPU 0 instructions: 840000132 cycles: 1198292257 heartbeat IPC: 0.8178 cumulative IPC: 0.701 (Simulation time: 02 hr 51 min 22 sec)
[ERROR_CYCLE] Error added at CPU cycle 1201159551, next at 1219803754, pending count: 1
[DRAM_CYCLE_ERROR] Cycle-based error applied! address=0x2d04e3500 additional_latency=173500 cycles
Heartbeat CPU 0 instructions: 850000133 cycles: 1210512831 heartbeat IPC: 0.8183 cumulative IPC: 0.7022 (Simulation time: 02 hr 53 min 14 sec)
[ERROR_CYCLE] Error added at CPU cycle 1219803754, next at 1222032553, pending count: 1
[DRAM_CYCLE_ERROR] Cycle-based error applied! address=0xda87b7440 additional_latency=173500 cycles
[ERROR_CYCLE] Error added at CPU cycle 1222032554, next at 1224789878, pending count: 1
[DRAM_CYCLE_ERROR] Cycle-based error applied! address=0xd45356140 additional_latency=173500 cycles
Heartbeat CPU 0 instructions: 860000134 cycles: 1222993008 heartbeat IPC: 0.8013 cumulative IPC: 0.7032 (Simulation time: 02 hr 54 min 46 sec)
[ERROR_CYCLE] Error added at CPU cycle 1224789879, next at 1231478862, pending count: 1
[DRAM_CYCLE_ERROR] Cycle-based error applied! address=0x2c2c3c9c0 additional_latency=173500 cycles
[ERROR_CYCLE] Error added at CPU cycle 1231478862, next at 1231912145, pending count: 1
[DRAM_CYCLE_ERROR] Cycle-based error applied! address=0xe68434d40 additional_latency=173500 cycles
[ERROR_CYCLE] Error added at CPU cycle 1231912145, next at 1236268432, pending count: 1
[DRAM_CYCLE_ERROR] Cycle-based error applied! address=0x2fa87ce80 additional_latency=173500 cycles
Heartbeat CPU 0 instructions: 870000135 cycles: 1235670402 heartbeat IPC: 0.7888 cumulative IPC: 0.7041 (Simulation time: 02 hr 56 min 29 sec)
[ERROR_CYCLE] Error added at CPU cycle 1236268432, next at 1250618753, pending count: 1
[DRAM_CYCLE_ERROR] Cycle-based error applied! address=0xa054f1380 additional_latency=173500 cycles
Heartbeat CPU 0 instructions: 880000136 cycles: 1248347025 heartbeat IPC: 0.7889 cumulative IPC: 0.7049 (Simulation time: 02 hr 58 min 29 sec)
[ERROR_CYCLE] Error added at CPU cycle 1250618753, next at 1293864347, pending count: 1
[DRAM_CYCLE_ERROR] Cycle-based error applied! address=0x69dc01580 additional_latency=173500 cycles
Heartbeat CPU 0 instructions: 890000140 cycles: 1261051130 heartbeat IPC: 0.7871 cumulative IPC: 0.7058 (Simulation time: 03 hr 00 min 30 sec)
Heartbeat CPU 0 instructions: 900000140 cycles: 1273627607 heartbeat IPC: 0.7951 cumulative IPC: 0.7066 (Simulation time: 03 hr 02 min 30 sec)
Heartbeat CPU 0 instructions: 910000141 cycles: 1285943051 heartbeat IPC: 0.812 cumulative IPC: 0.7077 (Simulation time: 03 hr 04 min 27 sec)
[ERROR_CYCLE] Error added at CPU cycle 1293864347, next at 1304881196, pending count: 1
[DRAM_CYCLE_ERROR] Cycle-based error applied! address=0xa58fe1500 additional_latency=173500 cycles
Heartbeat CPU 0 instructions: 920000141 cycles: 1298240159 heartbeat IPC: 0.8132 cumulative IPC: 0.7087 (Simulation time: 03 hr 06 min 25 sec)
[ERROR_CYCLE] Error added at CPU cycle 1304881197, next at 1314838771, pending count: 1
[DRAM_CYCLE_ERROR] Cycle-based error applied! address=0x3c798d318 additional_latency=173500 cycles
Heartbeat CPU 0 instructions: 930000141 cycles: 1310422307 heartbeat IPC: 0.8209 cumulative IPC: 0.7097 (Simulation time: 03 hr 08 min 18 sec)
[ERROR_CYCLE] Error added at CPU cycle 1314838771, next at 1321326019, pending count: 1
[DRAM_CYCLE_ERROR] Cycle-based error applied! address=0x897108d00 additional_latency=173500 cycles
[ERROR_CYCLE] Error added at CPU cycle 1321326020, next at 1334779567, pending count: 1
[DRAM_CYCLE_ERROR] Cycle-based error applied! address=0x3b7edb840 additional_latency=173500 cycles
Heartbeat CPU 0 instructions: 940000143 cycles: 1322642115 heartbeat IPC: 0.8183 cumulative IPC: 0.7107 (Simulation time: 03 hr 10 min 10 sec)
[ERROR_CYCLE] Error added at CPU cycle 1334779568, next at 1341662842, pending count: 1
[DRAM_CYCLE_ERROR] Cycle-based error applied! address=0xc5810d100 additional_latency=173500 cycles
Heartbeat CPU 0 instructions: 950000146 cycles: 1335407698 heartbeat IPC: 0.7834 cumulative IPC: 0.7114 (Simulation time: 03 hr 12 min 11 sec)
[ERROR_CYCLE] Error added at CPU cycle 1341662842, next at 1341958013, pending count: 1
[DRAM_CYCLE_ERROR] Cycle-based error applied! address=0x1c670aa00 additional_latency=173500 cycles
[ERROR_CYCLE] Error added at CPU cycle 1341958014, next at 1347444921, pending count: 1
[DRAM_CYCLE_ERROR] Cycle-based error applied! address=0x201fb5a00 additional_latency=173500 cycles
[ERROR_CYCLE] Error added at CPU cycle 1347444921, next at 1348889686, pending count: 1
[DRAM_CYCLE_ERROR] Cycle-based error applied! address=0x3ceece900 additional_latency=173500 cycles
Heartbeat CPU 0 instructions: 960000150 cycles: 1348192221 heartbeat IPC: 0.7822 cumulative IPC: 0.7121 (Simulation time: 03 hr 14 min 12 sec)
[ERROR_CYCLE] Error added at CPU cycle 1348889686, next at 1370368934, pending count: 1
[DRAM_CYCLE_ERROR] Cycle-based error applied! address=0xbae3c40 additional_latency=173500 cycles
Heartbeat CPU 0 instructions: 970000150 cycles: 1360890422 heartbeat IPC: 0.7875 cumulative IPC: 0.7128 (Simulation time: 03 hr 16 min 12 sec)
[ERROR_CYCLE] Error added at CPU cycle 1370368934, next at 1377657432, pending count: 1
[DRAM_CYCLE_ERROR] Cycle-based error applied! address=0x4aa553280 additional_latency=173500 cycles
Heartbeat CPU 0 instructions: 980000151 cycles: 1373584722 heartbeat IPC: 0.7878 cumulative IPC: 0.7135 (Simulation time: 03 hr 18 min 12 sec)
[ERROR_CYCLE] Error added at CPU cycle 1377657432, next at 1418042020, pending count: 1
[DRAM_CYCLE_ERROR] Cycle-based error applied! address=0x4086dfd40 additional_latency=173500 cycles
Heartbeat CPU 0 instructions: 990000155 cycles: 1385897498 heartbeat IPC: 0.8122 cumulative IPC: 0.7143 (Simulation time: 03 hr 20 min 10 sec)
Heartbeat CPU 0 instructions: 1000000155 cycles: 1398143278 heartbeat IPC: 0.8166 cumulative IPC: 0.7152 (Simulation time: 03 hr 22 min 05 sec)
Heartbeat CPU 0 instructions: 1010000158 cycles: 1410408756 heartbeat IPC: 0.8153 cumulative IPC: 0.7161 (Simulation time: 03 hr 24 min 00 sec)
[ERROR_CYCLE] Error added at CPU cycle 1418042020, next at 1428774744, pending count: 1
[DRAM_CYCLE_ERROR] Cycle-based error applied! address=0xaba80b540 additional_latency=173500 cycles
Heartbeat CPU 0 instructions: 1020000162 cycles: 1422629108 heartbeat IPC: 0.8183 cumulative IPC: 0.717 (Simulation time: 03 hr 25 min 55 sec)
[ERROR_CYCLE] Error added at CPU cycle 1428774745, next at 1430659638, pending count: 1
[DRAM_CYCLE_ERROR] Cycle-based error applied! address=0xaa629f200 additional_latency=173500 cycles
[ERROR_CYCLE] Error added at CPU cycle 1430659639, next at 1434805602, pending count: 1
[DRAM_CYCLE_ERROR] Cycle-based error applied! address=0x3da3fe680 additional_latency=173500 cycles
[ERROR_CYCLE] Error added at CPU cycle 1434805602, next at 1439910027, pending count: 1
[DRAM_CYCLE_ERROR] Cycle-based error applied! address=0x3efcb2d80 additional_latency=173500 cycles
Heartbeat CPU 0 instructions: 1030000165 cycles: 1436779483 heartbeat IPC: 0.7067 cumulative IPC: 0.7169 (Simulation time: 03 hr 27 min 55 sec)
[ERROR_CYCLE] Error added at CPU cycle 1439910028, next at 1455265502, pending count: 1
[DRAM_CYCLE_ERROR] Cycle-based error applied! address=0xcfa5eae00 additional_latency=173500 cycles
Heartbeat CPU 0 instructions: 1040000168 cycles: 1449510994 heartbeat IPC: 0.7855 cumulative IPC: 0.7175 (Simulation time: 03 hr 29 min 58 sec)
[ERROR_CYCLE] Error added at CPU cycle 1455265502, next at 1456081149, pending count: 1
[DRAM_CYCLE_ERROR] Cycle-based error applied! address=0xab90ba200 additional_latency=173500 cycles
[ERROR_CYCLE] Error added at CPU cycle 1456081149, next at 1459633187, pending count: 1
[DRAM_CYCLE_ERROR] Cycle-based error applied! address=0xe463d3200 additional_latency=173500 cycles
[ERROR_CYCLE] Error added at CPU cycle 1459633187, next at 1470585164, pending count: 1
[DRAM_CYCLE_ERROR] Cycle-based error applied! address=0xd95d0ccc0 additional_latency=173500 cycles
Heartbeat CPU 0 instructions: 1050000170 cycles: 1461873267 heartbeat IPC: 0.8089 cumulative IPC: 0.7183 (Simulation time: 03 hr 31 min 39 sec)
[ERROR_CYCLE] Error added at CPU cycle 1470585164, next at 1472949657, pending count: 1
[DRAM_CYCLE_ERROR] Cycle-based error applied! address=0x1291217c0 additional_latency=173500 cycles
[ERROR_CYCLE] Error added at CPU cycle 1472949657, next at 1483173147, pending count: 1
[DRAM_CYCLE_ERROR] Cycle-based error applied! address=0xac4adc400 additional_latency=173500 cycles
Heartbeat CPU 0 instructions: 1060000173 cycles: 1474248483 heartbeat IPC: 0.8081 cumulative IPC: 0.719 (Simulation time: 03 hr 33 min 09 sec)
[ERROR_CYCLE] Error added at CPU cycle 1483173148, next at 1484511175, pending count: 1
[DRAM_CYCLE_ERROR] Cycle-based error applied! address=0x90d92f5c0 additional_latency=173500 cycles
[ERROR_CYCLE] Error added at CPU cycle 1484511175, next at 1492326095, pending count: 1
[DRAM_CYCLE_ERROR] Cycle-based error applied! address=0xcb2978240 additional_latency=173500 cycles
Heartbeat CPU 0 instructions: 1070000174 cycles: 1486636390 heartbeat IPC: 0.8072 cumulative IPC: 0.7197 (Simulation time: 03 hr 34 min 33 sec)
[ERROR_CYCLE] Error added at CPU cycle 1492326095, next at 1498403147, pending count: 1
[DRAM_CYCLE_ERROR] Cycle-based error applied! address=0x64a966700 additional_latency=173500 cycles
[ERROR_CYCLE] Error added at CPU cycle 1498403147, next at 1500174205, pending count: 1
[DRAM_CYCLE_ERROR] Cycle-based error applied! address=0x1536ed100 additional_latency=173500 cycles
Heartbeat CPU 0 instructions: 1080000174 cycles: 1498858680 heartbeat IPC: 0.8182 cumulative IPC: 0.7205 (Simulation time: 03 hr 36 min 15 sec)
[ERROR_CYCLE] Error added at CPU cycle 1500174206, next at 1504681962, pending count: 1
[DRAM_CYCLE_ERROR] Cycle-based error applied! address=0xb94ffd8a0 additional_latency=173500 cycles
[ERROR_CYCLE] Error added at CPU cycle 1504681962, next at 1508176422, pending count: 1
[DRAM_CYCLE_ERROR] Cycle-based error applied! address=0xd93ffd680 additional_latency=173500 cycles
[ERROR_CYCLE] Error added at CPU cycle 1508176422, next at 1510980618, pending count: 1
[DRAM_CYCLE_ERROR] Cycle-based error applied! address=0x7e188b200 additional_latency=173500 cycles
Heartbeat CPU 0 instructions: 1090000174 cycles: 1510922210 heartbeat IPC: 0.8289 cumulative IPC: 0.7214 (Simulation time: 03 hr 37 min 53 sec)
[ERROR_CYCLE] Error added at CPU cycle 1510980618, next at 1540506590, pending count: 1
[DRAM_CYCLE_ERROR] Cycle-based error applied! address=0xf7fa38c0 additional_latency=173500 cycles
Heartbeat CPU 0 instructions: 1100000176 cycles: 1522953617 heartbeat IPC: 0.8312 cumulative IPC: 0.7223 (Simulation time: 03 hr 39 min 29 sec)
Heartbeat CPU 0 instructions: 1110000178 cycles: 1534879973 heartbeat IPC: 0.8385 cumulative IPC: 0.7232 (Simulation time: 03 hr 41 min 24 sec)
[ERROR_CYCLE] Error added at CPU cycle 1540506591, next at 1545633908, pending count: 1
[DRAM_CYCLE_ERROR] Cycle-based error applied! address=0x82aad6440 additional_latency=173500 cycles
[ERROR_CYCLE] Error added at CPU cycle 1545633909, next at 1555382131, pending count: 1
[DRAM_CYCLE_ERROR] Cycle-based error applied! address=0xeda2fb5c0 additional_latency=173500 cycles
Heartbeat CPU 0 instructions: 1120000178 cycles: 1546859083 heartbeat IPC: 0.8348 cumulative IPC: 0.724 (Simulation time: 03 hr 43 min 17 sec)
[ERROR_CYCLE] Error added at CPU cycle 1555382132, next at 1559379921, pending count: 1
[DRAM_CYCLE_ERROR] Cycle-based error applied! address=0x344858100 additional_latency=173500 cycles
Heartbeat CPU 0 instructions: 1130000181 cycles: 1559302456 heartbeat IPC: 0.8036 cumulative IPC: 0.7247 (Simulation time: 03 hr 45 min 18 sec)
[ERROR_CYCLE] Error added at CPU cycle 1559379922, next at 1568250473, pending count: 1
[DRAM_CYCLE_ERROR] Cycle-based error applied! address=0x7808d2800 additional_latency=173500 cycles
[ERROR_CYCLE] Error added at CPU cycle 1568250473, next at 1568397086, pending count: 1
[DRAM_CYCLE_ERROR] Cycle-based error applied! address=0xded586700 additional_latency=173500 cycles
[ERROR_CYCLE] Error added at CPU cycle 1568397086, next at 1571204618, pending count: 1
[DRAM_CYCLE_ERROR] Cycle-based error applied! address=0x84464b100 additional_latency=173500 cycles
[ERROR_CYCLE] Error added at CPU cycle 1571204618, next at 1572401785, pending count: 1
[DRAM_CYCLE_ERROR] Cycle-based error applied! address=0xf41b98a00 additional_latency=173500 cycles
Heartbeat CPU 0 instructions: 1140000181 cycles: 1571716646 heartbeat IPC: 0.8055 cumulative IPC: 0.7253 (Simulation time: 03 hr 47 min 11 sec)
[ERROR_CYCLE] Error added at CPU cycle 1572401785, next at 1585569552, pending count: 1
[DRAM_CYCLE_ERROR] Cycle-based error applied! address=0xeaf5aa040 additional_latency=173500 cycles
Heartbeat CPU 0 instructions: 1150000181 cycles: 1584126419 heartbeat IPC: 0.8058 cumulative IPC: 0.726 (Simulation time: 03 hr 48 min 56 sec)
[ERROR_CYCLE] Error added at CPU cycle 1585569553, next at 1586429627, pending count: 1
[DRAM_CYCLE_ERROR] Cycle-based error applied! address=0x47dcb9300 additional_latency=173500 cycles
[ERROR_CYCLE] Error added at CPU cycle 1586429628, next at 1598198580, pending count: 1
[DRAM_CYCLE_ERROR] Cycle-based error applied! address=0x1ecd75940 additional_latency=173500 cycles
Heartbeat CPU 0 instructions: 1160000183 cycles: 1596507641 heartbeat IPC: 0.8077 cumulative IPC: 0.7266 (Simulation time: 03 hr 50 min 56 sec)
[ERROR_CYCLE] Error added at CPU cycle 1598198580, next at 1609933064, pending count: 1
[DRAM_CYCLE_ERROR] Cycle-based error applied! address=0x1f4e1c3c0 additional_latency=173500 cycles
Heartbeat CPU 0 instructions: 1170000184 cycles: 1608565283 heartbeat IPC: 0.8293 cumulative IPC: 0.7274 (Simulation time: 03 hr 52 min 53 sec)
[ERROR_CYCLE] Error added at CPU cycle 1609933064, next at 1625877684, pending count: 1
[DRAM_CYCLE_ERROR] Cycle-based error applied! address=0xd9ce16180 additional_latency=173500 cycles
Heartbeat CPU 0 instructions: 1180000184 cycles: 1620517710 heartbeat IPC: 0.8367 cumulative IPC: 0.7282 (Simulation time: 03 hr 54 min 49 sec)
[ERROR_CYCLE] Error added at CPU cycle 1625877685, next at 1636789861, pending count: 1
[DRAM_CYCLE_ERROR] Cycle-based error applied! address=0xf0e9e71c0 additional_latency=173500 cycles
Heartbeat CPU 0 instructions: 1190000185 cycles: 1632482247 heartbeat IPC: 0.8358 cumulative IPC: 0.729 (Simulation time: 03 hr 56 min 44 sec)
[ERROR_CYCLE] Error added at CPU cycle 1636789862, next at 1644796500, pending count: 1
[DRAM_CYCLE_ERROR] Cycle-based error applied! address=0xe83ca52c0 additional_latency=173500 cycles
Heartbeat CPU 0 instructions: 1200000186 cycles: 1644427099 heartbeat IPC: 0.8372 cumulative IPC: 0.7297 (Simulation time: 03 hr 58 min 40 sec)
[ERROR_CYCLE] Error added at CPU cycle 1644796501, next at 1651860450, pending count: 1
[DRAM_CYCLE_ERROR] Cycle-based error applied! address=0x7b070dd40 additional_latency=173500 cycles
[ERROR_CYCLE] Error added at CPU cycle 1651860451, next at 1653809977, pending count: 1
[DRAM_CYCLE_ERROR] Cycle-based error applied! address=0x3e8a15d00 additional_latency=173500 cycles
[ERROR_CYCLE] Error added at CPU cycle 1653809978, next at 1657379418, pending count: 1
[DRAM_CYCLE_ERROR] Cycle-based error applied! address=0x8997ad7c0 additional_latency=173500 cycles
Heartbeat CPU 0 instructions: 1210000188 cycles: 1656498580 heartbeat IPC: 0.8284 cumulative IPC: 0.7305 (Simulation time: 04 hr 00 min 31 sec)
[ERROR_CYCLE] Error added at CPU cycle 1657379418, next at 1658264083, pending count: 1
[DRAM_CYCLE_ERROR] Cycle-based error applied! address=0xbad260800 additional_latency=173500 cycles
[ERROR_CYCLE] Error added at CPU cycle 1658264083, next at 1665882359, pending count: 1
[DRAM_CYCLE_ERROR] Cycle-based error applied! address=0x93746c040 additional_latency=173500 cycles
[ERROR_CYCLE] Error added at CPU cycle 1665882360, next at 1676059798, pending count: 1
[DRAM_CYCLE_ERROR] Cycle-based error applied! address=0x84c8a19c0 additional_latency=173500 cycles
Heartbeat CPU 0 instructions: 1220000188 cycles: 1668844323 heartbeat IPC: 0.81 cumulative IPC: 0.731 (Simulation time: 04 hr 02 min 13 sec)
[ERROR_CYCLE] Error added at CPU cycle 1676059798, next at 1681837268, pending count: 1
[DRAM_CYCLE_ERROR] Cycle-based error applied! address=0x46d4cdf00 additional_latency=173500 cycles
Heartbeat CPU 0 instructions: 1230000188 cycles: 1681213479 heartbeat IPC: 0.8085 cumulative IPC: 0.7316 (Simulation time: 04 hr 03 min 53 sec)
[ERROR_CYCLE] Error added at CPU cycle 1681837269, next at 1682449489, pending count: 1
[DRAM_CYCLE_ERROR] Cycle-based error applied! address=0xe8d6f9480 additional_latency=173500 cycles
[ERROR_CYCLE] Error added at CPU cycle 1682449490, next at 1684531699, pending count: 1
[DRAM_CYCLE_ERROR] Cycle-based error applied! address=0x396471a40 additional_latency=173500 cycles
[ERROR_CYCLE] Error added at CPU cycle 1684531699, next at 1689632708, pending count: 1
[DRAM_CYCLE_ERROR] Cycle-based error applied! address=0x85d29f0c0 additional_latency=173500 cycles
[ERROR_CYCLE] Error added at CPU cycle 1689632708, next at 1698666429, pending count: 1
[DRAM_CYCLE_ERROR] Cycle-based error applied! address=0x6163d36c0 additional_latency=173500 cycles
Heartbeat CPU 0 instructions: 1240000188 cycles: 1693586652 heartbeat IPC: 0.8082 cumulative IPC: 0.7322 (Simulation time: 04 hr 05 min 24 sec)
[ERROR_CYCLE] Error added at CPU cycle 1698666429, next at 1712907950, pending count: 1
[DRAM_CYCLE_ERROR] Cycle-based error applied! address=0x78079b7c0 additional_latency=173500 cycles
Heartbeat CPU 0 instructions: 1250000190 cycles: 1705972456 heartbeat IPC: 0.8074 cumulative IPC: 0.7327 (Simulation time: 04 hr 06 min 45 sec)
[ERROR_CYCLE] Error added at CPU cycle 1712907950, next at 1723767518, pending count: 1
[DRAM_CYCLE_ERROR] Cycle-based error applied! address=0x8baec9140 additional_latency=173500 cycles
Heartbeat CPU 0 instructions: 1260000191 cycles: 1718068792 heartbeat IPC: 0.8267 cumulative IPC: 0.7334 (Simulation time: 04 hr 08 min 38 sec)
[ERROR_CYCLE] Error added at CPU cycle 1723767518, next at 1724455640, pending count: 1
[DRAM_CYCLE_ERROR] Cycle-based error applied! address=0x3f96567c0 additional_latency=173500 cycles
[ERROR_CYCLE] Error added at CPU cycle 1724455640, next at 1732720291, pending count: 1
[DRAM_CYCLE_ERROR] Cycle-based error applied! address=0x54e305280 additional_latency=173500 cycles
Heartbeat CPU 0 instructions: 1270000194 cycles: 1730113475 heartbeat IPC: 0.8302 cumulative IPC: 0.7341 (Simulation time: 04 hr 10 min 36 sec)
[ERROR_CYCLE] Error added at CPU cycle 1732720291, next at 1732872069, pending count: 1
[DRAM_CYCLE_ERROR] Cycle-based error applied! address=0x8db9accc0 additional_latency=173500 cycles
[ERROR_CYCLE] Error added at CPU cycle 1732872069, next at 1761065331, pending count: 1
[DRAM_CYCLE_ERROR] Cycle-based error applied! address=0xede168a80 additional_latency=173500 cycles
Heartbeat CPU 0 instructions: 1280000194 cycles: 1742060104 heartbeat IPC: 0.8371 cumulative IPC: 0.7348 (Simulation time: 04 hr 12 min 30 sec)
Heartbeat CPU 0 instructions: 1290000197 cycles: 1753964037 heartbeat IPC: 0.8401 cumulative IPC: 0.7355 (Simulation time: 04 hr 14 min 14 sec)
[ERROR_CYCLE] Error added at CPU cycle 1761065331, next at 1793147943, pending count: 1
[DRAM_CYCLE_ERROR] Cycle-based error applied! address=0xeb8db6fa8 additional_latency=173500 cycles
[ERROR_CYCLE] Error added at CPU cycle 1793147943, next at 1793813373, pending count: 1
[DRAM_CYCLE_ERROR] Cycle-based error applied! address=0xef0a761f0 additional_latency=173500 cycles
[ERROR_CYCLE] Error added at CPU cycle 1793813374, next at 1797803186, pending count: 1
[DRAM_CYCLE_ERROR] Cycle-based error applied! address=0xacce33cb0 additional_latency=173500 cycles
[ERROR_CYCLE] Error added at CPU cycle 1797803186, next at 1799966554, pending count: 1
[DRAM_CYCLE_ERROR] Cycle-based error applied! address=0xf54492ed8 additional_latency=173500 cycles
[ERROR_CYCLE] Error added at CPU cycle 1799966554, next at 1816349209, pending count: 1
[DRAM_CYCLE_ERROR] Cycle-based error applied! address=0xb7aa97c50 additional_latency=173500 cycles
Heartbeat CPU 0 instructions: 1300000197 cycles: 1814704923 heartbeat IPC: 0.1646 cumulative IPC: 0.7164 (Simulation time: 04 hr 21 min 42 sec)
[ERROR_CYCLE] Error added at CPU cycle 1816349210, next at 1825528779, pending count: 1
[DRAM_CYCLE_ERROR] Cycle-based error applied! address=0xd91902108 additional_latency=173500 cycles
[ERROR_CYCLE] Error added at CPU cycle 1825528779, next at 1834768449, pending count: 1
[DRAM_CYCLE_ERROR] Cycle-based error applied! address=0x240c5c5c0 additional_latency=173500 cycles
Heartbeat CPU 0 instructions: 1310000201 cycles: 1827803274 heartbeat IPC: 0.7635 cumulative IPC: 0.7167 (Simulation time: 04 hr 23 min 33 sec)
[ERROR_CYCLE] Error added at CPU cycle 1834768449, next at 1844525260, pending count: 1
[DRAM_CYCLE_ERROR] Cycle-based error applied! address=0xbdbe00348 additional_latency=173500 cycles
Heartbeat CPU 0 instructions: 1320000202 cycles: 1840141781 heartbeat IPC: 0.8105 cumulative IPC: 0.7173 (Simulation time: 04 hr 25 min 24 sec)
[ERROR_CYCLE] Error added at CPU cycle 1844525260, next at 1850641546, pending count: 1
[DRAM_CYCLE_ERROR] Cycle-based error applied! address=0x79806e00 additional_latency=173500 cycles
[ERROR_CYCLE] Error added at CPU cycle 1850641546, next at 1889060908, pending count: 1
[DRAM_CYCLE_ERROR] Cycle-based error applied! address=0xd100e9940 additional_latency=173500 cycles
Heartbeat CPU 0 instructions: 1330000204 cycles: 1852490495 heartbeat IPC: 0.8098 cumulative IPC: 0.718 (Simulation time: 04 hr 27 min 04 sec)
Heartbeat CPU 0 instructions: 1340000204 cycles: 1864834009 heartbeat IPC: 0.8101 cumulative IPC: 0.7186 (Simulation time: 04 hr 28 min 55 sec)
Heartbeat CPU 0 instructions: 1350000205 cycles: 1877207780 heartbeat IPC: 0.8082 cumulative IPC: 0.7192 (Simulation time: 04 hr 30 min 39 sec)
[ERROR_CYCLE] Error added at CPU cycle 1889060908, next at 1893058439, pending count: 1
[DRAM_CYCLE_ERROR] Cycle-based error applied! address=0x4bbd94368 additional_latency=173500 cycles
Heartbeat CPU 0 instructions: 1360000207 cycles: 1889346856 heartbeat IPC: 0.8238 cumulative IPC: 0.7198 (Simulation time: 04 hr 32 min 02 sec)
[ERROR_CYCLE] Error added at CPU cycle 1893058439, next at 1893848597, pending count: 1
[DRAM_CYCLE_ERROR] Cycle-based error applied! address=0x33d80d088 additional_latency=173500 cycles
[ERROR_CYCLE] Error added at CPU cycle 1893848597, next at 1896618500, pending count: 1
[DRAM_CYCLE_ERROR] Cycle-based error applied! address=0x35518a348 additional_latency=173500 cycles
[ERROR_CYCLE] Error added at CPU cycle 1896618500, next at 1899563940, pending count: 1
[DRAM_CYCLE_ERROR] Cycle-based error applied! address=0x275988280 additional_latency=173500 cycles
[ERROR_CYCLE] Error added at CPU cycle 1899563940, next at 1916523007, pending count: 1
[DRAM_CYCLE_ERROR] Cycle-based error applied! address=0x912ce0b40 additional_latency=173500 cycles
Heartbeat CPU 0 instructions: 1370000207 cycles: 1901311768 heartbeat IPC: 0.8358 cumulative IPC: 0.7206 (Simulation time: 04 hr 33 min 50 sec)
Heartbeat CPU 0 instructions: 1380000211 cycles: 1913586384 heartbeat IPC: 0.8147 cumulative IPC: 0.7212 (Simulation time: 04 hr 35 min 37 sec)
[ERROR_CYCLE] Error added at CPU cycle 1916523007, next at 1919993062, pending count: 1
[DRAM_CYCLE_ERROR] Cycle-based error applied! address=0x76c55b848 additional_latency=173500 cycles
[ERROR_CYCLE] Error added at CPU cycle 1919993063, next at 1953397181, pending count: 1
[DRAM_CYCLE_ERROR] Cycle-based error applied! address=0xfe2fb8508 additional_latency=173500 cycles
Heartbeat CPU 0 instructions: 1390000215 cycles: 1925888547 heartbeat IPC: 0.8129 cumulative IPC: 0.7217 (Simulation time: 04 hr 37 min 08 sec)
Heartbeat CPU 0 instructions: 1400000216 cycles: 1938103978 heartbeat IPC: 0.8186 cumulative IPC: 0.7224 (Simulation time: 04 hr 38 min 46 sec)
Heartbeat CPU 0 instructions: 1410000216 cycles: 1950635831 heartbeat IPC: 0.798 cumulative IPC: 0.7228 (Simulation time: 04 hr 40 min 38 sec)
[ERROR_CYCLE] Error added at CPU cycle 1953397182, next at 1957960083, pending count: 1
[DRAM_CYCLE_ERROR] Cycle-based error applied! address=0x8b7205300 additional_latency=173500 cycles
[ERROR_CYCLE] Error added at CPU cycle 1957960083, next at 1964413148, pending count: 1
[DRAM_CYCLE_ERROR] Cycle-based error applied! address=0xf4cba2180 additional_latency=173500 cycles
Heartbeat CPU 0 instructions: 1420000217 cycles: 1963464485 heartbeat IPC: 0.7795 cumulative IPC: 0.7232 (Simulation time: 04 hr 42 min 34 sec)
[ERROR_CYCLE] Error added at CPU cycle 1964413148, next at 1975694798, pending count: 1
[DRAM_CYCLE_ERROR] Cycle-based error applied! address=0xf21adc4c8 additional_latency=173500 cycles
[ERROR_CYCLE] Error added at CPU cycle 1975694799, next at 1978590678, pending count: 1
[DRAM_CYCLE_ERROR] Cycle-based error applied! address=0x19f431d88 additional_latency=173500 cycles
Heartbeat CPU 0 instructions: 1430000219 cycles: 1976168890 heartbeat IPC: 0.7871 cumulative IPC: 0.7236 (Simulation time: 04 hr 44 min 28 sec)
[ERROR_CYCLE] Error added at CPU cycle 1978590678, next at 1999903695, pending count: 1
[DRAM_CYCLE_ERROR] Cycle-based error applied! address=0xa73b49d08 additional_latency=173500 cycles
Heartbeat CPU 0 instructions: 1440000219 cycles: 1988794244 heartbeat IPC: 0.7921 cumulative IPC: 0.7241 (Simulation time: 04 hr 46 min 15 sec)
[ERROR_CYCLE] Error added at CPU cycle 1999903696, next at 2039968677, pending count: 1
[DRAM_CYCLE_ERROR] Cycle-based error applied! address=0x394b11e40 additional_latency=173500 cycles
Heartbeat CPU 0 instructions: 1450000220 cycles: 2001135079 heartbeat IPC: 0.8103 cumulative IPC: 0.7246 (Simulation time: 04 hr 47 min 52 sec)
Heartbeat CPU 0 instructions: 1460000222 cycles: 2013471677 heartbeat IPC: 0.8106 cumulative IPC: 0.7251 (Simulation time: 04 hr 49 min 43 sec)
Heartbeat CPU 0 instructions: 1470000222 cycles: 2025798268 heartbeat IPC: 0.8113 cumulative IPC: 0.7256 (Simulation time: 04 hr 51 min 34 sec)
Heartbeat CPU 0 instructions: 1480000223 cycles: 2038181224 heartbeat IPC: 0.8076 cumulative IPC: 0.7261 (Simulation time: 04 hr 53 min 25 sec)
[ERROR_CYCLE] Error added at CPU cycle 2039968677, next at 2041475847, pending count: 1
[DRAM_CYCLE_ERROR] Cycle-based error applied! address=0x892ef9300 additional_latency=173500 cycles
[ERROR_CYCLE] Error added at CPU cycle 2041475847, next at 2047560792, pending count: 1
[DRAM_CYCLE_ERROR] Cycle-based error applied! address=0x7aed093c0 additional_latency=173500 cycles
[ERROR_CYCLE] Error added at CPU cycle 2047560792, next at 2057318185, pending count: 1
[DRAM_CYCLE_ERROR] Cycle-based error applied! address=0x64323b488 additional_latency=173500 cycles
Heartbeat CPU 0 instructions: 1490000225 cycles: 2050467115 heartbeat IPC: 0.8139 cumulative IPC: 0.7267 (Simulation time: 04 hr 55 min 15 sec)
[ERROR_CYCLE] Error added at CPU cycle 2057318185, next at 2060443789, pending count: 1
[DRAM_CYCLE_ERROR] Cycle-based error applied! address=0x83d0cb100 additional_latency=173500 cycles
[ERROR_CYCLE] Error added at CPU cycle 2060443790, next at 2081336312, pending count: 1
[DRAM_CYCLE_ERROR] Cycle-based error applied! address=0x38449c288 additional_latency=173500 cycles
Heartbeat CPU 0 instructions: 1500000225 cycles: 2062421191 heartbeat IPC: 0.8365 cumulative IPC: 0.7273 (Simulation time: 04 hr 57 min 00 sec)
Heartbeat CPU 0 instructions: 1510000226 cycles: 2074557459 heartbeat IPC: 0.824 cumulative IPC: 0.7279 (Simulation time: 04 hr 58 min 47 sec)
[ERROR_CYCLE] Error added at CPU cycle 2081336313, next at 2086511136, pending count: 1
[DRAM_CYCLE_ERROR] Cycle-based error applied! address=0xe3d599c48 additional_latency=173500 cycles
[ERROR_CYCLE] Error added at CPU cycle 2086511137, next at 2122093809, pending count: 1
[DRAM_CYCLE_ERROR] Cycle-based error applied! address=0x21fa7ca00 additional_latency=173500 cycles
Heartbeat CPU 0 instructions: 1520000227 cycles: 2086875727 heartbeat IPC: 0.8118 cumulative IPC: 0.7284 (Simulation time: 05 hr 00 min 34 sec)
Heartbeat CPU 0 instructions: 1530000228 cycles: 2099118343 heartbeat IPC: 0.8168 cumulative IPC: 0.7289 (Simulation time: 05 hr 02 min 25 sec)
Heartbeat CPU 0 instructions: 1540000231 cycles: 2111428593 heartbeat IPC: 0.8123 cumulative IPC: 0.7294 (Simulation time: 05 hr 04 min 17 sec)
[ERROR_CYCLE] Error added at CPU cycle 2122093810, next at 2127094108, pending count: 1
[DRAM_CYCLE_ERROR] Cycle-based error applied! address=0x54bc3c940 additional_latency=173500 cycles
Heartbeat CPU 0 instructions: 1550000233 cycles: 2124262901 heartbeat IPC: 0.7792 cumulative IPC: 0.7297 (Simulation time: 05 hr 06 min 13 sec)
[ERROR_CYCLE] Error added at CPU cycle 2127094108, next at 2135895343, pending count: 1
[DRAM_CYCLE_ERROR] Cycle-based error applied! address=0x958fadd08 additional_latency=173500 cycles
[ERROR_CYCLE] Error added at CPU cycle 2135895344, next at 2136799738, pending count: 1
[DRAM_CYCLE_ERROR] Cycle-based error applied! address=0xab3a58b80 additional_latency=173500 cycles
[ERROR_CYCLE] Error added at CPU cycle 2136799738, next at 2139453762, pending count: 1
[DRAM_CYCLE_ERROR] Cycle-based error applied! address=0x4dbf69988 additional_latency=173500 cycles
Heartbeat CPU 0 instructions: 1560000237 cycles: 2137025819 heartbeat IPC: 0.7835 cumulative IPC: 0.73 (Simulation time: 05 hr 08 min 07 sec)
[ERROR_CYCLE] Error added at CPU cycle 2139453763, next at 2143754350, pending count: 1
[DRAM_CYCLE_ERROR] Cycle-based error applied! address=0xd3fae0080 additional_latency=173500 cycles
[ERROR_CYCLE] Error added at CPU cycle 2143754351, next at 2143833455, pending count: 1
[DRAM_CYCLE_ERROR] Cycle-based error applied! address=0xa13a05708 additional_latency=173500 cycles
[ERROR_CYCLE] Error added at CPU cycle 2143833456, next at 2170169196, pending count: 1
[DRAM_CYCLE_ERROR] Cycle-based error applied! address=0xc741814c0 additional_latency=173500 cycles
Heartbeat CPU 0 instructions: 1570000238 cycles: 2149689213 heartbeat IPC: 0.7897 cumulative IPC: 0.7303 (Simulation time: 05 hr 10 min 01 sec)
Heartbeat CPU 0 instructions: 1580000241 cycles: 2162095980 heartbeat IPC: 0.806 cumulative IPC: 0.7308 (Simulation time: 05 hr 11 min 53 sec)
[ERROR_CYCLE] Error added at CPU cycle 2170169196, next at 2170565878, pending count: 1
[DRAM_CYCLE_ERROR] Cycle-based error applied! address=0xcda0c6740 additional_latency=173500 cycles
[ERROR_CYCLE] Error added at CPU cycle 2170565879, next at 2195034269, pending count: 1
[DRAM_CYCLE_ERROR] Cycle-based error applied! address=0x801f27bc0 additional_latency=173500 cycles
Heartbeat CPU 0 instructions: 1590000244 cycles: 2174430807 heartbeat IPC: 0.8107 cumulative IPC: 0.7312 (Simulation time: 05 hr 13 min 44 sec)
Heartbeat CPU 0 instructions: 1600000245 cycles: 2186762130 heartbeat IPC: 0.8109 cumulative IPC: 0.7317 (Simulation time: 05 hr 15 min 36 sec)
[ERROR_CYCLE] Error added at CPU cycle 2195034270, next at 2204436534, pending count: 1
[DRAM_CYCLE_ERROR] Cycle-based error applied! address=0x38e308a00 additional_latency=173500 cycles
Heartbeat CPU 0 instructions: 1610000246 cycles: 2199108945 heartbeat IPC: 0.8099 cumulative IPC: 0.7321 (Simulation time: 05 hr 17 min 29 sec)
[ERROR_CYCLE] Error added at CPU cycle 2204436534, next at 2217211204, pending count: 1
[DRAM_CYCLE_ERROR] Cycle-based error applied! address=0x7ef078180 additional_latency=173500 cycles
Heartbeat CPU 0 instructions: 1620000249 cycles: 2211493510 heartbeat IPC: 0.8075 cumulative IPC: 0.7325 (Simulation time: 05 hr 19 min 21 sec)
[ERROR_CYCLE] Error added at CPU cycle 2217211205, next at 2223054796, pending count: 1
[DRAM_CYCLE_ERROR] Cycle-based error applied! address=0xa7e9c3980 additional_latency=173500 cycles
[ERROR_CYCLE] Error added at CPU cycle 2223054797, next at 2228544198, pending count: 1
[DRAM_CYCLE_ERROR] Cycle-based error applied! address=0x96ab417c0 additional_latency=173500 cycles
Heartbeat CPU 0 instructions: 1630000253 cycles: 2223550203 heartbeat IPC: 0.8294 cumulative IPC: 0.7331 (Simulation time: 05 hr 21 min 10 sec)
[ERROR_CYCLE] Error added at CPU cycle 2228544198, next at 2232019815, pending count: 1
[DRAM_CYCLE_ERROR] Cycle-based error applied! address=0xdc83eb090 additional_latency=173500 cycles
[ERROR_CYCLE] Error added at CPU cycle 2232019815, next at 2235515925, pending count: 1
[DRAM_CYCLE_ERROR] Cycle-based error applied! address=0x51fccec08 additional_latency=173500 cycles
[ERROR_CYCLE] Error added at CPU cycle 2235515925, next at 2237647010, pending count: 1
[DRAM_CYCLE_ERROR] Cycle-based error applied! address=0x145ada000 additional_latency=173500 cycles
Heartbeat CPU 0 instructions: 1640000254 cycles: 2235559710 heartbeat IPC: 0.8327 cumulative IPC: 0.7336 (Simulation time: 05 hr 23 min 00 sec)
[ERROR_CYCLE] Error added at CPU cycle 2237647010, next at 2248080448, pending count: 1
[DRAM_CYCLE_ERROR] Cycle-based error applied! address=0x7b465bbb8 additional_latency=173500 cycles
Heartbeat CPU 0 instructions: 1650000256 cycles: 2247867485 heartbeat IPC: 0.8125 cumulative IPC: 0.734 (Simulation time: 05 hr 24 min 51 sec)
[ERROR_CYCLE] Error added at CPU cycle 2248080448, next at 2268555961, pending count: 1
[DRAM_CYCLE_ERROR] Cycle-based error applied! address=0xd21bdc8 additional_latency=173500 cycles
Heartbeat CPU 0 instructions: 1660000257 cycles: 2260154004 heartbeat IPC: 0.8139 cumulative IPC: 0.7345 (Simulation time: 05 hr 26 min 23 sec)
[ERROR_CYCLE] Error added at CPU cycle 2268555961, next at 2288482074, pending count: 1
[DRAM_CYCLE_ERROR] Cycle-based error applied! address=0xfd2123a00 additional_latency=173500 cycles
Heartbeat CPU 0 instructions: 1670000261 cycles: 2272380897 heartbeat IPC: 0.8179 cumulative IPC: 0.7349 (Simulation time: 05 hr 28 min 14 sec)
Heartbeat CPU 0 instructions: 1680000264 cycles: 2285080729 heartbeat IPC: 0.7874 cumulative IPC: 0.7352 (Simulation time: 05 hr 29 min 52 sec)
[ERROR_CYCLE] Error added at CPU cycle 2288482074, next at 2294298920, pending count: 1
[DRAM_CYCLE_ERROR] Cycle-based error applied! address=0x56ee73b40 additional_latency=173500 cycles
[ERROR_CYCLE] Error added at CPU cycle 2294298920, next at 2295073929, pending count: 1
[DRAM_CYCLE_ERROR] Cycle-based error applied! address=0xc3ec9fe88 additional_latency=173500 cycles
[ERROR_CYCLE] Error added at CPU cycle 2295073930, next at 2296867031, pending count: 1
[DRAM_CYCLE_ERROR] Cycle-based error applied! address=0x7f49cb3c0 additional_latency=173500 cycles
[ERROR_CYCLE] Error added at CPU cycle 2296867031, next at 2305759519, pending count: 1
[DRAM_CYCLE_ERROR] Cycle-based error applied! address=0x27108f648 additional_latency=173500 cycles
Heartbeat CPU 0 instructions: 1690000264 cycles: 2297917461 heartbeat IPC: 0.779 cumulative IPC: 0.7354 (Simulation time: 05 hr 31 min 30 sec)
[ERROR_CYCLE] Error added at CPU cycle 2305759519, next at 2317589146, pending count: 1
[DRAM_CYCLE_ERROR] Cycle-based error applied! address=0x3887664c8 additional_latency=173500 cycles
Heartbeat CPU 0 instructions: 1700000264 cycles: 2310575873 heartbeat IPC: 0.79 cumulative IPC: 0.7357 (Simulation time: 05 hr 33 min 01 sec)
[ERROR_CYCLE] Error added at CPU cycle 2317589146, next at 2319340389, pending count: 1
[DRAM_CYCLE_ERROR] Cycle-based error applied! address=0x17dc89cc0 additional_latency=173500 cycles
[ERROR_CYCLE] Error added at CPU cycle 2319340390, next at 2321630499, pending count: 1
[DRAM_CYCLE_ERROR] Cycle-based error applied! address=0x4c0289348 additional_latency=173500 cycles
[ERROR_CYCLE] Error added at CPU cycle 2321630499, next at 2328230742, pending count: 1
[DRAM_CYCLE_ERROR] Cycle-based error applied! address=0xae628d440 additional_latency=173500 cycles
Heartbeat CPU 0 instructions: 1710000267 cycles: 2323105167 heartbeat IPC: 0.7981 cumulative IPC: 0.7361 (Simulation time: 05 hr 34 min 23 sec)
[ERROR_CYCLE] Error added at CPU cycle 2328230742, next at 2330492435, pending count: 1
[DRAM_CYCLE_ERROR] Cycle-based error applied! address=0xf3cb16ac8 additional_latency=173500 cycles
[ERROR_CYCLE] Error added at CPU cycle 2330492436, next at 2331166908, pending count: 1
[DRAM_CYCLE_ERROR] Cycle-based error applied! address=0xce018fb40 additional_latency=173500 cycles
[ERROR_CYCLE] Error added at CPU cycle 2331166908, next at 2332314393, pending count: 1
[DRAM_CYCLE_ERROR] Cycle-based error applied! address=0x2345b0880 additional_latency=173500 cycles
[ERROR_CYCLE] Error added at CPU cycle 2332314393, next at 2334063851, pending count: 1
[DRAM_CYCLE_ERROR] Cycle-based error applied! address=0x4ec5dd300 additional_latency=173500 cycles
[ERROR_CYCLE] Error added at CPU cycle 2334063851, next at 2375625705, pending count: 1
[DRAM_CYCLE_ERROR] Cycle-based error applied! address=0x88d73e848 additional_latency=173500 cycles
Heartbeat CPU 0 instructions: 1720000269 cycles: 2335443132 heartbeat IPC: 0.8105 cumulative IPC: 0.7365 (Simulation time: 05 hr 36 min 12 sec)
Heartbeat CPU 0 instructions: 1730000269 cycles: 2347777867 heartbeat IPC: 0.8107 cumulative IPC: 0.7369 (Simulation time: 05 hr 37 min 46 sec)
Heartbeat CPU 0 instructions: 1740000270 cycles: 2360120331 heartbeat IPC: 0.8102 cumulative IPC: 0.7373 (Simulation time: 05 hr 39 min 29 sec)
Heartbeat CPU 0 instructions: 1750000272 cycles: 2372490846 heartbeat IPC: 0.8084 cumulative IPC: 0.7376 (Simulation time: 05 hr 41 min 05 sec)
[ERROR_CYCLE] Error added at CPU cycle 2375625705, next at 2388203853, pending count: 1
[DRAM_CYCLE_ERROR] Cycle-based error applied! address=0x44839c800 additional_latency=173500 cycles
Heartbeat CPU 0 instructions: 1760000276 cycles: 2384709462 heartbeat IPC: 0.8184 cumulative IPC: 0.738 (Simulation time: 05 hr 42 min 32 sec)
[ERROR_CYCLE] Error added at CPU cycle 2388203853, next at 2394260406, pending count: 1
[DRAM_CYCLE_ERROR] Cycle-based error applied! address=0x7249d6880 additional_latency=173500 cycles
[ERROR_CYCLE] Error added at CPU cycle 2394260407, next at 2419140556, pending count: 1
[DRAM_CYCLE_ERROR] Cycle-based error applied! address=0xee28dc688 additional_latency=173500 cycles
Heartbeat CPU 0 instructions: 1770000278 cycles: 2396658096 heartbeat IPC: 0.8369 cumulative IPC: 0.7385 (Simulation time: 05 hr 44 min 15 sec)
Heartbeat CPU 0 instructions: 1780000279 cycles: 2408871734 heartbeat IPC: 0.8188 cumulative IPC: 0.7389 (Simulation time: 05 hr 46 min 04 sec)
[ERROR_CYCLE] Error added at CPU cycle 2419140557, next at 2424145521, pending count: 1
[DRAM_CYCLE_ERROR] Cycle-based error applied! address=0x1a911c080 additional_latency=173500 cycles
Heartbeat CPU 0 instructions: 1790000279 cycles: 2421187465 heartbeat IPC: 0.812 cumulative IPC: 0.7393 (Simulation time: 05 hr 47 min 44 sec)
[ERROR_CYCLE] Error added at CPU cycle 2424145521, next at 2429301214, pending count: 1
[DRAM_CYCLE_ERROR] Cycle-based error applied! address=0x957dbaa48 additional_latency=173500 cycles
[ERROR_CYCLE] Error added at CPU cycle 2429301214, next at 2462176563, pending count: 1
[DRAM_CYCLE_ERROR] Cycle-based error applied! address=0xd75914e48 additional_latency=173500 cycles
Heartbeat CPU 0 instructions: 1800000279 cycles: 2433401213 heartbeat IPC: 0.8187 cumulative IPC: 0.7397 (Simulation time: 05 hr 49 min 29 sec)
Heartbeat CPU 0 instructions: 1810000282 cycles: 2445844718 heartbeat IPC: 0.8036 cumulative IPC: 0.74 (Simulation time: 05 hr 51 min 17 sec)
Heartbeat CPU 0 instructions: 1820000284 cycles: 2458679657 heartbeat IPC: 0.7791 cumulative IPC: 0.7402 (Simulation time: 05 hr 53 min 06 sec)
[ERROR_CYCLE] Error added at CPU cycle 2462176564, next at 2471115500, pending count: 1
[DRAM_CYCLE_ERROR] Cycle-based error applied! address=0xe5994ad80 additional_latency=173500 cycles
[ERROR_CYCLE] Error added at CPU cycle 2471115500, next at 2482235696, pending count: 1
[DRAM_CYCLE_ERROR] Cycle-based error applied! address=0x1c9596800 additional_latency=173500 cycles
Heartbeat CPU 0 instructions: 1830000284 cycles: 2471395742 heartbeat IPC: 0.7864 cumulative IPC: 0.7405 (Simulation time: 05 hr 55 min 00 sec)
[ERROR_CYCLE] Error added at CPU cycle 2482235696, next at 2484445689, pending count: 1
[DRAM_CYCLE_ERROR] Cycle-based error applied! address=0xfecc23f80 additional_latency=173500 cycles
Heartbeat CPU 0 instructions: 1840000284 cycles: 2484066818 heartbeat IPC: 0.7892 cumulative IPC: 0.7407 (Simulation time: 05 hr 56 min 54 sec)
[ERROR_CYCLE] Error added at CPU cycle 2484445689, next at 2487826583, pending count: 1
[DRAM_CYCLE_ERROR] Cycle-based error applied! address=0xeeb57ce88 additional_latency=173500 cycles
[ERROR_CYCLE] Error added at CPU cycle 2487826583, next at 2492127373, pending count: 1
[DRAM_CYCLE_ERROR] Cycle-based error applied! address=0xee7c4eec0 additional_latency=173500 cycles
[ERROR_CYCLE] Error added at CPU cycle 2492127374, next at 2505689272, pending count: 1
[DRAM_CYCLE_ERROR] Cycle-based error applied! address=0x21b5f7640 additional_latency=173500 cycles
Heartbeat CPU 0 instructions: 1850000287 cycles: 2496415079 heartbeat IPC: 0.8098 cumulative IPC: 0.7411 (Simulation time: 05 hr 58 min 34 sec)
[ERROR_CYCLE] Error added at CPU cycle 2505689272, next at 2515529207, pending count: 1
[DRAM_CYCLE_ERROR] Cycle-based error applied! address=0x1dd261200 additional_latency=173500 cycles
Heartbeat CPU 0 instructions: 1860000291 cycles: 2508778196 heartbeat IPC: 0.8089 cumulative IPC: 0.7414 (Simulation time: 06 hr 00 min 08 sec)
[ERROR_CYCLE] Error added at CPU cycle 2515529208, next at 2520692507, pending count: 1
[DRAM_CYCLE_ERROR] Cycle-based error applied! address=0x638487e00 additional_latency=173500 cycles
[ERROR_CYCLE] Error added at CPU cycle 2520692507, next at 2526977663, pending count: 1
[DRAM_CYCLE_ERROR] Cycle-based error applied! address=0xf48217f00 additional_latency=173500 cycles
Heartbeat CPU 0 instructions: 1870000291 cycles: 2521112337 heartbeat IPC: 0.8108 cumulative IPC: 0.7417 (Simulation time: 06 hr 01 min 55 sec)
[ERROR_CYCLE] Error added at CPU cycle 2526977664, next at 2534787706, pending count: 1
[DRAM_CYCLE_ERROR] Cycle-based error applied! address=0x59a4e9d80 additional_latency=173500 cycles
Heartbeat CPU 0 instructions: 1880000295 cycles: 2533476271 heartbeat IPC: 0.8088 cumulative IPC: 0.7421 (Simulation time: 06 hr 03 min 40 sec)
[ERROR_CYCLE] Error added at CPU cycle 2534787706, next at 2539634993, pending count: 1
[DRAM_CYCLE_ERROR] Cycle-based error applied! address=0x2194b740 additional_latency=173500 cycles
[ERROR_CYCLE] Error added at CPU cycle 2539634993, next at 2541357327, pending count: 1
[DRAM_CYCLE_ERROR] Cycle-based error applied! address=0x9f8eb3b88 additional_latency=173500 cycles
[ERROR_CYCLE] Error added at CPU cycle 2541357328, next at 2563015622, pending count: 1
[DRAM_CYCLE_ERROR] Cycle-based error applied! address=0x3691641c0 additional_latency=173500 cycles
Heartbeat CPU 0 instructions: 1890000295 cycles: 2545855456 heartbeat IPC: 0.8078 cumulative IPC: 0.7424 (Simulation time: 06 hr 05 min 32 sec)
Heartbeat CPU 0 instructions: 1900000298 cycles: 2557816504 heartbeat IPC: 0.836 cumulative IPC: 0.7428 (Simulation time: 06 hr 07 min 09 sec)
[ERROR_CYCLE] Error added at CPU cycle 2563015623, next at 2574248413, pending count: 1
[DRAM_CYCLE_ERROR] Cycle-based error applied! address=0xfe9d6e008 additional_latency=173500 cycles
Heartbeat CPU 0 instructions: 1910000299 cycles: 2569894687 heartbeat IPC: 0.8279 cumulative IPC: 0.7432 (Simulation time: 06 hr 08 min 43 sec)
[ERROR_CYCLE] Error added at CPU cycle 2574248413, next at 2584536777, pending count: 1
[DRAM_CYCLE_ERROR] Cycle-based error applied! address=0x58e893dc8 additional_latency=173500 cycles
Heartbeat CPU 0 instructions: 1920000299 cycles: 2582201201 heartbeat IPC: 0.8126 cumulative IPC: 0.7436 (Simulation time: 06 hr 10 min 25 sec)
[ERROR_CYCLE] Error added at CPU cycle 2584536777, next at 2633667804, pending count: 1
[DRAM_CYCLE_ERROR] Cycle-based error applied! address=0xfcf08440 additional_latency=173500 cycles
Heartbeat CPU 0 instructions: 1930000301 cycles: 2594463992 heartbeat IPC: 0.8155 cumulative IPC: 0.7439 (Simulation time: 06 hr 12 min 15 sec)
Heartbeat CPU 0 instructions: 1940000301 cycles: 2606679908 heartbeat IPC: 0.8186 cumulative IPC: 0.7442 (Simulation time: 06 hr 14 min 00 sec)
Heartbeat CPU 0 instructions: 1950000301 cycles: 2619510949 heartbeat IPC: 0.7794 cumulative IPC: 0.7444 (Simulation time: 06 hr 15 min 54 sec)
Heartbeat CPU 0 instructions: 1960000301 cycles: 2632290121 heartbeat IPC: 0.7825 cumulative IPC: 0.7446 (Simulation time: 06 hr 17 min 48 sec)
[ERROR_CYCLE] Error added at CPU cycle 2633667805, next at 2637894515, pending count: 1
[DRAM_CYCLE_ERROR] Cycle-based error applied! address=0x13dd99040 additional_latency=173500 cycles
[ERROR_CYCLE] Error added at CPU cycle 2637894516, next at 2648211880, pending count: 1
[DRAM_CYCLE_ERROR] Cycle-based error applied! address=0x240697b00 additional_latency=173500 cycles
Heartbeat CPU 0 instructions: 1970000304 cycles: 2644952347 heartbeat IPC: 0.7898 cumulative IPC: 0.7448 (Simulation time: 06 hr 19 min 42 sec)
[ERROR_CYCLE] Error added at CPU cycle 2648211880, next at 2649012483, pending count: 1
[DRAM_CYCLE_ERROR] Cycle-based error applied! address=0x3caaf5e88 additional_latency=173500 cycles
[ERROR_CYCLE] Error added at CPU cycle 2649012484, next at 2655650192, pending count: 1
[DRAM_CYCLE_ERROR] Cycle-based error applied! address=0x19447c5c0 additional_latency=173500 cycles
[ERROR_CYCLE] Error added at CPU cycle 2655650192, next at 2663525915, pending count: 1
[DRAM_CYCLE_ERROR] Cycle-based error applied! address=0xc3dac1f40 additional_latency=173500 cycles
Heartbeat CPU 0 instructions: 1980000304 cycles: 2657407401 heartbeat IPC: 0.8029 cumulative IPC: 0.7451 (Simulation time: 06 hr 21 min 32 sec)
[ERROR_CYCLE] Error added at CPU cycle 2663525915, next at 2686778622, pending count: 1
[DRAM_CYCLE_ERROR] Cycle-based error applied! address=0x2cc7c440 additional_latency=173500 cycles
Heartbeat CPU 0 instructions: 1990000304 cycles: 2669759473 heartbeat IPC: 0.8096 cumulative IPC: 0.7454 (Simulation time: 06 hr 23 min 23 sec)

=== ERROR PAGE STATISTICS ===
Mode: CYCLE
Error Cycle Interval: 10000000 CPU cycles
Total Error Accesses: 287
==============================
Simulation finished CPU 0 instructions: 1999999509 cycles: 2682102010 cumulative IPC: 0.7457 (Simulation time: 06 hr 25 min 15 sec)
Simulation complete CPU 0 instructions: 1999999509 cycles: 2682102010 cumulative IPC: 0.7457 (Simulation time: 06 hr 25 min 15 sec)

ChampSim completed all CPUs

=== Simulation ===
CPU 0 runs test_traces/649.fotonik3d_s-10881B.champsimtrace.xz

Region of Interest Statistics

CPU 0 cumulative IPC: 0.7457 instructions: 1999999509 cycles: 2682102010
CPU 0 Branch Prediction Accuracy: 97.24% MPKI: 0.2738 Average ROB Occupancy at Mispredict: 264.7
Branch type MPKI
BRANCH_DIRECT_JUMP: 5.5e-06
BRANCH_INDIRECT: 0
BRANCH_CONDITIONAL: 0.2738
BRANCH_DIRECT_CALL: 5e-07
BRANCH_INDIRECT_CALL: 0
BRANCH_RETURN: 5e-07

cpu0->cpu0_STLB TOTAL        ACCESS:    6979032 HIT:    3617263 MISS:    3361769 MSHR_MERGE:          0
cpu0->cpu0_STLB LOAD         ACCESS:    6979032 HIT:    3617263 MISS:    3361769 MSHR_MERGE:          0
cpu0->cpu0_STLB RFO          ACCESS:          0 HIT:          0 MISS:          0 MSHR_MERGE:          0
cpu0->cpu0_STLB PREFETCH     ACCESS:          0 HIT:          0 MISS:          0 MSHR_MERGE:          0
cpu0->cpu0_STLB WRITE        ACCESS:          0 HIT:          0 MISS:          0 MSHR_MERGE:          0
cpu0->cpu0_STLB TRANSLATION  ACCESS:          0 HIT:          0 MISS:          0 MSHR_MERGE:          0
cpu0->cpu0_STLB PREFETCH REQUESTED:          0 ISSUED:          0 USEFUL:          0 USELESS:          0
cpu0->cpu0_STLB AVERAGE MISS LATENCY: 339.3 cycles
cpu0->cpu0_L2C TOTAL        ACCESS:   51671903 HIT:   16865741 MISS:   34806162 MSHR_MERGE:          0
cpu0->cpu0_L2C LOAD         ACCESS:   36315947 HIT:    1510338 MISS:   34805609 MSHR_MERGE:          0
cpu0->cpu0_L2C RFO          ACCESS:       2025 HIT:       1978 MISS:         47 MSHR_MERGE:          0
cpu0->cpu0_L2C PREFETCH     ACCESS:          0 HIT:          0 MISS:          0 MSHR_MERGE:          0
cpu0->cpu0_L2C WRITE        ACCESS:   15353931 HIT:   15353425 MISS:        506 MSHR_MERGE:          0
cpu0->cpu0_L2C TRANSLATION  ACCESS:          0 HIT:          0 MISS:          0 MSHR_MERGE:          0
cpu0->cpu0_L2C PREFETCH REQUESTED:          0 ISSUED:          0 USEFUL:          0 USELESS:          0
cpu0->cpu0_L2C AVERAGE MISS LATENCY: 114.4 cycles
cpu0->cpu0_L1I TOTAL        ACCESS:  500904681 HIT:  500903749 MISS:        932 MSHR_MERGE:        393
cpu0->cpu0_L1I LOAD         ACCESS:  500904681 HIT:  500903749 MISS:        932 MSHR_MERGE:        393
cpu0->cpu0_L1I RFO          ACCESS:          0 HIT:          0 MISS:          0 MSHR_MERGE:          0
cpu0->cpu0_L1I PREFETCH     ACCESS:          0 HIT:          0 MISS:          0 MSHR_MERGE:          0
cpu0->cpu0_L1I WRITE        ACCESS:          0 HIT:          0 MISS:          0 MSHR_MERGE:          0
cpu0->cpu0_L1I TRANSLATION  ACCESS:          0 HIT:          0 MISS:          0 MSHR_MERGE:          0
cpu0->cpu0_L1I PREFETCH REQUESTED:          0 ISSUED:          0 USEFUL:          0 USELESS:          0
cpu0->cpu0_L1I AVERAGE MISS LATENCY: 136.4 cycles
cpu0->cpu0_L1D TOTAL        ACCESS:  960396037 HIT:  915397965 MISS:   44998072 MSHR_MERGE:    8680630
cpu0->cpu0_L1D LOAD         ACCESS:  842758595 HIT:  797764087 MISS:   44994508 MSHR_MERGE:    8679099
cpu0->cpu0_L1D RFO          ACCESS:          0 HIT:          0 MISS:          0 MSHR_MERGE:          0
cpu0->cpu0_L1D PREFETCH     ACCESS:          0 HIT:          0 MISS:          0 MSHR_MERGE:          0
cpu0->cpu0_L1D WRITE        ACCESS:  117637442 HIT:  117633878 MISS:       3564 MSHR_MERGE:       1531
cpu0->cpu0_L1D TRANSLATION  ACCESS:          0 HIT:          0 MISS:          0 MSHR_MERGE:          0
cpu0->cpu0_L1D PREFETCH REQUESTED:          0 ISSUED:          0 USEFUL:          0 USELESS:          0
cpu0->cpu0_L1D AVERAGE MISS LATENCY: 118.7 cycles
cpu0->cpu0_ITLB TOTAL        ACCESS:  433915504 HIT:  433915443 MISS:         61 MSHR_MERGE:         49
cpu0->cpu0_ITLB LOAD         ACCESS:  433915504 HIT:  433915443 MISS:         61 MSHR_MERGE:         49
cpu0->cpu0_ITLB RFO          ACCESS:          0 HIT:          0 MISS:          0 MSHR_MERGE:          0
cpu0->cpu0_ITLB PREFETCH     ACCESS:          0 HIT:          0 MISS:          0 MSHR_MERGE:          0
cpu0->cpu0_ITLB WRITE        ACCESS:          0 HIT:          0 MISS:          0 MSHR_MERGE:          0
cpu0->cpu0_ITLB TRANSLATION  ACCESS:          0 HIT:          0 MISS:          0 MSHR_MERGE:          0
cpu0->cpu0_ITLB PREFETCH REQUESTED:          0 ISSUED:          0 USEFUL:          0 USELESS:          0
cpu0->cpu0_ITLB AVERAGE MISS LATENCY: 768.2 cycles
cpu0->cpu0_DTLB TOTAL        ACCESS:  901401753 HIT:  892480204 MISS:    8921549 MSHR_MERGE:    1942529
cpu0->cpu0_DTLB LOAD         ACCESS:  901401753 HIT:  892480204 MISS:    8921549 MSHR_MERGE:    1942529
cpu0->cpu0_DTLB RFO          ACCESS:          0 HIT:          0 MISS:          0 MSHR_MERGE:          0
cpu0->cpu0_DTLB PREFETCH     ACCESS:          0 HIT:          0 MISS:          0 MSHR_MERGE:          0
cpu0->cpu0_DTLB WRITE        ACCESS:          0 HIT:          0 MISS:          0 MSHR_MERGE:          0
cpu0->cpu0_DTLB TRANSLATION  ACCESS:          0 HIT:          0 MISS:          0 MSHR_MERGE:          0
cpu0->cpu0_DTLB PREFETCH REQUESTED:          0 ISSUED:          0 USEFUL:          0 USELESS:          0
cpu0->cpu0_DTLB AVERAGE MISS LATENCY: 168.9 cycles
cpu0->LLC TOTAL        ACCESS:   50153682 HIT:   17642651 MISS:   32511031 MSHR_MERGE:          0
cpu0->LLC LOAD         ACCESS:   34805609 HIT:    2294955 MISS:   32510654 MSHR_MERGE:          0
cpu0->LLC RFO          ACCESS:         47 HIT:         23 MISS:         24 MSHR_MERGE:          0
cpu0->LLC PREFETCH     ACCESS:          0 HIT:          0 MISS:          0 MSHR_MERGE:          0
cpu0->LLC WRITE        ACCESS:   15348026 HIT:   15347673 MISS:        353 MSHR_MERGE:          0
cpu0->LLC TRANSLATION  ACCESS:          0 HIT:          0 MISS:          0 MSHR_MERGE:          0
cpu0->LLC PREFETCH REQUESTED:          0 ISSUED:          0 USEFUL:          0 USELESS:          0
cpu0->LLC AVERAGE MISS LATENCY: 105.4 cycles

DRAM Statistics

Channel 0 RQ ROW_BUFFER_HIT:     407593
  ROW_BUFFER_MISS:   19136673
  AVG DBUS CONGESTED CYCLE: 10.97
Channel 0 WQ ROW_BUFFER_HIT:    1366521
  ROW_BUFFER_MISS:    6303008
  FULL:          0
Channel 0 REFRESHES ISSUED:     223494

Channel 1 RQ ROW_BUFFER_HIT:     405258
  ROW_BUFFER_MISS:   19129171
  AVG DBUS CONGESTED CYCLE: 10.98
Channel 1 WQ ROW_BUFFER_HIT:    1367266
  ROW_BUFFER_MISS:    6303371
  FULL:          0
Channel 1 REFRESHES ISSUED:     223494
