
*** ChampSim Multicore Out-of-Order Simulator ***
Warmup Instructions: 0
Simulation Instructions: 9223372036854775807
Number of CPUs: 1
Page size: 2097152

Off-chip DRAM Size: 128 GiB Channels: 2 Width: 32-bit Data Rate: 4807 MT/s
[ERROR_PAGE_MANAGER] Error latency: 1990500 
[ERROR_PAGE_MANAGER] Random seed: 54321 (fixed for preload reproducibility)
[ERROR_PAGE_MANAGER] Cycle-based error modeling enabled
[ERROR_PAGE_MANAGER] Errors per interval: 1
[ERROR_PAGE_MANAGER] Error cycle interval: 80000000 cycles

=== ERROR PAGE STATISTICS ===
Mode: CYCLE
Error Cycle Interval: 80000000 CPU cycles
Total Error Accesses: 0
==============================
Warmup finished CPU 0 instructions: 0 cycles: 1 cumulative IPC: 0 (Simulation time: 00 hr 00 min 00 sec)
Warmup complete CPU 0 instructions: 0 cycles: 1 cumulative IPC: 0 (Simulation time: 00 hr 00 min 00 sec)
Heartbeat CPU 0 instructions: 10000002 cycles: 4932183 heartbeat IPC: 2.028 cumulative IPC: 2.028 (Simulation time: 00 hr 00 min 47 sec)
Heartbeat CPU 0 instructions: 20000002 cycles: 9813832 heartbeat IPC: 2.048 cumulative IPC: 2.038 (Simulation time: 00 hr 01 min 47 sec)
Heartbeat CPU 0 instructions: 30000006 cycles: 14668737 heartbeat IPC: 2.06 cumulative IPC: 2.045 (Simulation time: 00 hr 02 min 37 sec)
Heartbeat CPU 0 instructions: 40000007 cycles: 19531568 heartbeat IPC: 2.056 cumulative IPC: 2.048 (Simulation time: 00 hr 03 min 24 sec)
Heartbeat CPU 0 instructions: 50000007 cycles: 24405159 heartbeat IPC: 2.052 cumulative IPC: 2.049 (Simulation time: 00 hr 04 min 11 sec)
Heartbeat CPU 0 instructions: 60000008 cycles: 30769460 heartbeat IPC: 1.571 cumulative IPC: 1.95 (Simulation time: 00 hr 05 min 11 sec)
Heartbeat CPU 0 instructions: 70000012 cycles: 36969098 heartbeat IPC: 1.613 cumulative IPC: 1.893 (Simulation time: 00 hr 06 min 19 sec)
Heartbeat CPU 0 instructions: 80000013 cycles: 43166495 heartbeat IPC: 1.614 cumulative IPC: 1.853 (Simulation time: 00 hr 07 min 27 sec)
Heartbeat CPU 0 instructions: 90000016 cycles: 49398529 heartbeat IPC: 1.605 cumulative IPC: 1.822 (Simulation time: 00 hr 08 min 30 sec)
Heartbeat CPU 0 instructions: 100000018 cycles: 55618404 heartbeat IPC: 1.608 cumulative IPC: 1.798 (Simulation time: 00 hr 09 min 24 sec)
[ERROR_CYCLE] Error added at CPU cycle 57022446, next at 73226450, pending count: 1
[DRAM_CYCLE_ERROR] Cycle-based error applied! address=0x1a17579f00 additional_latency=1990500 cycles
Heartbeat CPU 0 instructions: 110000019 cycles: 61844078 heartbeat IPC: 1.606 cumulative IPC: 1.779 (Simulation time: 00 hr 10 min 32 sec)
Heartbeat CPU 0 instructions: 120000020 cycles: 68051694 heartbeat IPC: 1.611 cumulative IPC: 1.763 (Simulation time: 00 hr 11 min 33 sec)
[ERROR_CYCLE] Error added at CPU cycle 73226451, next at 205568512, pending count: 1
[DRAM_CYCLE_ERROR] Cycle-based error applied! address=0x8ba8edf00 additional_latency=1990500 cycles
Heartbeat CPU 0 instructions: 130000020 cycles: 74281649 heartbeat IPC: 1.605 cumulative IPC: 1.75 (Simulation time: 00 hr 12 min 39 sec)
Heartbeat CPU 0 instructions: 140000022 cycles: 80528553 heartbeat IPC: 1.601 cumulative IPC: 1.739 (Simulation time: 00 hr 13 min 48 sec)
Heartbeat CPU 0 instructions: 150000024 cycles: 86841011 heartbeat IPC: 1.584 cumulative IPC: 1.727 (Simulation time: 00 hr 14 min 39 sec)
Heartbeat CPU 0 instructions: 160000024 cycles: 93096347 heartbeat IPC: 1.599 cumulative IPC: 1.719 (Simulation time: 00 hr 15 min 41 sec)
Heartbeat CPU 0 instructions: 170000025 cycles: 99355806 heartbeat IPC: 1.598 cumulative IPC: 1.711 (Simulation time: 00 hr 16 min 36 sec)
Heartbeat CPU 0 instructions: 180000026 cycles: 105630402 heartbeat IPC: 1.594 cumulative IPC: 1.704 (Simulation time: 00 hr 17 min 45 sec)
Heartbeat CPU 0 instructions: 190000027 cycles: 111916342 heartbeat IPC: 1.591 cumulative IPC: 1.698 (Simulation time: 00 hr 18 min 43 sec)
Heartbeat CPU 0 instructions: 200000029 cycles: 118200104 heartbeat IPC: 1.591 cumulative IPC: 1.692 (Simulation time: 00 hr 19 min 42 sec)
Heartbeat CPU 0 instructions: 210000030 cycles: 124457791 heartbeat IPC: 1.598 cumulative IPC: 1.687 (Simulation time: 00 hr 20 min 51 sec)
Heartbeat CPU 0 instructions: 220000031 cycles: 130711124 heartbeat IPC: 1.599 cumulative IPC: 1.683 (Simulation time: 00 hr 21 min 45 sec)
Heartbeat CPU 0 instructions: 230000034 cycles: 136983945 heartbeat IPC: 1.594 cumulative IPC: 1.679 (Simulation time: 00 hr 22 min 32 sec)
Heartbeat CPU 0 instructions: 240000038 cycles: 143401205 heartbeat IPC: 1.558 cumulative IPC: 1.674 (Simulation time: 00 hr 23 min 25 sec)
Heartbeat CPU 0 instructions: 250000040 cycles: 149710433 heartbeat IPC: 1.585 cumulative IPC: 1.67 (Simulation time: 00 hr 24 min 24 sec)
Heartbeat CPU 0 instructions: 260000043 cycles: 156011962 heartbeat IPC: 1.587 cumulative IPC: 1.667 (Simulation time: 00 hr 25 min 25 sec)
Heartbeat CPU 0 instructions: 270000046 cycles: 162313860 heartbeat IPC: 1.587 cumulative IPC: 1.663 (Simulation time: 00 hr 26 min 33 sec)
Heartbeat CPU 0 instructions: 280000047 cycles: 168617049 heartbeat IPC: 1.586 cumulative IPC: 1.661 (Simulation time: 00 hr 27 min 42 sec)
Heartbeat CPU 0 instructions: 290000047 cycles: 174916825 heartbeat IPC: 1.587 cumulative IPC: 1.658 (Simulation time: 00 hr 28 min 52 sec)
Heartbeat CPU 0 instructions: 300000049 cycles: 181207296 heartbeat IPC: 1.59 cumulative IPC: 1.656 (Simulation time: 00 hr 30 min 01 sec)
Heartbeat CPU 0 instructions: 310000049 cycles: 187478890 heartbeat IPC: 1.594 cumulative IPC: 1.654 (Simulation time: 00 hr 31 min 11 sec)
Heartbeat CPU 0 instructions: 320000053 cycles: 193764689 heartbeat IPC: 1.591 cumulative IPC: 1.651 (Simulation time: 00 hr 32 min 16 sec)
Heartbeat CPU 0 instructions: 330000054 cycles: 200057886 heartbeat IPC: 1.589 cumulative IPC: 1.65 (Simulation time: 00 hr 33 min 25 sec)
[ERROR_CYCLE] Error added at CPU cycle 205568513, next at 427741518, pending count: 1
[DRAM_CYCLE_ERROR] Cycle-based error applied! address=0xd1fbac940 additional_latency=1990500 cycles
Heartbeat CPU 0 instructions: 340000054 cycles: 206464457 heartbeat IPC: 1.561 cumulative IPC: 1.647 (Simulation time: 00 hr 34 min 35 sec)
Heartbeat CPU 0 instructions: 350000054 cycles: 212811157 heartbeat IPC: 1.576 cumulative IPC: 1.645 (Simulation time: 00 hr 35 min 45 sec)
Heartbeat CPU 0 instructions: 360000056 cycles: 219172152 heartbeat IPC: 1.572 cumulative IPC: 1.643 (Simulation time: 00 hr 36 min 55 sec)
Heartbeat CPU 0 instructions: 370000056 cycles: 225531965 heartbeat IPC: 1.572 cumulative IPC: 1.641 (Simulation time: 00 hr 38 min 01 sec)
Heartbeat CPU 0 instructions: 380000056 cycles: 231903212 heartbeat IPC: 1.57 cumulative IPC: 1.639 (Simulation time: 00 hr 39 min 09 sec)
Heartbeat CPU 0 instructions: 390000058 cycles: 238207881 heartbeat IPC: 1.586 cumulative IPC: 1.637 (Simulation time: 00 hr 40 min 16 sec)
Heartbeat CPU 0 instructions: 400000062 cycles: 244478167 heartbeat IPC: 1.595 cumulative IPC: 1.636 (Simulation time: 00 hr 41 min 12 sec)
Heartbeat CPU 0 instructions: 410000062 cycles: 250725124 heartbeat IPC: 1.601 cumulative IPC: 1.635 (Simulation time: 00 hr 42 min 14 sec)
Heartbeat CPU 0 instructions: 420000065 cycles: 256978658 heartbeat IPC: 1.599 cumulative IPC: 1.634 (Simulation time: 00 hr 43 min 21 sec)
Heartbeat CPU 0 instructions: 430000069 cycles: 263348454 heartbeat IPC: 1.57 cumulative IPC: 1.633 (Simulation time: 00 hr 44 min 29 sec)
Heartbeat CPU 0 instructions: 440000069 cycles: 269664730 heartbeat IPC: 1.583 cumulative IPC: 1.632 (Simulation time: 00 hr 45 min 36 sec)
Heartbeat CPU 0 instructions: 450000070 cycles: 275981696 heartbeat IPC: 1.583 cumulative IPC: 1.631 (Simulation time: 00 hr 46 min 33 sec)
Heartbeat CPU 0 instructions: 460000072 cycles: 282270295 heartbeat IPC: 1.59 cumulative IPC: 1.63 (Simulation time: 00 hr 47 min 25 sec)
Heartbeat CPU 0 instructions: 470000073 cycles: 288538599 heartbeat IPC: 1.595 cumulative IPC: 1.629 (Simulation time: 00 hr 48 min 27 sec)
Heartbeat CPU 0 instructions: 480000074 cycles: 294802204 heartbeat IPC: 1.597 cumulative IPC: 1.628 (Simulation time: 00 hr 49 min 36 sec)
Heartbeat CPU 0 instructions: 490000074 cycles: 301041313 heartbeat IPC: 1.603 cumulative IPC: 1.628 (Simulation time: 00 hr 50 min 45 sec)
Heartbeat CPU 0 instructions: 500000077 cycles: 307267719 heartbeat IPC: 1.606 cumulative IPC: 1.627 (Simulation time: 00 hr 51 min 41 sec)
Heartbeat CPU 0 instructions: 510000078 cycles: 313462771 heartbeat IPC: 1.614 cumulative IPC: 1.627 (Simulation time: 00 hr 52 min 43 sec)
Heartbeat CPU 0 instructions: 520000078 cycles: 319736163 heartbeat IPC: 1.594 cumulative IPC: 1.626 (Simulation time: 00 hr 53 min 49 sec)
Heartbeat CPU 0 instructions: 530000079 cycles: 325981188 heartbeat IPC: 1.601 cumulative IPC: 1.626 (Simulation time: 00 hr 54 min 46 sec)
Heartbeat CPU 0 instructions: 540000081 cycles: 332209975 heartbeat IPC: 1.605 cumulative IPC: 1.625 (Simulation time: 00 hr 55 min 45 sec)
Heartbeat CPU 0 instructions: 550000081 cycles: 338456239 heartbeat IPC: 1.601 cumulative IPC: 1.625 (Simulation time: 00 hr 56 min 53 sec)
Heartbeat CPU 0 instructions: 560000081 cycles: 344715807 heartbeat IPC: 1.598 cumulative IPC: 1.625 (Simulation time: 00 hr 58 min 01 sec)
Heartbeat CPU 0 instructions: 570000085 cycles: 351001336 heartbeat IPC: 1.591 cumulative IPC: 1.624 (Simulation time: 00 hr 59 min 09 sec)
Heartbeat CPU 0 instructions: 580000086 cycles: 357365029 heartbeat IPC: 1.571 cumulative IPC: 1.623 (Simulation time: 01 hr 00 min 18 sec)
Heartbeat CPU 0 instructions: 590000089 cycles: 363678136 heartbeat IPC: 1.584 cumulative IPC: 1.622 (Simulation time: 01 hr 01 min 28 sec)
Heartbeat CPU 0 instructions: 600000092 cycles: 369996806 heartbeat IPC: 1.583 cumulative IPC: 1.622 (Simulation time: 01 hr 02 min 37 sec)
Heartbeat CPU 0 instructions: 610000096 cycles: 376333847 heartbeat IPC: 1.578 cumulative IPC: 1.621 (Simulation time: 01 hr 03 min 36 sec)
Heartbeat CPU 0 instructions: 620000098 cycles: 382762324 heartbeat IPC: 1.556 cumulative IPC: 1.62 (Simulation time: 01 hr 04 min 44 sec)
Heartbeat CPU 0 instructions: 630000101 cycles: 389131677 heartbeat IPC: 1.57 cumulative IPC: 1.619 (Simulation time: 01 hr 05 min 54 sec)
Heartbeat CPU 0 instructions: 640000105 cycles: 395479286 heartbeat IPC: 1.575 cumulative IPC: 1.618 (Simulation time: 01 hr 07 min 02 sec)
Heartbeat CPU 0 instructions: 650000105 cycles: 401795449 heartbeat IPC: 1.583 cumulative IPC: 1.618 (Simulation time: 01 hr 08 min 05 sec)
Heartbeat CPU 0 instructions: 660000105 cycles: 408097944 heartbeat IPC: 1.587 cumulative IPC: 1.617 (Simulation time: 01 hr 09 min 10 sec)
Heartbeat CPU 0 instructions: 670000107 cycles: 414441626 heartbeat IPC: 1.576 cumulative IPC: 1.617 (Simulation time: 01 hr 10 min 19 sec)
Heartbeat CPU 0 instructions: 680000110 cycles: 420795347 heartbeat IPC: 1.574 cumulative IPC: 1.616 (Simulation time: 01 hr 11 min 28 sec)
Heartbeat CPU 0 instructions: 690000111 cycles: 427064712 heartbeat IPC: 1.595 cumulative IPC: 1.616 (Simulation time: 01 hr 12 min 36 sec)
[ERROR_CYCLE] Error added at CPU cycle 427741518, next at 430145799, pending count: 1
[DRAM_CYCLE_ERROR] Cycle-based error applied! address=0x1e73ec05c0 additional_latency=1990500 cycles
[ERROR_CYCLE] Error added at CPU cycle 430145800, next at 553109136, pending count: 1
[DRAM_CYCLE_ERROR] Cycle-based error applied! address=0x1b2d26740 additional_latency=1990500 cycles
Heartbeat CPU 0 instructions: 700000113 cycles: 433307862 heartbeat IPC: 1.602 cumulative IPC: 1.615 (Simulation time: 01 hr 13 min 44 sec)
Heartbeat CPU 0 instructions: 710000114 cycles: 439613639 heartbeat IPC: 1.586 cumulative IPC: 1.615 (Simulation time: 01 hr 14 min 52 sec)
Heartbeat CPU 0 instructions: 720000116 cycles: 445885322 heartbeat IPC: 1.594 cumulative IPC: 1.615 (Simulation time: 01 hr 16 min 01 sec)
Heartbeat CPU 0 instructions: 730000120 cycles: 452147173 heartbeat IPC: 1.597 cumulative IPC: 1.615 (Simulation time: 01 hr 17 min 09 sec)
Heartbeat CPU 0 instructions: 740000124 cycles: 458397760 heartbeat IPC: 1.6 cumulative IPC: 1.614 (Simulation time: 01 hr 18 min 17 sec)
Heartbeat CPU 0 instructions: 750000124 cycles: 464641865 heartbeat IPC: 1.602 cumulative IPC: 1.614 (Simulation time: 01 hr 19 min 25 sec)
Heartbeat CPU 0 instructions: 760000127 cycles: 470881908 heartbeat IPC: 1.603 cumulative IPC: 1.614 (Simulation time: 01 hr 20 min 33 sec)
Heartbeat CPU 0 instructions: 770000129 cycles: 477148630 heartbeat IPC: 1.596 cumulative IPC: 1.614 (Simulation time: 01 hr 21 min 41 sec)
Heartbeat CPU 0 instructions: 780000129 cycles: 483412003 heartbeat IPC: 1.597 cumulative IPC: 1.614 (Simulation time: 01 hr 22 min 50 sec)
Heartbeat CPU 0 instructions: 790000131 cycles: 489698389 heartbeat IPC: 1.591 cumulative IPC: 1.613 (Simulation time: 01 hr 23 min 58 sec)
Heartbeat CPU 0 instructions: 800000131 cycles: 496057601 heartbeat IPC: 1.573 cumulative IPC: 1.613 (Simulation time: 01 hr 25 min 08 sec)
Heartbeat CPU 0 instructions: 810000133 cycles: 502370996 heartbeat IPC: 1.584 cumulative IPC: 1.612 (Simulation time: 01 hr 26 min 17 sec)
Heartbeat CPU 0 instructions: 820000136 cycles: 508747732 heartbeat IPC: 1.568 cumulative IPC: 1.612 (Simulation time: 01 hr 27 min 26 sec)
Heartbeat CPU 0 instructions: 830000140 cycles: 515107712 heartbeat IPC: 1.572 cumulative IPC: 1.611 (Simulation time: 01 hr 28 min 35 sec)
Heartbeat CPU 0 instructions: 840000142 cycles: 521422378 heartbeat IPC: 1.584 cumulative IPC: 1.611 (Simulation time: 01 hr 29 min 44 sec)
Heartbeat CPU 0 instructions: 850000144 cycles: 527750420 heartbeat IPC: 1.58 cumulative IPC: 1.611 (Simulation time: 01 hr 30 min 53 sec)
Heartbeat CPU 0 instructions: 860000148 cycles: 534096175 heartbeat IPC: 1.576 cumulative IPC: 1.61 (Simulation time: 01 hr 32 min 03 sec)
Heartbeat CPU 0 instructions: 870000149 cycles: 540438162 heartbeat IPC: 1.577 cumulative IPC: 1.61 (Simulation time: 01 hr 33 min 12 sec)
Heartbeat CPU 0 instructions: 880000150 cycles: 546745088 heartbeat IPC: 1.586 cumulative IPC: 1.61 (Simulation time: 01 hr 34 min 18 sec)
Heartbeat CPU 0 instructions: 890000153 cycles: 553015791 heartbeat IPC: 1.595 cumulative IPC: 1.609 (Simulation time: 01 hr 35 min 27 sec)
[ERROR_CYCLE] Error added at CPU cycle 553109137, next at 567427547, pending count: 1
[DRAM_CYCLE_ERROR] Cycle-based error applied! address=0x1b2d9f140 additional_latency=1990500 cycles
Heartbeat CPU 0 instructions: 900000153 cycles: 559338884 heartbeat IPC: 1.582 cumulative IPC: 1.609 (Simulation time: 01 hr 36 min 35 sec)
Heartbeat CPU 0 instructions: 910000155 cycles: 565598355 heartbeat IPC: 1.598 cumulative IPC: 1.609 (Simulation time: 01 hr 37 min 44 sec)
[ERROR_CYCLE] Error added at CPU cycle 567427547, next at 612939373, pending count: 1
[DRAM_CYCLE_ERROR] Cycle-based error applied! address=0x12bf50d3c0 additional_latency=1990500 cycles
Heartbeat CPU 0 instructions: 920000159 cycles: 571877766 heartbeat IPC: 1.593 cumulative IPC: 1.609 (Simulation time: 01 hr 38 min 52 sec)
Heartbeat CPU 0 instructions: 930000160 cycles: 578125795 heartbeat IPC: 1.601 cumulative IPC: 1.609 (Simulation time: 01 hr 40 min 01 sec)
Heartbeat CPU 0 instructions: 940000161 cycles: 584379102 heartbeat IPC: 1.599 cumulative IPC: 1.609 (Simulation time: 01 hr 41 min 10 sec)
Heartbeat CPU 0 instructions: 950000161 cycles: 590640198 heartbeat IPC: 1.597 cumulative IPC: 1.608 (Simulation time: 01 hr 42 min 11 sec)
Heartbeat CPU 0 instructions: 960000165 cycles: 596893250 heartbeat IPC: 1.599 cumulative IPC: 1.608 (Simulation time: 01 hr 43 min 14 sec)
Heartbeat CPU 0 instructions: 970000167 cycles: 603182520 heartbeat IPC: 1.59 cumulative IPC: 1.608 (Simulation time: 01 hr 44 min 12 sec)
Heartbeat CPU 0 instructions: 980000168 cycles: 609477609 heartbeat IPC: 1.589 cumulative IPC: 1.608 (Simulation time: 01 hr 45 min 16 sec)
[ERROR_CYCLE] Error added at CPU cycle 612939373, next at 681254883, pending count: 1
[DRAM_CYCLE_ERROR] Cycle-based error applied! address=0x17e42f10c0 additional_latency=1990500 cycles
Heartbeat CPU 0 instructions: 990000168 cycles: 615815990 heartbeat IPC: 1.578 cumulative IPC: 1.608 (Simulation time: 01 hr 46 min 27 sec)
Heartbeat CPU 0 instructions: 1000000168 cycles: 622068425 heartbeat IPC: 1.599 cumulative IPC: 1.608 (Simulation time: 01 hr 47 min 36 sec)
Heartbeat CPU 0 instructions: 1010000168 cycles: 628367981 heartbeat IPC: 1.587 cumulative IPC: 1.607 (Simulation time: 01 hr 48 min 46 sec)
Heartbeat CPU 0 instructions: 1020000168 cycles: 634660234 heartbeat IPC: 1.589 cumulative IPC: 1.607 (Simulation time: 01 hr 49 min 53 sec)
Heartbeat CPU 0 instructions: 1030000170 cycles: 640925469 heartbeat IPC: 1.596 cumulative IPC: 1.607 (Simulation time: 01 hr 50 min 49 sec)
Heartbeat CPU 0 instructions: 1040000170 cycles: 647172498 heartbeat IPC: 1.601 cumulative IPC: 1.607 (Simulation time: 01 hr 51 min 44 sec)
Heartbeat CPU 0 instructions: 1050000170 cycles: 653422704 heartbeat IPC: 1.6 cumulative IPC: 1.607 (Simulation time: 01 hr 52 min 39 sec)
Heartbeat CPU 0 instructions: 1060000172 cycles: 659711506 heartbeat IPC: 1.59 cumulative IPC: 1.607 (Simulation time: 01 hr 53 min 29 sec)
Heartbeat CPU 0 instructions: 1070000172 cycles: 666014815 heartbeat IPC: 1.586 cumulative IPC: 1.607 (Simulation time: 01 hr 54 min 33 sec)
Heartbeat CPU 0 instructions: 1080000172 cycles: 672343539 heartbeat IPC: 1.58 cumulative IPC: 1.606 (Simulation time: 01 hr 55 min 43 sec)
Heartbeat CPU 0 instructions: 1090000173 cycles: 678625974 heartbeat IPC: 1.592 cumulative IPC: 1.606 (Simulation time: 01 hr 56 min 42 sec)
[ERROR_CYCLE] Error added at CPU cycle 681254883, next at 700827009, pending count: 1
[DRAM_CYCLE_ERROR] Cycle-based error applied! address=0x12bf57ff80 additional_latency=1990500 cycles
Heartbeat CPU 0 instructions: 1100000174 cycles: 684924377 heartbeat IPC: 1.588 cumulative IPC: 1.606 (Simulation time: 01 hr 57 min 51 sec)
Heartbeat CPU 0 instructions: 1110000176 cycles: 691242327 heartbeat IPC: 1.583 cumulative IPC: 1.606 (Simulation time: 01 hr 59 min 01 sec)
Heartbeat CPU 0 instructions: 1120000177 cycles: 697548831 heartbeat IPC: 1.586 cumulative IPC: 1.606 (Simulation time: 02 hr 00 min 10 sec)
[ERROR_CYCLE] Error added at CPU cycle 700827009, next at 842903644, pending count: 1
[DRAM_CYCLE_ERROR] Cycle-based error applied! address=0xe6c180840 additional_latency=1990500 cycles
Heartbeat CPU 0 instructions: 1130000179 cycles: 703838842 heartbeat IPC: 1.59 cumulative IPC: 1.605 (Simulation time: 02 hr 01 min 20 sec)
Heartbeat CPU 0 instructions: 1140000179 cycles: 710097281 heartbeat IPC: 1.598 cumulative IPC: 1.605 (Simulation time: 02 hr 02 min 29 sec)
Heartbeat CPU 0 instructions: 1150000180 cycles: 716367793 heartbeat IPC: 1.595 cumulative IPC: 1.605 (Simulation time: 02 hr 03 min 39 sec)
Heartbeat CPU 0 instructions: 1160000181 cycles: 722660231 heartbeat IPC: 1.589 cumulative IPC: 1.605 (Simulation time: 02 hr 04 min 48 sec)
Heartbeat CPU 0 instructions: 1170000183 cycles: 728981804 heartbeat IPC: 1.582 cumulative IPC: 1.605 (Simulation time: 02 hr 05 min 43 sec)
Heartbeat CPU 0 instructions: 1180000183 cycles: 735321622 heartbeat IPC: 1.577 cumulative IPC: 1.605 (Simulation time: 02 hr 06 min 43 sec)
Heartbeat CPU 0 instructions: 1190000183 cycles: 741599946 heartbeat IPC: 1.593 cumulative IPC: 1.605 (Simulation time: 02 hr 07 min 51 sec)
Heartbeat CPU 0 instructions: 1200000183 cycles: 747875250 heartbeat IPC: 1.594 cumulative IPC: 1.605 (Simulation time: 02 hr 08 min 58 sec)
Heartbeat CPU 0 instructions: 1210000185 cycles: 754239789 heartbeat IPC: 1.571 cumulative IPC: 1.604 (Simulation time: 02 hr 10 min 01 sec)
Heartbeat CPU 0 instructions: 1220000187 cycles: 760571026 heartbeat IPC: 1.579 cumulative IPC: 1.604 (Simulation time: 02 hr 11 min 07 sec)
Heartbeat CPU 0 instructions: 1230000188 cycles: 766862969 heartbeat IPC: 1.589 cumulative IPC: 1.604 (Simulation time: 02 hr 12 min 14 sec)
Heartbeat CPU 0 instructions: 1240000190 cycles: 773127864 heartbeat IPC: 1.596 cumulative IPC: 1.604 (Simulation time: 02 hr 13 min 02 sec)
Heartbeat CPU 0 instructions: 1250000193 cycles: 779405982 heartbeat IPC: 1.593 cumulative IPC: 1.604 (Simulation time: 02 hr 13 min 48 sec)
Heartbeat CPU 0 instructions: 1260000194 cycles: 785748133 heartbeat IPC: 1.577 cumulative IPC: 1.604 (Simulation time: 02 hr 14 min 51 sec)
Heartbeat CPU 0 instructions: 1270000195 cycles: 792157608 heartbeat IPC: 1.56 cumulative IPC: 1.603 (Simulation time: 02 hr 15 min 40 sec)
Heartbeat CPU 0 instructions: 1280000195 cycles: 798492311 heartbeat IPC: 1.579 cumulative IPC: 1.603 (Simulation time: 02 hr 16 min 34 sec)
Heartbeat CPU 0 instructions: 1290000197 cycles: 804806143 heartbeat IPC: 1.584 cumulative IPC: 1.603 (Simulation time: 02 hr 17 min 19 sec)
Heartbeat CPU 0 instructions: 1300000200 cycles: 811141298 heartbeat IPC: 1.578 cumulative IPC: 1.603 (Simulation time: 02 hr 18 min 20 sec)
Heartbeat CPU 0 instructions: 1310000203 cycles: 817475769 heartbeat IPC: 1.579 cumulative IPC: 1.602 (Simulation time: 02 hr 19 min 28 sec)
Heartbeat CPU 0 instructions: 1320000204 cycles: 823775771 heartbeat IPC: 1.587 cumulative IPC: 1.602 (Simulation time: 02 hr 20 min 35 sec)
Heartbeat CPU 0 instructions: 1330000204 cycles: 830054582 heartbeat IPC: 1.593 cumulative IPC: 1.602 (Simulation time: 02 hr 21 min 42 sec)
Heartbeat CPU 0 instructions: 1340000207 cycles: 836310059 heartbeat IPC: 1.599 cumulative IPC: 1.602 (Simulation time: 02 hr 22 min 49 sec)
Heartbeat CPU 0 instructions: 1350000211 cycles: 842580374 heartbeat IPC: 1.595 cumulative IPC: 1.602 (Simulation time: 02 hr 23 min 57 sec)
[ERROR_CYCLE] Error added at CPU cycle 842903644, next at 871385107, pending count: 1
[DRAM_CYCLE_ERROR] Cycle-based error applied! address=0x1ee4e1d180 additional_latency=1990500 cycles
Heartbeat CPU 0 instructions: 1360000211 cycles: 848960289 heartbeat IPC: 1.567 cumulative IPC: 1.602 (Simulation time: 02 hr 25 min 05 sec)
Heartbeat CPU 0 instructions: 1370000214 cycles: 855259290 heartbeat IPC: 1.588 cumulative IPC: 1.602 (Simulation time: 02 hr 26 min 12 sec)
Heartbeat CPU 0 instructions: 1380000216 cycles: 861563320 heartbeat IPC: 1.586 cumulative IPC: 1.602 (Simulation time: 02 hr 27 min 20 sec)
Heartbeat CPU 0 instructions: 1390000217 cycles: 867880149 heartbeat IPC: 1.583 cumulative IPC: 1.602 (Simulation time: 02 hr 28 min 27 sec)
[ERROR_CYCLE] Error added at CPU cycle 871385107, next at 907191996, pending count: 1
[DRAM_CYCLE_ERROR] Cycle-based error applied! address=0x19a7ff2a80 additional_latency=1990500 cycles
Heartbeat CPU 0 instructions: 1400000219 cycles: 874236234 heartbeat IPC: 1.573 cumulative IPC: 1.601 (Simulation time: 02 hr 29 min 35 sec)
Heartbeat CPU 0 instructions: 1410000223 cycles: 880594511 heartbeat IPC: 1.573 cumulative IPC: 1.601 (Simulation time: 02 hr 30 min 45 sec)
Heartbeat CPU 0 instructions: 1420000223 cycles: 886929323 heartbeat IPC: 1.579 cumulative IPC: 1.601 (Simulation time: 02 hr 31 min 37 sec)
Heartbeat CPU 0 instructions: 1430000223 cycles: 893244740 heartbeat IPC: 1.583 cumulative IPC: 1.601 (Simulation time: 02 hr 32 min 23 sec)
Heartbeat CPU 0 instructions: 1440000227 cycles: 899570160 heartbeat IPC: 1.581 cumulative IPC: 1.601 (Simulation time: 02 hr 33 min 12 sec)
Heartbeat CPU 0 instructions: 1450000231 cycles: 905926033 heartbeat IPC: 1.573 cumulative IPC: 1.601 (Simulation time: 02 hr 33 min 57 sec)
[ERROR_CYCLE] Error added at CPU cycle 907191996, next at 1070014685, pending count: 1
[DRAM_CYCLE_ERROR] Cycle-based error applied! address=0x6a7adeb80 additional_latency=1990500 cycles
Heartbeat CPU 0 instructions: 1460000232 cycles: 912352282 heartbeat IPC: 1.556 cumulative IPC: 1.6 (Simulation time: 02 hr 34 min 44 sec)
Heartbeat CPU 0 instructions: 1470000232 cycles: 918660845 heartbeat IPC: 1.585 cumulative IPC: 1.6 (Simulation time: 02 hr 35 min 29 sec)
Heartbeat CPU 0 instructions: 1480000233 cycles: 924938518 heartbeat IPC: 1.593 cumulative IPC: 1.6 (Simulation time: 02 hr 36 min 21 sec)
Heartbeat CPU 0 instructions: 1490000235 cycles: 931202815 heartbeat IPC: 1.596 cumulative IPC: 1.6 (Simulation time: 02 hr 37 min 27 sec)
Heartbeat CPU 0 instructions: 1500000235 cycles: 937509681 heartbeat IPC: 1.586 cumulative IPC: 1.6 (Simulation time: 02 hr 38 min 20 sec)
Heartbeat CPU 0 instructions: 1510000236 cycles: 943793917 heartbeat IPC: 1.591 cumulative IPC: 1.6 (Simulation time: 02 hr 39 min 04 sec)
Heartbeat CPU 0 instructions: 1520000238 cycles: 950041684 heartbeat IPC: 1.601 cumulative IPC: 1.6 (Simulation time: 02 hr 39 min 49 sec)
Heartbeat CPU 0 instructions: 1530000238 cycles: 956273589 heartbeat IPC: 1.605 cumulative IPC: 1.6 (Simulation time: 02 hr 40 min 33 sec)
Heartbeat CPU 0 instructions: 1540000240 cycles: 962522014 heartbeat IPC: 1.6 cumulative IPC: 1.6 (Simulation time: 02 hr 41 min 17 sec)
Heartbeat CPU 0 instructions: 1550000242 cycles: 968863232 heartbeat IPC: 1.577 cumulative IPC: 1.6 (Simulation time: 02 hr 42 min 03 sec)
Heartbeat CPU 0 instructions: 1560000243 cycles: 975135942 heartbeat IPC: 1.594 cumulative IPC: 1.6 (Simulation time: 02 hr 42 min 47 sec)
Heartbeat CPU 0 instructions: 1570000243 cycles: 981402967 heartbeat IPC: 1.596 cumulative IPC: 1.6 (Simulation time: 02 hr 43 min 32 sec)
Heartbeat CPU 0 instructions: 1580000244 cycles: 987662594 heartbeat IPC: 1.598 cumulative IPC: 1.6 (Simulation time: 02 hr 44 min 22 sec)
Heartbeat CPU 0 instructions: 1590000248 cycles: 993914621 heartbeat IPC: 1.599 cumulative IPC: 1.6 (Simulation time: 02 hr 45 min 29 sec)
Heartbeat CPU 0 instructions: 1600000249 cycles: 1000220082 heartbeat IPC: 1.586 cumulative IPC: 1.6 (Simulation time: 02 hr 46 min 36 sec)
Heartbeat CPU 0 instructions: 1610000252 cycles: 1006530173 heartbeat IPC: 1.585 cumulative IPC: 1.6 (Simulation time: 02 hr 47 min 44 sec)
Heartbeat CPU 0 instructions: 1620000256 cycles: 1012840447 heartbeat IPC: 1.585 cumulative IPC: 1.599 (Simulation time: 02 hr 48 min 51 sec)
Heartbeat CPU 0 instructions: 1630000256 cycles: 1019151422 heartbeat IPC: 1.585 cumulative IPC: 1.599 (Simulation time: 02 hr 49 min 59 sec)
Heartbeat CPU 0 instructions: 1640000256 cycles: 1025526638 heartbeat IPC: 1.569 cumulative IPC: 1.599 (Simulation time: 02 hr 51 min 06 sec)
Heartbeat CPU 0 instructions: 1650000256 cycles: 1031863176 heartbeat IPC: 1.578 cumulative IPC: 1.599 (Simulation time: 02 hr 52 min 14 sec)
Heartbeat CPU 0 instructions: 1660000257 cycles: 1038181314 heartbeat IPC: 1.583 cumulative IPC: 1.599 (Simulation time: 02 hr 53 min 21 sec)
Heartbeat CPU 0 instructions: 1670000259 cycles: 1044504296 heartbeat IPC: 1.582 cumulative IPC: 1.599 (Simulation time: 02 hr 54 min 29 sec)
Heartbeat CPU 0 instructions: 1680000260 cycles: 1050816909 heartbeat IPC: 1.584 cumulative IPC: 1.599 (Simulation time: 02 hr 55 min 38 sec)
Heartbeat CPU 0 instructions: 1690000263 cycles: 1057161634 heartbeat IPC: 1.576 cumulative IPC: 1.599 (Simulation time: 02 hr 56 min 47 sec)
Heartbeat CPU 0 instructions: 1700000265 cycles: 1063515649 heartbeat IPC: 1.574 cumulative IPC: 1.598 (Simulation time: 02 hr 57 min 57 sec)
Heartbeat CPU 0 instructions: 1710000268 cycles: 1069827693 heartbeat IPC: 1.584 cumulative IPC: 1.598 (Simulation time: 02 hr 59 min 06 sec)
[ERROR_CYCLE] Error added at CPU cycle 1070014686, next at 1070994884, pending count: 1
[DRAM_CYCLE_ERROR] Cycle-based error applied! address=0xf6239b0c0 additional_latency=1990500 cycles
[ERROR_CYCLE] Error added at CPU cycle 1070994885, next at 1160990919, pending count: 1
[DRAM_CYCLE_ERROR] Cycle-based error applied! address=0x1c4528b2c0 additional_latency=1990500 cycles
Heartbeat CPU 0 instructions: 1720000269 cycles: 1076120034 heartbeat IPC: 1.589 cumulative IPC: 1.598 (Simulation time: 03 hr 00 min 13 sec)
Heartbeat CPU 0 instructions: 1730000273 cycles: 1082394797 heartbeat IPC: 1.594 cumulative IPC: 1.598 (Simulation time: 03 hr 01 min 09 sec)
Heartbeat CPU 0 instructions: 1740000276 cycles: 1088734792 heartbeat IPC: 1.577 cumulative IPC: 1.598 (Simulation time: 03 hr 01 min 54 sec)
Heartbeat CPU 0 instructions: 1750000276 cycles: 1095000828 heartbeat IPC: 1.596 cumulative IPC: 1.598 (Simulation time: 03 hr 02 min 45 sec)
Heartbeat CPU 0 instructions: 1760000279 cycles: 1101252920 heartbeat IPC: 1.599 cumulative IPC: 1.598 (Simulation time: 03 hr 03 min 29 sec)
Heartbeat CPU 0 instructions: 1770000280 cycles: 1107513396 heartbeat IPC: 1.597 cumulative IPC: 1.598 (Simulation time: 03 hr 04 min 16 sec)
Heartbeat CPU 0 instructions: 1780000280 cycles: 1113772264 heartbeat IPC: 1.598 cumulative IPC: 1.598 (Simulation time: 03 hr 05 min 00 sec)
Heartbeat CPU 0 instructions: 1790000281 cycles: 1120035905 heartbeat IPC: 1.597 cumulative IPC: 1.598 (Simulation time: 03 hr 05 min 44 sec)
Heartbeat CPU 0 instructions: 1800000282 cycles: 1126376916 heartbeat IPC: 1.577 cumulative IPC: 1.598 (Simulation time: 03 hr 06 min 28 sec)
Heartbeat CPU 0 instructions: 1810000282 cycles: 1132709199 heartbeat IPC: 1.579 cumulative IPC: 1.598 (Simulation time: 03 hr 07 min 19 sec)
Heartbeat CPU 0 instructions: 1820000286 cycles: 1138989736 heartbeat IPC: 1.592 cumulative IPC: 1.598 (Simulation time: 03 hr 08 min 06 sec)
Heartbeat CPU 0 instructions: 1830000286 cycles: 1145322680 heartbeat IPC: 1.579 cumulative IPC: 1.598 (Simulation time: 03 hr 08 min 59 sec)
Heartbeat CPU 0 instructions: 1840000286 cycles: 1151622671 heartbeat IPC: 1.587 cumulative IPC: 1.598 (Simulation time: 03 hr 09 min 52 sec)
Heartbeat CPU 0 instructions: 1850000286 cycles: 1157896412 heartbeat IPC: 1.594 cumulative IPC: 1.598 (Simulation time: 03 hr 10 min 51 sec)
[ERROR_CYCLE] Error added at CPU cycle 1160990919, next at 1213496919, pending count: 1
[DRAM_CYCLE_ERROR] Cycle-based error applied! address=0x1ee4f56740 additional_latency=1990500 cycles
Heartbeat CPU 0 instructions: 1860000288 cycles: 1164173424 heartbeat IPC: 1.593 cumulative IPC: 1.598 (Simulation time: 03 hr 11 min 44 sec)
Heartbeat CPU 0 instructions: 1870000291 cycles: 1170451445 heartbeat IPC: 1.593 cumulative IPC: 1.598 (Simulation time: 03 hr 12 min 28 sec)
Heartbeat CPU 0 instructions: 1880000294 cycles: 1176723723 heartbeat IPC: 1.594 cumulative IPC: 1.598 (Simulation time: 03 hr 13 min 14 sec)
Heartbeat CPU 0 instructions: 1890000294 cycles: 1183075973 heartbeat IPC: 1.574 cumulative IPC: 1.598 (Simulation time: 03 hr 14 min 01 sec)
Heartbeat CPU 0 instructions: 1900000296 cycles: 1189418156 heartbeat IPC: 1.577 cumulative IPC: 1.597 (Simulation time: 03 hr 14 min 51 sec)
Heartbeat CPU 0 instructions: 1910000300 cycles: 1195718637 heartbeat IPC: 1.587 cumulative IPC: 1.597 (Simulation time: 03 hr 15 min 39 sec)
Heartbeat CPU 0 instructions: 1920000300 cycles: 1202054087 heartbeat IPC: 1.578 cumulative IPC: 1.597 (Simulation time: 03 hr 16 min 26 sec)
Heartbeat CPU 0 instructions: 1930000302 cycles: 1208305233 heartbeat IPC: 1.6 cumulative IPC: 1.597 (Simulation time: 03 hr 17 min 15 sec)
[ERROR_CYCLE] Error added at CPU cycle 1213496920, next at 1516211877, pending count: 1
[DRAM_CYCLE_ERROR] Cycle-based error applied! address=0xc6636e400 additional_latency=1990500 cycles
Heartbeat CPU 0 instructions: 1940000302 cycles: 1214587949 heartbeat IPC: 1.592 cumulative IPC: 1.597 (Simulation time: 03 hr 17 min 59 sec)
Heartbeat CPU 0 instructions: 1950000303 cycles: 1220841370 heartbeat IPC: 1.599 cumulative IPC: 1.597 (Simulation time: 03 hr 18 min 43 sec)
Heartbeat CPU 0 instructions: 1960000304 cycles: 1227105010 heartbeat IPC: 1.597 cumulative IPC: 1.597 (Simulation time: 03 hr 19 min 27 sec)
Heartbeat CPU 0 instructions: 1970000306 cycles: 1233357370 heartbeat IPC: 1.599 cumulative IPC: 1.597 (Simulation time: 03 hr 20 min 13 sec)
Heartbeat CPU 0 instructions: 1980000310 cycles: 1239617323 heartbeat IPC: 1.597 cumulative IPC: 1.597 (Simulation time: 03 hr 21 min 13 sec)
Heartbeat CPU 0 instructions: 1990000310 cycles: 1245920332 heartbeat IPC: 1.587 cumulative IPC: 1.597 (Simulation time: 03 hr 22 min 21 sec)

=== ERROR PAGE STATISTICS ===
Mode: CYCLE
Error Cycle Interval: 80000000 CPU cycles
Total Error Accesses: 17
==============================
Simulation finished CPU 0 instructions: 1999999510 cycles: 1252251794 cumulative IPC: 1.597 (Simulation time: 03 hr 23 min 30 sec)
Simulation complete CPU 0 instructions: 1999999510 cycles: 1252251794 cumulative IPC: 1.597 (Simulation time: 03 hr 23 min 30 sec)

ChampSim completed all CPUs

=== Simulation ===
CPU 0 runs test_traces/607.cactuBSSN_s-2421B.champsimtrace.xz

Region of Interest Statistics

CPU 0 cumulative IPC: 1.597 instructions: 1999999510 cycles: 1252251794
CPU 0 Branch Prediction Accuracy: 98.41% MPKI: 0.0223 Average ROB Occupancy at Mispredict: 322.1
Branch type MPKI
BRANCH_DIRECT_JUMP: 3.4e-05
BRANCH_INDIRECT: 4.45e-05
BRANCH_CONDITIONAL: 0.0122
BRANCH_DIRECT_CALL: 0.000332
BRANCH_INDIRECT_CALL: 1.5e-06
BRANCH_RETURN: 0.009687

cpu0->cpu0_STLB TOTAL        ACCESS:   18065877 HIT:   18065634 MISS:        243 MSHR_MERGE:          0
cpu0->cpu0_STLB LOAD         ACCESS:   18065877 HIT:   18065634 MISS:        243 MSHR_MERGE:          0
cpu0->cpu0_STLB RFO          ACCESS:          0 HIT:          0 MISS:          0 MSHR_MERGE:          0
cpu0->cpu0_STLB PREFETCH     ACCESS:          0 HIT:          0 MISS:          0 MSHR_MERGE:          0
cpu0->cpu0_STLB WRITE        ACCESS:          0 HIT:          0 MISS:          0 MSHR_MERGE:          0
cpu0->cpu0_STLB TRANSLATION  ACCESS:          0 HIT:          0 MISS:          0 MSHR_MERGE:          0
cpu0->cpu0_STLB PREFETCH REQUESTED:          0 ISSUED:          0 USEFUL:          0 USELESS:          0
cpu0->cpu0_STLB AVERAGE MISS LATENCY: 9082 cycles
cpu0->cpu0_L2C TOTAL        ACCESS:  251088196 HIT:  230705470 MISS:   20382726 MSHR_MERGE:          0
cpu0->cpu0_L2C LOAD         ACCESS:  217006764 HIT:  196654664 MISS:   20352100 MSHR_MERGE:          0
cpu0->cpu0_L2C RFO          ACCESS:   16173532 HIT:   16142924 MISS:      30608 MSHR_MERGE:          0
cpu0->cpu0_L2C PREFETCH     ACCESS:          0 HIT:          0 MISS:          0 MSHR_MERGE:          0
cpu0->cpu0_L2C WRITE        ACCESS:   17907900 HIT:   17907882 MISS:         18 MSHR_MERGE:          0
cpu0->cpu0_L2C TRANSLATION  ACCESS:          0 HIT:          0 MISS:          0 MSHR_MERGE:          0
cpu0->cpu0_L2C PREFETCH REQUESTED:          0 ISSUED:          0 USEFUL:          0 USELESS:          0
cpu0->cpu0_L2C AVERAGE MISS LATENCY: 98.58 cycles
cpu0->cpu0_L1I TOTAL        ACCESS:  392730504 HIT:  390072834 MISS:    2657670 MSHR_MERGE:    1307527
cpu0->cpu0_L1I LOAD         ACCESS:  392730504 HIT:  390072834 MISS:    2657670 MSHR_MERGE:    1307527
cpu0->cpu0_L1I RFO          ACCESS:          0 HIT:          0 MISS:          0 MSHR_MERGE:          0
cpu0->cpu0_L1I PREFETCH     ACCESS:          0 HIT:          0 MISS:          0 MSHR_MERGE:          0
cpu0->cpu0_L1I WRITE        ACCESS:          0 HIT:          0 MISS:          0 MSHR_MERGE:          0
cpu0->cpu0_L1I TRANSLATION  ACCESS:          0 HIT:          0 MISS:          0 MSHR_MERGE:          0
cpu0->cpu0_L1I PREFETCH REQUESTED:          0 ISSUED:          0 USEFUL:          0 USELESS:          0
cpu0->cpu0_L1I AVERAGE MISS LATENCY: 7.272 cycles
cpu0->cpu0_L1D TOTAL        ACCESS:  651076587 HIT:  376371068 MISS:  274705519 MSHR_MERGE:   42205626
cpu0->cpu0_L1D LOAD         ACCESS:  424326545 HIT:  167546394 MISS:  256780151 MSHR_MERGE:   40460799
cpu0->cpu0_L1D RFO          ACCESS:          0 HIT:          0 MISS:          0 MSHR_MERGE:          0
cpu0->cpu0_L1D PREFETCH     ACCESS:          0 HIT:          0 MISS:          0 MSHR_MERGE:          0
cpu0->cpu0_L1D WRITE        ACCESS:  226750042 HIT:  208824674 MISS:   17925368 MSHR_MERGE:    1744827
cpu0->cpu0_L1D TRANSLATION  ACCESS:          0 HIT:          0 MISS:          0 MSHR_MERGE:          0
cpu0->cpu0_L1D PREFETCH REQUESTED:          0 ISSUED:          0 USEFUL:          0 USELESS:          0
cpu0->cpu0_L1D AVERAGE MISS LATENCY: 17.81 cycles
cpu0->cpu0_ITLB TOTAL        ACCESS:  319376599 HIT:  319376586 MISS:         13 MSHR_MERGE:         10
cpu0->cpu0_ITLB LOAD         ACCESS:  319376599 HIT:  319376586 MISS:         13 MSHR_MERGE:         10
cpu0->cpu0_ITLB RFO          ACCESS:          0 HIT:          0 MISS:          0 MSHR_MERGE:          0
cpu0->cpu0_ITLB PREFETCH     ACCESS:          0 HIT:          0 MISS:          0 MSHR_MERGE:          0
cpu0->cpu0_ITLB WRITE        ACCESS:          0 HIT:          0 MISS:          0 MSHR_MERGE:          0
cpu0->cpu0_ITLB TRANSLATION  ACCESS:          0 HIT:          0 MISS:          0 MSHR_MERGE:          0
cpu0->cpu0_ITLB PREFETCH REQUESTED:          0 ISSUED:          0 USEFUL:          0 USELESS:          0
cpu0->cpu0_ITLB AVERAGE MISS LATENCY: 8735 cycles
cpu0->cpu0_DTLB TOTAL        ACCESS:  491461844 HIT:  454373513 MISS:   37088331 MSHR_MERGE:   19022457
cpu0->cpu0_DTLB LOAD         ACCESS:  491461844 HIT:  454373513 MISS:   37088331 MSHR_MERGE:   19022457
cpu0->cpu0_DTLB RFO          ACCESS:          0 HIT:          0 MISS:          0 MSHR_MERGE:          0
cpu0->cpu0_DTLB PREFETCH     ACCESS:          0 HIT:          0 MISS:          0 MSHR_MERGE:          0
cpu0->cpu0_DTLB WRITE        ACCESS:          0 HIT:          0 MISS:          0 MSHR_MERGE:          0
cpu0->cpu0_DTLB TRANSLATION  ACCESS:          0 HIT:          0 MISS:          0 MSHR_MERGE:          0
cpu0->cpu0_DTLB PREFETCH REQUESTED:          0 ISSUED:          0 USEFUL:          0 USELESS:          0
cpu0->cpu0_DTLB AVERAGE MISS LATENCY: 5.142 cycles
cpu0->LLC TOTAL        ACCESS:   22275847 HIT:    7173040 MISS:   15102807 MSHR_MERGE:          0
cpu0->LLC LOAD         ACCESS:   20352100 HIT:    5279949 MISS:   15072151 MSHR_MERGE:          0
cpu0->LLC RFO          ACCESS:      30608 HIT:          0 MISS:      30608 MSHR_MERGE:          0
cpu0->LLC PREFETCH     ACCESS:          0 HIT:          0 MISS:          0 MSHR_MERGE:          0
cpu0->LLC WRITE        ACCESS:    1893139 HIT:    1893091 MISS:         48 MSHR_MERGE:          0
cpu0->LLC TRANSLATION  ACCESS:          0 HIT:          0 MISS:          0 MSHR_MERGE:          0
cpu0->LLC PREFETCH REQUESTED:          0 ISSUED:          0 USEFUL:          0 USELESS:          0
cpu0->LLC AVERAGE MISS LATENCY: 111.8 cycles

DRAM Statistics

Channel 0 RQ ROW_BUFFER_HIT:      33860
  ROW_BUFFER_MISS:    7517742
  AVG DBUS CONGESTED CYCLE: 10.06
Channel 0 WQ ROW_BUFFER_HIT:     255230
  ROW_BUFFER_MISS:     688934
  FULL:          0
Channel 0 REFRESHES ISSUED:     104347

Channel 1 RQ ROW_BUFFER_HIT:      33802
  ROW_BUFFER_MISS:    7517834
  AVG DBUS CONGESTED CYCLE: 10.06
Channel 1 WQ ROW_BUFFER_HIT:     254444
  ROW_BUFFER_MISS:     689739
  FULL:          0
Channel 1 REFRESHES ISSUED:     104347
