
*** ChampSim Multicore Out-of-Order Simulator ***
Warmup Instructions: 0
Simulation Instructions: 9223372036854775807
Number of CPUs: 1
Page size: 2097152

Off-chip DRAM Size: 128 GiB Channels: 2 Width: 32-bit Data Rate: 4807 MT/s
[ERROR_PAGE_MANAGER] Error latency: 1990500 
[ERROR_PAGE_MANAGER] Random seed: 54321 (fixed for preload reproducibility)
[ERROR_PAGE_MANAGER] Cycle-based error modeling enabled
[ERROR_PAGE_MANAGER] Errors per interval: 1
[ERROR_PAGE_MANAGER] Error cycle interval: 8000000 cycles

=== ERROR PAGE STATISTICS ===
Mode: CYCLE
Error Cycle Interval: 8000000 CPU cycles
Total Error Accesses: 0
==============================
Warmup finished CPU 0 instructions: 0 cycles: 1 cumulative IPC: 0 (Simulation time: 00 hr 00 min 00 sec)
Warmup complete CPU 0 instructions: 0 cycles: 1 cumulative IPC: 0 (Simulation time: 00 hr 00 min 00 sec)
[ERROR_CYCLE] Error added at CPU cycle 5702245, next at 7322645, pending count: 1
[DRAM_CYCLE_ERROR] Cycle-based error applied! address=0x15ac5d5480 additional_latency=1990500 cycles
[ERROR_CYCLE] Error added at CPU cycle 7322646, next at 20556852, pending count: 1
[DRAM_CYCLE_ERROR] Cycle-based error applied! address=0x1ecf20ac98 additional_latency=1990500 cycles
Heartbeat CPU 0 instructions: 10000003 cycles: 15756937 heartbeat IPC: 0.6346 cumulative IPC: 0.6346 (Simulation time: 00 hr 01 min 54 sec)
[ERROR_CYCLE] Error added at CPU cycle 20556852, next at 42774152, pending count: 1
[DRAM_CYCLE_ERROR] Cycle-based error applied! address=0x13833e9a40 additional_latency=1990500 cycles
Heartbeat CPU 0 instructions: 20000007 cycles: 30809015 heartbeat IPC: 0.6644 cumulative IPC: 0.6492 (Simulation time: 00 hr 03 min 44 sec)
[ERROR_CYCLE] Error added at CPU cycle 42774153, next at 43014581, pending count: 1
[DRAM_CYCLE_ERROR] Cycle-based error applied! address=0x1a817930d8 additional_latency=1990500 cycles
[ERROR_CYCLE] Error added at CPU cycle 43014581, next at 55310914, pending count: 1
[DRAM_CYCLE_ERROR] Cycle-based error applied! address=0x119a7d68f8 additional_latency=1990500 cycles
Heartbeat CPU 0 instructions: 30000008 cycles: 45826448 heartbeat IPC: 0.6659 cumulative IPC: 0.6546 (Simulation time: 00 hr 05 min 34 sec)
[ERROR_CYCLE] Error added at CPU cycle 55310914, next at 56742755, pending count: 1
[DRAM_CYCLE_ERROR] Cycle-based error applied! address=0x1e906244b8 additional_latency=1990500 cycles
[ERROR_CYCLE] Error added at CPU cycle 56742756, next at 61293938, pending count: 1
[DRAM_CYCLE_ERROR] Cycle-based error applied! address=0x1455685e38 additional_latency=1990500 cycles
Heartbeat CPU 0 instructions: 40000008 cycles: 60960067 heartbeat IPC: 0.6608 cumulative IPC: 0.6562 (Simulation time: 00 hr 07 min 20 sec)
[ERROR_CYCLE] Error added at CPU cycle 61293939, next at 68125490, pending count: 1
[DRAM_CYCLE_ERROR] Cycle-based error applied! address=0x1e9070c844 additional_latency=1990500 cycles
[ERROR_CYCLE] Error added at CPU cycle 68125491, next at 70082703, pending count: 1
[DRAM_CYCLE_ERROR] Cycle-based error applied! address=0x66879e1c8 additional_latency=1990500 cycles
[ERROR_CYCLE] Error added at CPU cycle 70082704, next at 84290367, pending count: 1
[DRAM_CYCLE_ERROR] Cycle-based error applied! address=0x16c4f7cc38 additional_latency=1990500 cycles
Heartbeat CPU 0 instructions: 50000008 cycles: 76253718 heartbeat IPC: 0.6539 cumulative IPC: 0.6557 (Simulation time: 00 hr 08 min 52 sec)
[ERROR_CYCLE] Error added at CPU cycle 84290367, next at 87138513, pending count: 1
[DRAM_CYCLE_ERROR] Cycle-based error applied! address=0x1317ab1e08 additional_latency=1990500 cycles
[ERROR_CYCLE] Error added at CPU cycle 87138513, next at 90719201, pending count: 1
[DRAM_CYCLE_ERROR] Cycle-based error applied! address=0x1389e4ee68 additional_latency=1990500 cycles
[ERROR_CYCLE] Error added at CPU cycle 90719201, next at 107001469, pending count: 1
[DRAM_CYCLE_ERROR] Cycle-based error applied! address=0xc03fe8f58 additional_latency=1990500 cycles
Heartbeat CPU 0 instructions: 60000011 cycles: 90990675 heartbeat IPC: 0.6786 cumulative IPC: 0.6594 (Simulation time: 00 hr 10 min 32 sec)
Heartbeat CPU 0 instructions: 70000011 cycles: 106040177 heartbeat IPC: 0.6645 cumulative IPC: 0.6601 (Simulation time: 00 hr 12 min 20 sec)
[ERROR_CYCLE] Error added at CPU cycle 107001469, next at 107099488, pending count: 1
[DRAM_CYCLE_ERROR] Cycle-based error applied! address=0x19465bbbf8 additional_latency=1990500 cycles
[ERROR_CYCLE] Error added at CPU cycle 107099489, next at 116099092, pending count: 1
[DRAM_CYCLE_ERROR] Cycle-based error applied! address=0x119a6f8600 additional_latency=1990500 cycles
[ERROR_CYCLE] Error added at CPU cycle 116099092, next at 121349692, pending count: 1
[DRAM_CYCLE_ERROR] Cycle-based error applied! address=0x11f3647840 additional_latency=1990500 cycles
Heartbeat CPU 0 instructions: 80000012 cycles: 121144295 heartbeat IPC: 0.6621 cumulative IPC: 0.6604 (Simulation time: 00 hr 14 min 08 sec)
[ERROR_CYCLE] Error added at CPU cycle 121349692, next at 151621187, pending count: 1
[DRAM_CYCLE_ERROR] Cycle-based error applied! address=0x1d1b30238 additional_latency=1990500 cycles
Heartbeat CPU 0 instructions: 90000013 cycles: 136093398 heartbeat IPC: 0.6689 cumulative IPC: 0.6613 (Simulation time: 00 hr 15 min 54 sec)
Heartbeat CPU 0 instructions: 100000013 cycles: 151050017 heartbeat IPC: 0.6686 cumulative IPC: 0.662 (Simulation time: 00 hr 17 min 42 sec)
[ERROR_CYCLE] Error added at CPU cycle 151621187, next at 153516742, pending count: 1
[DRAM_CYCLE_ERROR] Cycle-based error applied! address=0x15b50d41b8 additional_latency=1990500 cycles
[ERROR_CYCLE] Error added at CPU cycle 153516742, next at 155437621, pending count: 1
[DRAM_CYCLE_ERROR] Cycle-based error applied! address=0x8ba8158c0 additional_latency=1990500 cycles
[ERROR_CYCLE] Error added at CPU cycle 155437621, next at 178495226, pending count: 1
[DRAM_CYCLE_ERROR] Cycle-based error applied! address=0x186442cb0 additional_latency=1990500 cycles
Heartbeat CPU 0 instructions: 110000014 cycles: 165952166 heartbeat IPC: 0.671 cumulative IPC: 0.6628 (Simulation time: 00 hr 19 min 29 sec)
[ERROR_CYCLE] Error added at CPU cycle 178495226, next at 181653365, pending count: 1
[DRAM_CYCLE_ERROR] Cycle-based error applied! address=0x162e2cc9a0 additional_latency=1990500 cycles
Heartbeat CPU 0 instructions: 120000018 cycles: 180784393 heartbeat IPC: 0.6742 cumulative IPC: 0.6638 (Simulation time: 00 hr 21 min 14 sec)
[ERROR_CYCLE] Error added at CPU cycle 181653365, next at 215877191, pending count: 1
[DRAM_CYCLE_ERROR] Cycle-based error applied! address=0xdafcbff80 additional_latency=1990500 cycles
Heartbeat CPU 0 instructions: 130000018 cycles: 195708012 heartbeat IPC: 0.6701 cumulative IPC: 0.6643 (Simulation time: 00 hr 23 min 01 sec)
Heartbeat CPU 0 instructions: 140000020 cycles: 210540027 heartbeat IPC: 0.6742 cumulative IPC: 0.665 (Simulation time: 00 hr 24 min 48 sec)
[ERROR_CYCLE] Error added at CPU cycle 215877191, next at 220477735, pending count: 1
[DRAM_CYCLE_ERROR] Cycle-based error applied! address=0x11f37c6c80 additional_latency=1990500 cycles
[ERROR_CYCLE] Error added at CPU cycle 220477735, next at 247385306, pending count: 1
[DRAM_CYCLE_ERROR] Cycle-based error applied! address=0x1008fbfc60 additional_latency=1990500 cycles
Heartbeat CPU 0 instructions: 150000021 cycles: 225526533 heartbeat IPC: 0.6673 cumulative IPC: 0.6651 (Simulation time: 00 hr 26 min 36 sec)
Heartbeat CPU 0 instructions: 160000021 cycles: 240477516 heartbeat IPC: 0.6689 cumulative IPC: 0.6653 (Simulation time: 00 hr 28 min 23 sec)
[ERROR_CYCLE] Error added at CPU cycle 247385307, next at 249771807, pending count: 1
[DRAM_CYCLE_ERROR] Cycle-based error applied! address=0x1556bc9c50 additional_latency=1990500 cycles
[ERROR_CYCLE] Error added at CPU cycle 249771808, next at 261187612, pending count: 1
[DRAM_CYCLE_ERROR] Cycle-based error applied! address=0xcf7cb0090 additional_latency=1990500 cycles
Heartbeat CPU 0 instructions: 170000021 cycles: 255298359 heartbeat IPC: 0.6747 cumulative IPC: 0.6659 (Simulation time: 00 hr 30 min 10 sec)
[ERROR_CYCLE] Error added at CPU cycle 261187613, next at 262895406, pending count: 1
[DRAM_CYCLE_ERROR] Cycle-based error applied! address=0x17e86560c8 additional_latency=1990500 cycles
[ERROR_CYCLE] Error added at CPU cycle 262895406, next at 265556270, pending count: 1
[DRAM_CYCLE_ERROR] Cycle-based error applied! address=0x1864abc28 additional_latency=1990500 cycles
[ERROR_CYCLE] Error added at CPU cycle 265556270, next at 277297613, pending count: 1
[DRAM_CYCLE_ERROR] Cycle-based error applied! address=0x1b8674c608 additional_latency=1990500 cycles
Heartbeat CPU 0 instructions: 180000024 cycles: 269963573 heartbeat IPC: 0.6819 cumulative IPC: 0.6668 (Simulation time: 00 hr 31 min 56 sec)
[ERROR_CYCLE] Error added at CPU cycle 277297614, next at 277363337, pending count: 1
[DRAM_CYCLE_ERROR] Cycle-based error applied! address=0x1946534cd8 additional_latency=1990500 cycles
[ERROR_CYCLE] Error added at CPU cycle 277363337, next at 280844445, pending count: 1
[DRAM_CYCLE_ERROR] Cycle-based error applied! address=0x1946551400 additional_latency=1990500 cycles
[ERROR_CYCLE] Error added at CPU cycle 280844445, next at 282972414, pending count: 1
[DRAM_CYCLE_ERROR] Cycle-based error applied! address=0x19cba444c8 additional_latency=1990500 cycles
[ERROR_CYCLE] Error added at CPU cycle 282972415, next at 286862856, pending count: 1
[DRAM_CYCLE_ERROR] Cycle-based error applied! address=0x162e261c28 additional_latency=1990500 cycles
Heartbeat CPU 0 instructions: 190000028 cycles: 284729796 heartbeat IPC: 0.6772 cumulative IPC: 0.6673 (Simulation time: 00 hr 33 min 42 sec)
[ERROR_CYCLE] Error added at CPU cycle 286862857, next at 287787267, pending count: 1
[DRAM_CYCLE_ERROR] Cycle-based error applied! address=0x17e87512d0 additional_latency=1990500 cycles
[ERROR_CYCLE] Error added at CPU cycle 287787267, next at 291972450, pending count: 1
[DRAM_CYCLE_ERROR] Cycle-based error applied! address=0xc03ef7ac8 additional_latency=1990500 cycles
[ERROR_CYCLE] Error added at CPU cycle 291972450, next at 296131102, pending count: 1
[DRAM_CYCLE_ERROR] Cycle-based error applied! address=0xe50ed71a0 additional_latency=1990500 cycles
[ERROR_CYCLE] Error added at CPU cycle 296131102, next at 307889350, pending count: 1
[DRAM_CYCLE_ERROR] Cycle-based error applied! address=0x1c78810218 additional_latency=1990500 cycles
Heartbeat CPU 0 instructions: 200000029 cycles: 299696999 heartbeat IPC: 0.6681 cumulative IPC: 0.6673 (Simulation time: 00 hr 35 min 29 sec)
[ERROR_CYCLE] Error added at CPU cycle 307889350, next at 322644041, pending count: 1
[DRAM_CYCLE_ERROR] Cycle-based error applied! address=0xed65bc688 additional_latency=1990500 cycles
Heartbeat CPU 0 instructions: 210000033 cycles: 314597693 heartbeat IPC: 0.6711 cumulative IPC: 0.6675 (Simulation time: 00 hr 37 min 16 sec)
[ERROR_CYCLE] Error added at CPU cycle 322644042, next at 326639280, pending count: 1
[DRAM_CYCLE_ERROR] Cycle-based error applied! address=0xd0dcd90c0 additional_latency=1990500 cycles
[ERROR_CYCLE] Error added at CPU cycle 326639281, next at 331663090, pending count: 1
[DRAM_CYCLE_ERROR] Cycle-based error applied! address=0x1ca586c0d0 additional_latency=1990500 cycles
Heartbeat CPU 0 instructions: 220000035 cycles: 329447134 heartbeat IPC: 0.6734 cumulative IPC: 0.6678 (Simulation time: 00 hr 39 min 03 sec)
[ERROR_CYCLE] Error added at CPU cycle 331663090, next at 332541815, pending count: 1
[DRAM_CYCLE_ERROR] Cycle-based error applied! address=0x13b4cccd80 additional_latency=1990500 cycles
[ERROR_CYCLE] Error added at CPU cycle 332541815, next at 334235178, pending count: 1
[DRAM_CYCLE_ERROR] Cycle-based error applied! address=0x1389f1c510 additional_latency=1990500 cycles
[ERROR_CYCLE] Error added at CPU cycle 334235178, next at 343169730, pending count: 1
[DRAM_CYCLE_ERROR] Cycle-based error applied! address=0x6461c00b8 additional_latency=1990500 cycles
[ERROR_CYCLE] Error added at CPU cycle 343169730, next at 348318977, pending count: 1
[DRAM_CYCLE_ERROR] Cycle-based error applied! address=0xadb34d390 additional_latency=1990500 cycles
Heartbeat CPU 0 instructions: 230000036 cycles: 344502467 heartbeat IPC: 0.6642 cumulative IPC: 0.6676 (Simulation time: 00 hr 40 min 51 sec)
[ERROR_CYCLE] Error added at CPU cycle 348318978, next at 361256443, pending count: 1
[DRAM_CYCLE_ERROR] Cycle-based error applied! address=0xad0a7e740 additional_latency=1990500 cycles
Heartbeat CPU 0 instructions: 240000036 cycles: 359405840 heartbeat IPC: 0.671 cumulative IPC: 0.6678 (Simulation time: 00 hr 42 min 38 sec)
[ERROR_CYCLE] Error added at CPU cycle 361256443, next at 363532948, pending count: 1
[DRAM_CYCLE_ERROR] Cycle-based error applied! address=0x8881cdb78 additional_latency=1990500 cycles
[ERROR_CYCLE] Error added at CPU cycle 363532948, next at 374354625, pending count: 1
[DRAM_CYCLE_ERROR] Cycle-based error applied! address=0x1ef4fbc780 additional_latency=1990500 cycles
Heartbeat CPU 0 instructions: 250000038 cycles: 373869570 heartbeat IPC: 0.6914 cumulative IPC: 0.6687 (Simulation time: 00 hr 44 min 22 sec)
[ERROR_CYCLE] Error added at CPU cycle 374354626, next at 383320275, pending count: 1
[DRAM_CYCLE_ERROR] Cycle-based error applied! address=0xdafcbee10 additional_latency=1990500 cycles
[ERROR_CYCLE] Error added at CPU cycle 383320276, next at 391855039, pending count: 1
[DRAM_CYCLE_ERROR] Cycle-based error applied! address=0x13833400f0 additional_latency=1990500 cycles
Heartbeat CPU 0 instructions: 260000038 cycles: 388379212 heartbeat IPC: 0.6892 cumulative IPC: 0.6694 (Simulation time: 00 hr 46 min 07 sec)
[ERROR_CYCLE] Error added at CPU cycle 391855040, next at 393759507, pending count: 1
[DRAM_CYCLE_ERROR] Cycle-based error applied! address=0x9ae674390 additional_latency=1990500 cycles
[ERROR_CYCLE] Error added at CPU cycle 393759508, next at 400884047, pending count: 1
[DRAM_CYCLE_ERROR] Cycle-based error applied! address=0x194640f648 additional_latency=1990500 cycles
[ERROR_CYCLE] Error added at CPU cycle 400884047, next at 413131147, pending count: 1
[DRAM_CYCLE_ERROR] Cycle-based error applied! address=0x1a24416ad6 additional_latency=1990500 cycles
Heartbeat CPU 0 instructions: 270000038 cycles: 403366599 heartbeat IPC: 0.6672 cumulative IPC: 0.6694 (Simulation time: 00 hr 47 min 54 sec)
[ERROR_CYCLE] Error added at CPU cycle 413131147, next at 418606511, pending count: 1
[DRAM_CYCLE_ERROR] Cycle-based error applied! address=0x1d1aac841 additional_latency=1990500 cycles
Heartbeat CPU 0 instructions: 280000041 cycles: 418604244 heartbeat IPC: 0.6563 cumulative IPC: 0.6689 (Simulation time: 00 hr 49 min 44 sec)
[ERROR_CYCLE] Error added at CPU cycle 418606511, next at 419456417, pending count: 1
[DRAM_CYCLE_ERROR] Cycle-based error applied! address=0x613e755a6 additional_latency=1990500 cycles
[ERROR_CYCLE] Error added at CPU cycle 419456417, next at 436337035, pending count: 1
[DRAM_CYCLE_ERROR] Cycle-based error applied! address=0x138faedaf0 additional_latency=1990500 cycles
Heartbeat CPU 0 instructions: 290000043 cycles: 433711390 heartbeat IPC: 0.6619 cumulative IPC: 0.6686 (Simulation time: 00 hr 51 min 32 sec)
[ERROR_CYCLE] Error added at CPU cycle 436337035, next at 444009234, pending count: 1
[DRAM_CYCLE_ERROR] Cycle-based error applied! address=0x1556afd930 additional_latency=1990500 cycles
[ERROR_CYCLE] Error added at CPU cycle 444009235, next at 453365678, pending count: 1
[DRAM_CYCLE_ERROR] Cycle-based error applied! address=0x145ce18180 additional_latency=1990500 cycles
Heartbeat CPU 0 instructions: 300000044 cycles: 448287243 heartbeat IPC: 0.6861 cumulative IPC: 0.6692 (Simulation time: 00 hr 53 min 16 sec)
[ERROR_CYCLE] Error added at CPU cycle 453365679, next at 481867585, pending count: 1
[DRAM_CYCLE_ERROR] Cycle-based error applied! address=0x6461ed8a0 additional_latency=1990500 cycles
Heartbeat CPU 0 instructions: 310000047 cycles: 463430749 heartbeat IPC: 0.6603 cumulative IPC: 0.6689 (Simulation time: 00 hr 55 min 04 sec)
Heartbeat CPU 0 instructions: 320000051 cycles: 478344819 heartbeat IPC: 0.6705 cumulative IPC: 0.669 (Simulation time: 00 hr 56 min 52 sec)
[ERROR_CYCLE] Error added at CPU cycle 481867586, next at 486241351, pending count: 1
[DRAM_CYCLE_ERROR] Cycle-based error applied! address=0x1b616c7228 additional_latency=1990500 cycles
[ERROR_CYCLE] Error added at CPU cycle 486241352, next at 486834828, pending count: 1
[DRAM_CYCLE_ERROR] Cycle-based error applied! address=0x1b2ca0c80 additional_latency=1990500 cycles
[ERROR_CYCLE] Error added at CPU cycle 486834829, next at 488524067, pending count: 1
[DRAM_CYCLE_ERROR] Cycle-based error applied! address=0x14e3cd7b88 additional_latency=1990500 cycles
[ERROR_CYCLE] Error added at CPU cycle 488524067, next at 490575473, pending count: 1
[DRAM_CYCLE_ERROR] Cycle-based error applied! address=0xcf7c27d00 additional_latency=1990500 cycles
[ERROR_CYCLE] Error added at CPU cycle 490575473, next at 490984732, pending count: 1
[DRAM_CYCLE_ERROR] Cycle-based error applied! address=0x206a3c720 additional_latency=1990500 cycles
[ERROR_CYCLE] Error added at CPU cycle 490984732, next at 492549221, pending count: 1
[DRAM_CYCLE_ERROR] Cycle-based error applied! address=0x42944ab48 additional_latency=1990500 cycles
[ERROR_CYCLE] Error added at CPU cycle 492549221, next at 499064308, pending count: 1
[DRAM_CYCLE_ERROR] Cycle-based error applied! address=0x1a1a188926 additional_latency=1990500 cycles
Heartbeat CPU 0 instructions: 330000051 cycles: 493233252 heartbeat IPC: 0.6717 cumulative IPC: 0.6691 (Simulation time: 00 hr 58 min 38 sec)
[ERROR_CYCLE] Error added at CPU cycle 499064309, next at 524403665, pending count: 1
[DRAM_CYCLE_ERROR] Cycle-based error applied! address=0x1ef4ecd944 additional_latency=1990500 cycles
Heartbeat CPU 0 instructions: 340000055 cycles: 507231742 heartbeat IPC: 0.7144 cumulative IPC: 0.6703 (Simulation time: 01 hr 00 min 20 sec)
Heartbeat CPU 0 instructions: 350000055 cycles: 521963683 heartbeat IPC: 0.6788 cumulative IPC: 0.6705 (Simulation time: 01 hr 02 min 05 sec)
[ERROR_CYCLE] Error added at CPU cycle 524403666, next at 548237136, pending count: 1
[DRAM_CYCLE_ERROR] Cycle-based error applied! address=0x1c7897dc88 additional_latency=1990500 cycles
Heartbeat CPU 0 instructions: 360000056 cycles: 536428831 heartbeat IPC: 0.6913 cumulative IPC: 0.6711 (Simulation time: 01 hr 03 min 49 sec)
[ERROR_CYCLE] Error added at CPU cycle 548237136, next at 553653883, pending count: 1
[DRAM_CYCLE_ERROR] Cycle-based error applied! address=0x11f36f6570 additional_latency=1990500 cycles
Heartbeat CPU 0 instructions: 370000056 cycles: 550983935 heartbeat IPC: 0.687 cumulative IPC: 0.6715 (Simulation time: 01 hr 05 min 10 sec)
[ERROR_CYCLE] Error added at CPU cycle 553653884, next at 554848685, pending count: 1
[DRAM_CYCLE_ERROR] Cycle-based error applied! address=0x10c6f35c60 additional_latency=1990500 cycles
[ERROR_CYCLE] Error added at CPU cycle 554848686, next at 557254087, pending count: 1
[DRAM_CYCLE_ERROR] Cycle-based error applied! address=0xf663f8bc8 additional_latency=1990500 cycles
[ERROR_CYCLE] Error added at CPU cycle 557254087, next at 564098204, pending count: 1
[DRAM_CYCLE_ERROR] Cycle-based error applied! address=0x1008eacea8 additional_latency=1990500 cycles
[ERROR_CYCLE] Error added at CPU cycle 564098204, next at 598036750, pending count: 1
[DRAM_CYCLE_ERROR] Cycle-based error applied! address=0x8ba81b968 additional_latency=1990500 cycles
Heartbeat CPU 0 instructions: 380000056 cycles: 565461889 heartbeat IPC: 0.6907 cumulative IPC: 0.672 (Simulation time: 01 hr 06 min 26 sec)
Heartbeat CPU 0 instructions: 390000058 cycles: 579950996 heartbeat IPC: 0.6902 cumulative IPC: 0.6725 (Simulation time: 01 hr 07 min 37 sec)
Heartbeat CPU 0 instructions: 400000059 cycles: 594571716 heartbeat IPC: 0.684 cumulative IPC: 0.6728 (Simulation time: 01 hr 08 min 47 sec)
[ERROR_CYCLE] Error added at CPU cycle 598036751, next at 598935337, pending count: 1
[DRAM_CYCLE_ERROR] Cycle-based error applied! address=0x3e85d3358 additional_latency=1990500 cycles
[ERROR_CYCLE] Error added at CPU cycle 598935337, next at 604015587, pending count: 1
[DRAM_CYCLE_ERROR] Cycle-based error applied! address=0xd86b79e20 additional_latency=1990500 cycles
[ERROR_CYCLE] Error added at CPU cycle 604015587, next at 604397660, pending count: 1
[DRAM_CYCLE_ERROR] Cycle-based error applied! address=0x14e3c1fe30 additional_latency=1990500 cycles
[ERROR_CYCLE] Error added at CPU cycle 604397660, next at 607018469, pending count: 1
[DRAM_CYCLE_ERROR] Cycle-based error applied! address=0x1389e88b20 additional_latency=1990500 cycles
[ERROR_CYCLE] Error added at CPU cycle 607018470, next at 614345951, pending count: 1
[DRAM_CYCLE_ERROR] Cycle-based error applied! address=0x5a9358e08 additional_latency=1990500 cycles
Heartbeat CPU 0 instructions: 410000059 cycles: 609097301 heartbeat IPC: 0.6884 cumulative IPC: 0.6731 (Simulation time: 01 hr 09 min 56 sec)
[ERROR_CYCLE] Error added at CPU cycle 614345951, next at 614441836, pending count: 1
[DRAM_CYCLE_ERROR] Cycle-based error applied! address=0x1317b5c5f8 additional_latency=1990500 cycles
[ERROR_CYCLE] Error added at CPU cycle 614441837, next at 614480051, pending count: 1
[DRAM_CYCLE_ERROR] Cycle-based error applied! address=0x28df7db48 additional_latency=1990500 cycles
[ERROR_CYCLE] Error added at CPU cycle 614480051, next at 614611983, pending count: 1
[DRAM_CYCLE_ERROR] Cycle-based error applied! address=0x1b617d8a70 additional_latency=1990500 cycles
[ERROR_CYCLE] Error added at CPU cycle 614611983, next at 618781457, pending count: 1
[DRAM_CYCLE_ERROR] Cycle-based error applied! address=0x1ef4fede60 additional_latency=1990500 cycles
[ERROR_CYCLE] Error added at CPU cycle 618781458, next at 620327032, pending count: 1
[DRAM_CYCLE_ERROR] Cycle-based error applied! address=0xdafccc120 additional_latency=1990500 cycles
[ERROR_CYCLE] Error added at CPU cycle 620327032, next at 621182048, pending count: 1
[DRAM_CYCLE_ERROR] Cycle-based error applied! address=0x1d1b65438 additional_latency=1990500 cycles
[ERROR_CYCLE] Error added at CPU cycle 621182049, next at 625644245, pending count: 1
[DRAM_CYCLE_ERROR] Cycle-based error applied! address=0x1f5dc1cc70 additional_latency=1990500 cycles
Heartbeat CPU 0 instructions: 420000062 cycles: 623819999 heartbeat IPC: 0.6792 cumulative IPC: 0.6733 (Simulation time: 01 hr 11 min 07 sec)
[ERROR_CYCLE] Error added at CPU cycle 625644246, next at 634692953, pending count: 1
[DRAM_CYCLE_ERROR] Cycle-based error applied! address=0x1f79555888 additional_latency=1990500 cycles
[ERROR_CYCLE] Error added at CPU cycle 634692953, next at 640590896, pending count: 1
[DRAM_CYCLE_ERROR] Cycle-based error applied! address=0xd86ab8860 additional_latency=1990500 cycles
Heartbeat CPU 0 instructions: 430000065 cycles: 638607031 heartbeat IPC: 0.6763 cumulative IPC: 0.6733 (Simulation time: 01 hr 12 min 32 sec)
[ERROR_CYCLE] Error added at CPU cycle 640590897, next at 643762779, pending count: 1
[DRAM_CYCLE_ERROR] Cycle-based error applied! address=0x112c4dd920 additional_latency=1990500 cycles
[ERROR_CYCLE] Error added at CPU cycle 643762780, next at 650107287, pending count: 1
[DRAM_CYCLE_ERROR] Cycle-based error applied! address=0x1fada5e870 additional_latency=1990500 cycles
[ERROR_CYCLE] Error added at CPU cycle 650107288, next at 660201622, pending count: 1
[DRAM_CYCLE_ERROR] Cycle-based error applied! address=0x3e853fc90 additional_latency=1990500 cycles
Heartbeat CPU 0 instructions: 440000068 cycles: 653522958 heartbeat IPC: 0.6704 cumulative IPC: 0.6733 (Simulation time: 01 hr 13 min 43 sec)
[ERROR_CYCLE] Error added at CPU cycle 660201622, next at 664349972, pending count: 1
[DRAM_CYCLE_ERROR] Cycle-based error applied! address=0x1c789ffe18 additional_latency=1990500 cycles
[ERROR_CYCLE] Error added at CPU cycle 664349973, next at 671148112, pending count: 1
[DRAM_CYCLE_ERROR] Cycle-based error applied! address=0x1455653e58 additional_latency=1990500 cycles
Heartbeat CPU 0 instructions: 450000068 cycles: 668325931 heartbeat IPC: 0.6755 cumulative IPC: 0.6733 (Simulation time: 01 hr 14 min 58 sec)
[ERROR_CYCLE] Error added at CPU cycle 671148112, next at 689443322, pending count: 1
[DRAM_CYCLE_ERROR] Cycle-based error applied! address=0x206a95080 additional_latency=1990500 cycles
Heartbeat CPU 0 instructions: 460000068 cycles: 683078554 heartbeat IPC: 0.6778 cumulative IPC: 0.6734 (Simulation time: 01 hr 16 min 25 sec)
[ERROR_CYCLE] Error added at CPU cycle 689443322, next at 691311391, pending count: 1
[DRAM_CYCLE_ERROR] Cycle-based error applied! address=0x3e85db798 additional_latency=1990500 cycles
[ERROR_CYCLE] Error added at CPU cycle 691311392, next at 706435840, pending count: 1
[DRAM_CYCLE_ERROR] Cycle-based error applied! address=0x182e865b00 additional_latency=1990500 cycles
Heartbeat CPU 0 instructions: 470000068 cycles: 697926423 heartbeat IPC: 0.6735 cumulative IPC: 0.6734 (Simulation time: 01 hr 17 min 47 sec)
[ERROR_CYCLE] Error added at CPU cycle 706435841, next at 708373709, pending count: 1
[DRAM_CYCLE_ERROR] Cycle-based error applied! address=0x42945c8e8 additional_latency=1990500 cycles
[ERROR_CYCLE] Error added at CPU cycle 708373709, next at 709740849, pending count: 1
[DRAM_CYCLE_ERROR] Cycle-based error applied! address=0x119a632bc8 additional_latency=1990500 cycles
[ERROR_CYCLE] Error added at CPU cycle 709740849, next at 713146632, pending count: 1
[DRAM_CYCLE_ERROR] Cycle-based error applied! address=0x5a994a828 additional_latency=1990500 cycles
Heartbeat CPU 0 instructions: 480000068 cycles: 712735624 heartbeat IPC: 0.6753 cumulative IPC: 0.6735 (Simulation time: 01 hr 19 min 36 sec)
[ERROR_CYCLE] Error added at CPU cycle 713146633, next at 728113647, pending count: 1
[DRAM_CYCLE_ERROR] Cycle-based error applied! address=0xe6ff78220 additional_latency=1990500 cycles
Heartbeat CPU 0 instructions: 490000071 cycles: 728045437 heartbeat IPC: 0.6532 cumulative IPC: 0.673 (Simulation time: 01 hr 21 min 16 sec)
[ERROR_CYCLE] Error added at CPU cycle 728113647, next at 729964738, pending count: 1
[DRAM_CYCLE_ERROR] Cycle-based error applied! address=0x138fa78970 additional_latency=1990500 cycles
[ERROR_CYCLE] Error added at CPU cycle 729964738, next at 736361994, pending count: 1
[DRAM_CYCLE_ERROR] Cycle-based error applied! address=0x5a934a918 additional_latency=1990500 cycles
[ERROR_CYCLE] Error added at CPU cycle 736361994, next at 740287178, pending count: 1
[DRAM_CYCLE_ERROR] Cycle-based error applied! address=0x136a61fbe8 additional_latency=1990500 cycles
[ERROR_CYCLE] Error added at CPU cycle 740287179, next at 742566863, pending count: 1
[DRAM_CYCLE_ERROR] Cycle-based error applied! address=0x17e8650900 additional_latency=1990500 cycles
[ERROR_CYCLE] Error added at CPU cycle 742566864, next at 748440995, pending count: 1
[DRAM_CYCLE_ERROR] Cycle-based error applied! address=0x3e84c5f86 additional_latency=1990500 cycles
Heartbeat CPU 0 instructions: 500000072 cycles: 742752373 heartbeat IPC: 0.68 cumulative IPC: 0.6732 (Simulation time: 01 hr 22 min 35 sec)
[ERROR_CYCLE] Error added at CPU cycle 748440995, next at 752222168, pending count: 1
[DRAM_CYCLE_ERROR] Cycle-based error applied! address=0x1f79459698 additional_latency=1990500 cycles
[ERROR_CYCLE] Error added at CPU cycle 752222169, next at 753089532, pending count: 1
[DRAM_CYCLE_ERROR] Cycle-based error applied! address=0x100e92980 additional_latency=1990500 cycles
[ERROR_CYCLE] Error added at CPU cycle 753089532, next at 755305368, pending count: 1
[DRAM_CYCLE_ERROR] Cycle-based error applied! address=0xcf7d02680 additional_latency=1990500 cycles
[ERROR_CYCLE] Error added at CPU cycle 755305368, next at 772665000, pending count: 1
[DRAM_CYCLE_ERROR] Cycle-based error applied! address=0x19464c0301 additional_latency=1990500 cycles
Heartbeat CPU 0 instructions: 510000075 cycles: 757635500 heartbeat IPC: 0.6719 cumulative IPC: 0.6731 (Simulation time: 01 hr 24 min 23 sec)
Heartbeat CPU 0 instructions: 520000079 cycles: 772509891 heartbeat IPC: 0.6723 cumulative IPC: 0.6731 (Simulation time: 01 hr 26 min 00 sec)
[ERROR_CYCLE] Error added at CPU cycle 772665001, next at 782584091, pending count: 1
[DRAM_CYCLE_ERROR] Cycle-based error applied! address=0x1383355d20 additional_latency=1990500 cycles
[ERROR_CYCLE] Error added at CPU cycle 782584092, next at 796276792, pending count: 1
[DRAM_CYCLE_ERROR] Cycle-based error applied! address=0x19cba70e88 additional_latency=1990500 cycles
Heartbeat CPU 0 instructions: 530000080 cycles: 787252370 heartbeat IPC: 0.6783 cumulative IPC: 0.6732 (Simulation time: 01 hr 27 min 49 sec)
[ERROR_CYCLE] Error added at CPU cycle 796276792, next at 801187692, pending count: 1
[DRAM_CYCLE_ERROR] Cycle-based error applied! address=0x206b451f0 additional_latency=1990500 cycles
[ERROR_CYCLE] Error added at CPU cycle 801187692, next at 808777645, pending count: 1
[DRAM_CYCLE_ERROR] Cycle-based error applied! address=0x14e3ccae96 additional_latency=1990500 cycles
Heartbeat CPU 0 instructions: 540000080 cycles: 802334268 heartbeat IPC: 0.663 cumulative IPC: 0.673 (Simulation time: 01 hr 29 min 26 sec)
[ERROR_CYCLE] Error added at CPU cycle 808777645, next at 810760668, pending count: 1
[DRAM_CYCLE_ERROR] Cycle-based error applied! address=0xe6ffeeab0 additional_latency=1990500 cycles
[ERROR_CYCLE] Error added at CPU cycle 810760669, next at 822280300, pending count: 1
[DRAM_CYCLE_ERROR] Cycle-based error applied! address=0x1ca597ba81 additional_latency=1990500 cycles
Heartbeat CPU 0 instructions: 550000080 cycles: 817343360 heartbeat IPC: 0.6663 cumulative IPC: 0.6729 (Simulation time: 01 hr 30 min 43 sec)
[ERROR_CYCLE] Error added at CPU cycle 822280301, next at 832288151, pending count: 1
[DRAM_CYCLE_ERROR] Cycle-based error applied! address=0x19cbafafd0 additional_latency=1990500 cycles
Heartbeat CPU 0 instructions: 560000082 cycles: 832206384 heartbeat IPC: 0.6728 cumulative IPC: 0.6729 (Simulation time: 01 hr 32 min 00 sec)
[ERROR_CYCLE] Error added at CPU cycle 832288151, next at 838593573, pending count: 1
[DRAM_CYCLE_ERROR] Cycle-based error applied! address=0x1e907b8458 additional_latency=1990500 cycles
[ERROR_CYCLE] Error added at CPU cycle 838593573, next at 846086183, pending count: 1
[DRAM_CYCLE_ERROR] Cycle-based error applied! address=0x1b6164a848 additional_latency=1990500 cycles
[ERROR_CYCLE] Error added at CPU cycle 846086184, next at 862431645, pending count: 1
[DRAM_CYCLE_ERROR] Cycle-based error applied! address=0x206a11238 additional_latency=1990500 cycles
Heartbeat CPU 0 instructions: 570000082 cycles: 847291475 heartbeat IPC: 0.6629 cumulative IPC: 0.6727 (Simulation time: 01 hr 33 min 41 sec)
Heartbeat CPU 0 instructions: 580000085 cycles: 862116497 heartbeat IPC: 0.6745 cumulative IPC: 0.6728 (Simulation time: 01 hr 35 min 30 sec)
[ERROR_CYCLE] Error added at CPU cycle 862431646, next at 874582316, pending count: 1
[DRAM_CYCLE_ERROR] Cycle-based error applied! address=0x16c41806c6 additional_latency=1990500 cycles
[ERROR_CYCLE] Error added at CPU cycle 874582317, next at 876300437, pending count: 1
[DRAM_CYCLE_ERROR] Cycle-based error applied! address=0x145ceded58 additional_latency=1990500 cycles
[ERROR_CYCLE] Error added at CPU cycle 876300437, next at 881443625, pending count: 1
[DRAM_CYCLE_ERROR] Cycle-based error applied! address=0x1525dfd860 additional_latency=1990500 cycles
Heartbeat CPU 0 instructions: 590000085 cycles: 877146199 heartbeat IPC: 0.6653 cumulative IPC: 0.6726 (Simulation time: 01 hr 37 min 20 sec)
[ERROR_CYCLE] Error added at CPU cycle 881443625, next at 885663751, pending count: 1
[DRAM_CYCLE_ERROR] Cycle-based error applied! address=0xcf7c78d48 additional_latency=1990500 cycles
[ERROR_CYCLE] Error added at CPU cycle 885663752, next at 892255045, pending count: 1
[DRAM_CYCLE_ERROR] Cycle-based error applied! address=0x1317ac3238 additional_latency=1990500 cycles
Heartbeat CPU 0 instructions: 600000086 cycles: 891974414 heartbeat IPC: 0.6744 cumulative IPC: 0.6727 (Simulation time: 01 hr 39 min 09 sec)
[ERROR_CYCLE] Error added at CPU cycle 892255045, next at 908006563, pending count: 1
[DRAM_CYCLE_ERROR] Cycle-based error applied! address=0x11ea20d448 additional_latency=1990500 cycles
Heartbeat CPU 0 instructions: 610000086 cycles: 906732524 heartbeat IPC: 0.6776 cumulative IPC: 0.6727 (Simulation time: 01 hr 40 min 58 sec)
[ERROR_CYCLE] Error added at CPU cycle 908006564, next at 912786163, pending count: 1
[DRAM_CYCLE_ERROR] Cycle-based error applied! address=0x19cbbc7ed8 additional_latency=1990500 cycles
[ERROR_CYCLE] Error added at CPU cycle 912786163, next at 923266667, pending count: 1
[DRAM_CYCLE_ERROR] Cycle-based error applied! address=0x16a990440 additional_latency=1990500 cycles
Heartbeat CPU 0 instructions: 620000090 cycles: 921845556 heartbeat IPC: 0.6617 cumulative IPC: 0.6726 (Simulation time: 01 hr 42 min 48 sec)
[ERROR_CYCLE] Error added at CPU cycle 923266667, next at 924053485, pending count: 1
[DRAM_CYCLE_ERROR] Cycle-based error applied! address=0xe50e4b910 additional_latency=1990500 cycles
[ERROR_CYCLE] Error added at CPU cycle 924053485, next at 931344785, pending count: 1
[DRAM_CYCLE_ERROR] Cycle-based error applied! address=0x16c40078e8 additional_latency=1990500 cycles
[ERROR_CYCLE] Error added at CPU cycle 931344785, next at 936042183, pending count: 1
[DRAM_CYCLE_ERROR] Cycle-based error applied! address=0x613feda40 additional_latency=1990500 cycles
[ERROR_CYCLE] Error added at CPU cycle 936042184, next at 960927640, pending count: 1
[DRAM_CYCLE_ERROR] Cycle-based error applied! address=0x1d1b77e80 additional_latency=1990500 cycles
Heartbeat CPU 0 instructions: 630000094 cycles: 936760527 heartbeat IPC: 0.6705 cumulative IPC: 0.6725 (Simulation time: 01 hr 44 min 36 sec)
Heartbeat CPU 0 instructions: 640000095 cycles: 951860991 heartbeat IPC: 0.6622 cumulative IPC: 0.6724 (Simulation time: 01 hr 46 min 25 sec)
[ERROR_CYCLE] Error added at CPU cycle 960927640, next at 975843003, pending count: 1
[DRAM_CYCLE_ERROR] Cycle-based error applied! address=0x1b2c26c30 additional_latency=1990500 cycles
Heartbeat CPU 0 instructions: 650000098 cycles: 966816669 heartbeat IPC: 0.6686 cumulative IPC: 0.6723 (Simulation time: 01 hr 48 min 13 sec)
[ERROR_CYCLE] Error added at CPU cycle 975843004, next at 977626043, pending count: 1
[DRAM_CYCLE_ERROR] Cycle-based error applied! address=0x19cbb7f860 additional_latency=1990500 cycles
[ERROR_CYCLE] Error added at CPU cycle 977626043, next at 979831902, pending count: 1
[DRAM_CYCLE_ERROR] Cycle-based error applied! address=0x15ac5a9b28 additional_latency=1990500 cycles
[ERROR_CYCLE] Error added at CPU cycle 979831903, next at 985183089, pending count: 1
[DRAM_CYCLE_ERROR] Cycle-based error applied! address=0x194648a3f0 additional_latency=1990500 cycles
Heartbeat CPU 0 instructions: 660000100 cycles: 981832958 heartbeat IPC: 0.6659 cumulative IPC: 0.6722 (Simulation time: 01 hr 49 min 38 sec)
[ERROR_CYCLE] Error added at CPU cycle 985183089, next at 985529715, pending count: 1
[DRAM_CYCLE_ERROR] Cycle-based error applied! address=0x17e865dd30 additional_latency=1990500 cycles
[ERROR_CYCLE] Error added at CPU cycle 985529715, next at 989014745, pending count: 1
[DRAM_CYCLE_ERROR] Cycle-based error applied! address=0x8ba87b8c8 additional_latency=1990500 cycles
[ERROR_CYCLE] Error added at CPU cycle 989014745, next at 1000495001, pending count: 1
[DRAM_CYCLE_ERROR] Cycle-based error applied! address=0x15ac4720c8 additional_latency=1990500 cycles
Heartbeat CPU 0 instructions: 670000101 cycles: 996776623 heartbeat IPC: 0.6692 cumulative IPC: 0.6722 (Simulation time: 01 hr 50 min 47 sec)
[ERROR_CYCLE] Error added at CPU cycle 1000495002, next at 1035091477, pending count: 1
[DRAM_CYCLE_ERROR] Cycle-based error applied! address=0x1d1bd2994 additional_latency=1990500 cycles
Heartbeat CPU 0 instructions: 680000104 cycles: 1011672121 heartbeat IPC: 0.6713 cumulative IPC: 0.6722 (Simulation time: 01 hr 51 min 56 sec)
Heartbeat CPU 0 instructions: 690000108 cycles: 1026470087 heartbeat IPC: 0.6758 cumulative IPC: 0.6722 (Simulation time: 01 hr 53 min 05 sec)
[ERROR_CYCLE] Error added at CPU cycle 1035091477, next at 1043904956, pending count: 1
[DRAM_CYCLE_ERROR] Cycle-based error applied! address=0x1383389bc0 additional_latency=1990500 cycles
Heartbeat CPU 0 instructions: 700000111 cycles: 1041262483 heartbeat IPC: 0.676 cumulative IPC: 0.6723 (Simulation time: 01 hr 54 min 17 sec)
[ERROR_CYCLE] Error added at CPU cycle 1043904957, next at 1051871016, pending count: 1
[DRAM_CYCLE_ERROR] Cycle-based error applied! address=0x7d77ff500 additional_latency=1990500 cycles
[ERROR_CYCLE] Error added at CPU cycle 1051871017, next at 1057060815, pending count: 1
[DRAM_CYCLE_ERROR] Cycle-based error applied! address=0x1525c1c3f0 additional_latency=1990500 cycles
Heartbeat CPU 0 instructions: 710000111 cycles: 1056256987 heartbeat IPC: 0.6669 cumulative IPC: 0.6722 (Simulation time: 01 hr 55 min 34 sec)
[ERROR_CYCLE] Error added at CPU cycle 1057060815, next at 1067823653, pending count: 1
[DRAM_CYCLE_ERROR] Cycle-based error applied! address=0xed65f5370 additional_latency=1990500 cycles
[ERROR_CYCLE] Error added at CPU cycle 1067823654, next at 1073330273, pending count: 1
[DRAM_CYCLE_ERROR] Cycle-based error applied! address=0x1fadb75810 additional_latency=1990500 cycles
Heartbeat CPU 0 instructions: 720000111 cycles: 1071271708 heartbeat IPC: 0.666 cumulative IPC: 0.6721 (Simulation time: 01 hr 56 min 44 sec)
[ERROR_CYCLE] Error added at CPU cycle 1073330274, next at 1073566411, pending count: 1
[DRAM_CYCLE_ERROR] Cycle-based error applied! address=0x1e514d138 additional_latency=1990500 cycles
[ERROR_CYCLE] Error added at CPU cycle 1073566411, next at 1077955936, pending count: 1
[DRAM_CYCLE_ERROR] Cycle-based error applied! address=0x1946599cd0 additional_latency=1990500 cycles
[ERROR_CYCLE] Error added at CPU cycle 1077955936, next at 1079111748, pending count: 1
[DRAM_CYCLE_ERROR] Cycle-based error applied! address=0x1317b11b78 additional_latency=1990500 cycles
[ERROR_CYCLE] Error added at CPU cycle 1079111749, next at 1096295147, pending count: 1
[DRAM_CYCLE_ERROR] Cycle-based error applied! address=0x1f5dc88478 additional_latency=1990500 cycles
Heartbeat CPU 0 instructions: 730000112 cycles: 1086042482 heartbeat IPC: 0.677 cumulative IPC: 0.6722 (Simulation time: 01 hr 57 min 59 sec)
[ERROR_CYCLE] Error added at CPU cycle 1096295148, next at 1102125947, pending count: 1
[DRAM_CYCLE_ERROR] Cycle-based error applied! address=0x206b25d40 additional_latency=1990500 cycles
Heartbeat CPU 0 instructions: 740000114 cycles: 1101017332 heartbeat IPC: 0.6678 cumulative IPC: 0.6721 (Simulation time: 01 hr 59 min 13 sec)
[ERROR_CYCLE] Error added at CPU cycle 1102125947, next at 1134433618, pending count: 1
[DRAM_CYCLE_ERROR] Cycle-based error applied! address=0x1e5088480 additional_latency=1990500 cycles
Heartbeat CPU 0 instructions: 750000115 cycles: 1115821360 heartbeat IPC: 0.6755 cumulative IPC: 0.6722 (Simulation time: 02 hr 00 min 23 sec)
Heartbeat CPU 0 instructions: 760000117 cycles: 1130769222 heartbeat IPC: 0.669 cumulative IPC: 0.6721 (Simulation time: 02 hr 01 min 37 sec)
[ERROR_CYCLE] Error added at CPU cycle 1134433619, next at 1143019798, pending count: 1
[DRAM_CYCLE_ERROR] Cycle-based error applied! address=0x83aebce78 additional_latency=1990500 cycles
[ERROR_CYCLE] Error added at CPU cycle 1143019799, next at 1144527713, pending count: 1
[DRAM_CYCLE_ERROR] Cycle-based error applied! address=0x1fadb0d260 additional_latency=1990500 cycles
[ERROR_CYCLE] Error added at CPU cycle 1144527714, next at 1147844485, pending count: 1
[DRAM_CYCLE_ERROR] Cycle-based error applied! address=0xadb23e138 additional_latency=1990500 cycles
Heartbeat CPU 0 instructions: 770000119 cycles: 1145361904 heartbeat IPC: 0.6853 cumulative IPC: 0.6723 (Simulation time: 02 hr 02 min 44 sec)
[ERROR_CYCLE] Error added at CPU cycle 1147844485, next at 1151928025, pending count: 1
[DRAM_CYCLE_ERROR] Cycle-based error applied! address=0x119a6301e8 additional_latency=1990500 cycles
[ERROR_CYCLE] Error added at CPU cycle 1151928026, next at 1164212405, pending count: 1
[DRAM_CYCLE_ERROR] Cycle-based error applied! address=0x5d4867ee0 additional_latency=1990500 cycles
Heartbeat CPU 0 instructions: 780000119 cycles: 1160291253 heartbeat IPC: 0.6698 cumulative IPC: 0.6722 (Simulation time: 02 hr 03 min 53 sec)
[ERROR_CYCLE] Error added at CPU cycle 1164212406, next at 1164864924, pending count: 1
[DRAM_CYCLE_ERROR] Cycle-based error applied! address=0x19464a9f00 additional_latency=1990500 cycles
[ERROR_CYCLE] Error added at CPU cycle 1164864924, next at 1167706555, pending count: 1
[DRAM_CYCLE_ERROR] Cycle-based error applied! address=0x1b86952770 additional_latency=1990500 cycles
[ERROR_CYCLE] Error added at CPU cycle 1167706555, next at 1176468137, pending count: 1
[DRAM_CYCLE_ERROR] Cycle-based error applied! address=0x1383284ed8 additional_latency=1990500 cycles
Heartbeat CPU 0 instructions: 790000119 cycles: 1175192573 heartbeat IPC: 0.6711 cumulative IPC: 0.6722 (Simulation time: 02 hr 05 min 03 sec)
[ERROR_CYCLE] Error added at CPU cycle 1176468137, next at 1178359731, pending count: 1
[DRAM_CYCLE_ERROR] Cycle-based error applied! address=0x1a2441eb06 additional_latency=1990500 cycles
[ERROR_CYCLE] Error added at CPU cycle 1178359731, next at 1186538523, pending count: 1
[DRAM_CYCLE_ERROR] Cycle-based error applied! address=0x1a1746e888 additional_latency=1990500 cycles
[ERROR_CYCLE] Error added at CPU cycle 1186538524, next at 1187608946, pending count: 1
[DRAM_CYCLE_ERROR] Cycle-based error applied! address=0x4295c0948 additional_latency=1990500 cycles
[ERROR_CYCLE] Error added at CPU cycle 1187608947, next at 1193860883, pending count: 1
[DRAM_CYCLE_ERROR] Cycle-based error applied! address=0x1b868aacc8 additional_latency=1990500 cycles
Heartbeat CPU 0 instructions: 800000119 cycles: 1189946175 heartbeat IPC: 0.6778 cumulative IPC: 0.6723 (Simulation time: 02 hr 06 min 16 sec)
[ERROR_CYCLE] Error added at CPU cycle 1193860883, next at 1198722524, pending count: 1
[DRAM_CYCLE_ERROR] Cycle-based error applied! address=0x4295aa950 additional_latency=1990500 cycles
[ERROR_CYCLE] Error added at CPU cycle 1198722525, next at 1200139371, pending count: 1
[DRAM_CYCLE_ERROR] Cycle-based error applied! address=0x1a245f2358 additional_latency=1990500 cycles
[ERROR_CYCLE] Error added at CPU cycle 1200139371, next at 1203745576, pending count: 1
[DRAM_CYCLE_ERROR] Cycle-based error applied! address=0xd1facacc0 additional_latency=1990500 cycles
[ERROR_CYCLE] Error added at CPU cycle 1203745577, next at 1206541145, pending count: 1
[DRAM_CYCLE_ERROR] Cycle-based error applied! address=0xadb3be008 additional_latency=1990500 cycles
Heartbeat CPU 0 instructions: 810000119 cycles: 1204707794 heartbeat IPC: 0.6774 cumulative IPC: 0.6724 (Simulation time: 02 hr 07 min 27 sec)
[ERROR_CYCLE] Error added at CPU cycle 1206541145, next at 1208784502, pending count: 1
[DRAM_CYCLE_ERROR] Cycle-based error applied! address=0x10c6fb84f8 additional_latency=1990500 cycles
[ERROR_CYCLE] Error added at CPU cycle 1208784502, next at 1232405280, pending count: 1
[DRAM_CYCLE_ERROR] Cycle-based error applied! address=0x8880f5940 additional_latency=1990500 cycles
Heartbeat CPU 0 instructions: 820000120 cycles: 1219596284 heartbeat IPC: 0.6717 cumulative IPC: 0.6724 (Simulation time: 02 hr 08 min 35 sec)
[ERROR_CYCLE] Error added at CPU cycle 1232405281, next at 1236507134, pending count: 1
[DRAM_CYCLE_ERROR] Cycle-based error applied! address=0x112c5dbb54 additional_latency=1990500 cycles
Heartbeat CPU 0 instructions: 830000122 cycles: 1234359205 heartbeat IPC: 0.6774 cumulative IPC: 0.6724 (Simulation time: 02 hr 09 min 50 sec)
[ERROR_CYCLE] Error added at CPU cycle 1236507134, next at 1244305712, pending count: 1
[DRAM_CYCLE_ERROR] Cycle-based error applied! address=0x18c8ab5a86 additional_latency=1990500 cycles
[ERROR_CYCLE] Error added at CPU cycle 1244305712, next at 1247503943, pending count: 1
[DRAM_CYCLE_ERROR] Cycle-based error applied! address=0xadb25c388 additional_latency=1990500 cycles
[ERROR_CYCLE] Error added at CPU cycle 1247503943, next at 1254600384, pending count: 1
[DRAM_CYCLE_ERROR] Cycle-based error applied! address=0x1f794eaf78 additional_latency=1990500 cycles
Heartbeat CPU 0 instructions: 840000126 cycles: 1248938416 heartbeat IPC: 0.6859 cumulative IPC: 0.6726 (Simulation time: 02 hr 11 min 00 sec)
[ERROR_CYCLE] Error added at CPU cycle 1254600384, next at 1254717674, pending count: 1
[DRAM_CYCLE_ERROR] Cycle-based error applied! address=0xd86b76d04 additional_latency=1990500 cycles
[ERROR_CYCLE] Error added at CPU cycle 1254717674, next at 1256963700, pending count: 1
[DRAM_CYCLE_ERROR] Cycle-based error applied! address=0x162e29cac8 additional_latency=1990500 cycles
[ERROR_CYCLE] Error added at CPU cycle 1256963700, next at 1257921434, pending count: 1
[DRAM_CYCLE_ERROR] Cycle-based error applied! address=0xd86b58b20 additional_latency=1990500 cycles
[ERROR_CYCLE] Error added at CPU cycle 1257921435, next at 1268455648, pending count: 1
[DRAM_CYCLE_ERROR] Cycle-based error applied! address=0xdafcc5c80 additional_latency=1990500 cycles
Heartbeat CPU 0 instructions: 850000129 cycles: 1263824139 heartbeat IPC: 0.6718 cumulative IPC: 0.6726 (Simulation time: 02 hr 12 min 10 sec)
[ERROR_CYCLE] Error added at CPU cycle 1268455648, next at 1269143707, pending count: 1
[DRAM_CYCLE_ERROR] Cycle-based error applied! address=0x5a99d2dd6 additional_latency=1990500 cycles
[ERROR_CYCLE] Error added at CPU cycle 1269143707, next at 1278558868, pending count: 1
[DRAM_CYCLE_ERROR] Cycle-based error applied! address=0x1b617c2e50 additional_latency=1990500 cycles
[ERROR_CYCLE] Error added at CPU cycle 1278558869, next at 1287946456, pending count: 1
[DRAM_CYCLE_ERROR] Cycle-based error applied! address=0x1ca58ec900 additional_latency=1990500 cycles
Heartbeat CPU 0 instructions: 860000133 cycles: 1278627615 heartbeat IPC: 0.6755 cumulative IPC: 0.6726 (Simulation time: 02 hr 13 min 18 sec)
[ERROR_CYCLE] Error added at CPU cycle 1287946456, next at 1300702152, pending count: 1
[DRAM_CYCLE_ERROR] Cycle-based error applied! address=0x4295e36c0 additional_latency=1990500 cycles
Heartbeat CPU 0 instructions: 870000136 cycles: 1293359861 heartbeat IPC: 0.6788 cumulative IPC: 0.6727 (Simulation time: 02 hr 14 min 25 sec)
[ERROR_CYCLE] Error added at CPU cycle 1300702153, next at 1309431894, pending count: 1
[DRAM_CYCLE_ERROR] Cycle-based error applied! address=0xb41f95488 additional_latency=1990500 cycles
Heartbeat CPU 0 instructions: 880000138 cycles: 1308107673 heartbeat IPC: 0.6781 cumulative IPC: 0.6727 (Simulation time: 02 hr 15 min 37 sec)
[ERROR_CYCLE] Error added at CPU cycle 1309431894, next at 1315837204, pending count: 1
[DRAM_CYCLE_ERROR] Cycle-based error applied! address=0x8ba898680 additional_latency=1990500 cycles
[ERROR_CYCLE] Error added at CPU cycle 1315837204, next at 1321488363, pending count: 1
[DRAM_CYCLE_ERROR] Cycle-based error applied! address=0x17e8722388 additional_latency=1990500 cycles
[ERROR_CYCLE] Error added at CPU cycle 1321488363, next at 1323047984, pending count: 1
[DRAM_CYCLE_ERROR] Cycle-based error applied! address=0x10c6fbc470 additional_latency=1990500 cycles
Heartbeat CPU 0 instructions: 890000138 cycles: 1322808923 heartbeat IPC: 0.6802 cumulative IPC: 0.6728 (Simulation time: 02 hr 16 min 46 sec)
[ERROR_CYCLE] Error added at CPU cycle 1323047984, next at 1325903536, pending count: 1
[DRAM_CYCLE_ERROR] Cycle-based error applied! address=0x1b92d5a498 additional_latency=1990500 cycles
[ERROR_CYCLE] Error added at CPU cycle 1325903536, next at 1326611268, pending count: 1
[DRAM_CYCLE_ERROR] Cycle-based error applied! address=0x8881b6218 additional_latency=1990500 cycles
[ERROR_CYCLE] Error added at CPU cycle 1326611268, next at 1332705889, pending count: 1
[DRAM_CYCLE_ERROR] Cycle-based error applied! address=0x15ac41ab28 additional_latency=1990500 cycles
[ERROR_CYCLE] Error added at CPU cycle 1332705890, next at 1340847840, pending count: 1
[DRAM_CYCLE_ERROR] Cycle-based error applied! address=0x16a9477d0 additional_latency=1990500 cycles
Heartbeat CPU 0 instructions: 900000142 cycles: 1337249833 heartbeat IPC: 0.6925 cumulative IPC: 0.673 (Simulation time: 02 hr 17 min 51 sec)
[ERROR_CYCLE] Error added at CPU cycle 1340847840, next at 1345469816, pending count: 1
[DRAM_CYCLE_ERROR] Cycle-based error applied! address=0x15ac413bd8 additional_latency=1990500 cycles
[ERROR_CYCLE] Error added at CPU cycle 1345469816, next at 1345959592, pending count: 1
[DRAM_CYCLE_ERROR] Cycle-based error applied! address=0x15ac53ca80 additional_latency=1990500 cycles
[ERROR_CYCLE] Error added at CPU cycle 1345959593, next at 1347625360, pending count: 1
[DRAM_CYCLE_ERROR] Cycle-based error applied! address=0xc03ebeb48 additional_latency=1990500 cycles
[ERROR_CYCLE] Error added at CPU cycle 1347625360, next at 1351706167, pending count: 1
[DRAM_CYCLE_ERROR] Cycle-based error applied! address=0x8ba956e60 additional_latency=1990500 cycles
[ERROR_CYCLE] Error added at CPU cycle 1351706167, next at 1358933144, pending count: 1
[DRAM_CYCLE_ERROR] Cycle-based error applied! address=0xe6ffcbb78 additional_latency=1990500 cycles
Heartbeat CPU 0 instructions: 910000142 cycles: 1351943752 heartbeat IPC: 0.6806 cumulative IPC: 0.6731 (Simulation time: 02 hr 18 min 58 sec)
[ERROR_CYCLE] Error added at CPU cycle 1358933144, next at 1370326360, pending count: 1
[DRAM_CYCLE_ERROR] Cycle-based error applied! address=0x13833f3298 additional_latency=1990500 cycles
Heartbeat CPU 0 instructions: 920000143 cycles: 1366730291 heartbeat IPC: 0.6763 cumulative IPC: 0.6731 (Simulation time: 02 hr 20 min 05 sec)
[ERROR_CYCLE] Error added at CPU cycle 1370326360, next at 1379014015, pending count: 1
[DRAM_CYCLE_ERROR] Cycle-based error applied! address=0xadb253068 additional_latency=1990500 cycles
[ERROR_CYCLE] Error added at CPU cycle 1379014016, next at 1379564513, pending count: 1
[DRAM_CYCLE_ERROR] Cycle-based error applied! address=0x103d2a6ac0 additional_latency=1990500 cycles
[ERROR_CYCLE] Error added at CPU cycle 1379564514, next at 1386176235, pending count: 1
[DRAM_CYCLE_ERROR] Cycle-based error applied! address=0xdafcb6058 additional_latency=1990500 cycles
Heartbeat CPU 0 instructions: 930000144 cycles: 1381133841 heartbeat IPC: 0.6943 cumulative IPC: 0.6734 (Simulation time: 02 hr 21 min 11 sec)
[ERROR_CYCLE] Error added at CPU cycle 1386176235, next at 1386297657, pending count: 1
[DRAM_CYCLE_ERROR] Cycle-based error applied! address=0x1e90730558 additional_latency=1990500 cycles
[ERROR_CYCLE] Error added at CPU cycle 1386297657, next at 1408852266, pending count: 1
[DRAM_CYCLE_ERROR] Cycle-based error applied! address=0x138faae740 additional_latency=1990500 cycles
Heartbeat CPU 0 instructions: 940000145 cycles: 1395552476 heartbeat IPC: 0.6935 cumulative IPC: 0.6736 (Simulation time: 02 hr 22 min 18 sec)
[ERROR_CYCLE] Error added at CPU cycle 1408852267, next at 1434518356, pending count: 1
[DRAM_CYCLE_ERROR] Cycle-based error applied! address=0x13ddabdbf8 additional_latency=1990500 cycles
Heartbeat CPU 0 instructions: 950000146 cycles: 1410312807 heartbeat IPC: 0.6775 cumulative IPC: 0.6736 (Simulation time: 02 hr 23 min 25 sec)
Heartbeat CPU 0 instructions: 960000149 cycles: 1424980091 heartbeat IPC: 0.6818 cumulative IPC: 0.6737 (Simulation time: 02 hr 24 min 30 sec)
[ERROR_CYCLE] Error added at CPU cycle 1434518357, next at 1435050701, pending count: 1
[DRAM_CYCLE_ERROR] Cycle-based error applied! address=0x5a98e9248 additional_latency=1990500 cycles
[ERROR_CYCLE] Error added at CPU cycle 1435050702, next at 1438242552, pending count: 1
[DRAM_CYCLE_ERROR] Cycle-based error applied! address=0x1fe35b8070 additional_latency=1990500 cycles
[ERROR_CYCLE] Error added at CPU cycle 1438242552, next at 1439973246, pending count: 1
[DRAM_CYCLE_ERROR] Cycle-based error applied! address=0x4295425e0 additional_latency=1990500 cycles
Heartbeat CPU 0 instructions: 970000151 cycles: 1439757794 heartbeat IPC: 0.6767 cumulative IPC: 0.6737 (Simulation time: 02 hr 25 min 37 sec)
[ERROR_CYCLE] Error added at CPU cycle 1439973247, next at 1453079371, pending count: 1
[DRAM_CYCLE_ERROR] Cycle-based error applied! address=0x1f5ddf9140 additional_latency=1990500 cycles
[ERROR_CYCLE] Error added at CPU cycle 1453079372, next at 1460423027, pending count: 1
[DRAM_CYCLE_ERROR] Cycle-based error applied! address=0x9ae63d0d0 additional_latency=1990500 cycles
Heartbeat CPU 0 instructions: 980000151 cycles: 1454296784 heartbeat IPC: 0.6878 cumulative IPC: 0.6739 (Simulation time: 02 hr 26 min 42 sec)
[ERROR_CYCLE] Error added at CPU cycle 1460423028, next at 1467814764, pending count: 1
[DRAM_CYCLE_ERROR] Cycle-based error applied! address=0xdafcc4db0 additional_latency=1990500 cycles
[ERROR_CYCLE] Error added at CPU cycle 1467814764, next at 1475620213, pending count: 1
[DRAM_CYCLE_ERROR] Cycle-based error applied! address=0x14e3d43870 additional_latency=1990500 cycles
Heartbeat CPU 0 instructions: 990000152 cycles: 1469060116 heartbeat IPC: 0.6774 cumulative IPC: 0.6739 (Simulation time: 02 hr 27 min 49 sec)
[ERROR_CYCLE] Error added at CPU cycle 1475620214, next at 1480513243, pending count: 1
[DRAM_CYCLE_ERROR] Cycle-based error applied! address=0xadb3836e1 additional_latency=1990500 cycles
[ERROR_CYCLE] Error added at CPU cycle 1480513244, next at 1511248733, pending count: 1
[DRAM_CYCLE_ERROR] Cycle-based error applied! address=0x16a993598 additional_latency=1990500 cycles
Heartbeat CPU 0 instructions: 1000000155 cycles: 1483839027 heartbeat IPC: 0.6766 cumulative IPC: 0.6739 (Simulation time: 02 hr 28 min 55 sec)
Heartbeat CPU 0 instructions: 1010000157 cycles: 1498449581 heartbeat IPC: 0.6844 cumulative IPC: 0.674 (Simulation time: 02 hr 30 min 02 sec)
[ERROR_CYCLE] Error added at CPU cycle 1511248733, next at 1514446758, pending count: 1
[DRAM_CYCLE_ERROR] Cycle-based error applied! address=0x11f3773031 additional_latency=1990500 cycles
Heartbeat CPU 0 instructions: 1020000158 cycles: 1513244571 heartbeat IPC: 0.6759 cumulative IPC: 0.674 (Simulation time: 02 hr 31 min 09 sec)
[ERROR_CYCLE] Error added at CPU cycle 1514446758, next at 1515078884, pending count: 1
[DRAM_CYCLE_ERROR] Cycle-based error applied! address=0x138fa67e40 additional_latency=1990500 cycles
[ERROR_CYCLE] Error added at CPU cycle 1515078885, next at 1517294807, pending count: 1
[DRAM_CYCLE_ERROR] Cycle-based error applied! address=0x1b2d95928 additional_latency=1990500 cycles
[ERROR_CYCLE] Error added at CPU cycle 1517294807, next at 1519651159, pending count: 1
[DRAM_CYCLE_ERROR] Cycle-based error applied! address=0xdafcc90a0 additional_latency=1990500 cycles
[ERROR_CYCLE] Error added at CPU cycle 1519651159, next at 1533218412, pending count: 1
[DRAM_CYCLE_ERROR] Cycle-based error applied! address=0xd86a4e738 additional_latency=1990500 cycles
Heartbeat CPU 0 instructions: 1030000159 cycles: 1527961795 heartbeat IPC: 0.6795 cumulative IPC: 0.6741 (Simulation time: 02 hr 32 min 15 sec)
[ERROR_CYCLE] Error added at CPU cycle 1533218412, next at 1535994456, pending count: 1
[DRAM_CYCLE_ERROR] Cycle-based error applied! address=0x11f3780b68 additional_latency=1990500 cycles
[ERROR_CYCLE] Error added at CPU cycle 1535994457, next at 1562717751, pending count: 1
[DRAM_CYCLE_ERROR] Cycle-based error applied! address=0x8880589f8 additional_latency=1990500 cycles
Heartbeat CPU 0 instructions: 1040000159 cycles: 1542661928 heartbeat IPC: 0.6803 cumulative IPC: 0.6742 (Simulation time: 02 hr 33 min 21 sec)
Heartbeat CPU 0 instructions: 1050000161 cycles: 1557180707 heartbeat IPC: 0.6888 cumulative IPC: 0.6743 (Simulation time: 02 hr 34 min 27 sec)
[ERROR_CYCLE] Error added at CPU cycle 1562717751, next at 1566368072, pending count: 1
[DRAM_CYCLE_ERROR] Cycle-based error applied! address=0x1b616758d0 additional_latency=1990500 cycles
[ERROR_CYCLE] Error added at CPU cycle 1566368073, next at 1571530525, pending count: 1
[DRAM_CYCLE_ERROR] Cycle-based error applied! address=0x13b4d06700 additional_latency=1990500 cycles
[ERROR_CYCLE] Error added at CPU cycle 1571530526, next at 1580555846, pending count: 1
[DRAM_CYCLE_ERROR] Cycle-based error applied! address=0xa43892500 additional_latency=1990500 cycles
Heartbeat CPU 0 instructions: 1060000161 cycles: 1571676337 heartbeat IPC: 0.6899 cumulative IPC: 0.6744 (Simulation time: 02 hr 35 min 32 sec)
[ERROR_CYCLE] Error added at CPU cycle 1580555846, next at 1582872549, pending count: 1
[DRAM_CYCLE_ERROR] Cycle-based error applied! address=0x206b53598 additional_latency=1990500 cycles
[ERROR_CYCLE] Error added at CPU cycle 1582872550, next at 1599922964, pending count: 1
[DRAM_CYCLE_ERROR] Cycle-based error applied! address=0x3e8569408 additional_latency=1990500 cycles
Heartbeat CPU 0 instructions: 1070000165 cycles: 1586194246 heartbeat IPC: 0.6888 cumulative IPC: 0.6746 (Simulation time: 02 hr 36 min 37 sec)
[ERROR_CYCLE] Error added at CPU cycle 1599922964, next at 1631974949, pending count: 1
[DRAM_CYCLE_ERROR] Cycle-based error applied! address=0x1c7883ca46 additional_latency=1990500 cycles
Heartbeat CPU 0 instructions: 1080000166 cycles: 1601000117 heartbeat IPC: 0.6754 cumulative IPC: 0.6746 (Simulation time: 02 hr 37 min 43 sec)
Heartbeat CPU 0 instructions: 1090000166 cycles: 1615652115 heartbeat IPC: 0.6825 cumulative IPC: 0.6747 (Simulation time: 02 hr 38 min 49 sec)
Heartbeat CPU 0 instructions: 1100000166 cycles: 1629996013 heartbeat IPC: 0.6972 cumulative IPC: 0.6748 (Simulation time: 02 hr 39 min 54 sec)
[ERROR_CYCLE] Error added at CPU cycle 1631974950, next at 1633180686, pending count: 1
[DRAM_CYCLE_ERROR] Cycle-based error applied! address=0xa43916430 additional_latency=1990500 cycles
[ERROR_CYCLE] Error added at CPU cycle 1633180686, next at 1638048642, pending count: 1
[DRAM_CYCLE_ERROR] Cycle-based error applied! address=0xee7c854e0 additional_latency=1990500 cycles
[ERROR_CYCLE] Error added at CPU cycle 1638048642, next at 1645854556, pending count: 1
[DRAM_CYCLE_ERROR] Cycle-based error applied! address=0x1946516014 additional_latency=1990500 cycles
Heartbeat CPU 0 instructions: 1110000166 cycles: 1644708962 heartbeat IPC: 0.6797 cumulative IPC: 0.6749 (Simulation time: 02 hr 41 min 00 sec)
[ERROR_CYCLE] Error added at CPU cycle 1645854557, next at 1648355040, pending count: 1
[DRAM_CYCLE_ERROR] Cycle-based error applied! address=0x10c6e9b678 additional_latency=1990500 cycles
[ERROR_CYCLE] Error added at CPU cycle 1648355040, next at 1665069057, pending count: 1
[DRAM_CYCLE_ERROR] Cycle-based error applied! address=0x8881ca900 additional_latency=1990500 cycles
Heartbeat CPU 0 instructions: 1120000168 cycles: 1659198164 heartbeat IPC: 0.6902 cumulative IPC: 0.675 (Simulation time: 02 hr 42 min 05 sec)
[ERROR_CYCLE] Error added at CPU cycle 1665069058, next at 1669208916, pending count: 1
[DRAM_CYCLE_ERROR] Cycle-based error applied! address=0xdafcbe9e0 additional_latency=1990500 cycles
[ERROR_CYCLE] Error added at CPU cycle 1669208917, next at 1697675054, pending count: 1
[DRAM_CYCLE_ERROR] Cycle-based error applied! address=0xc03f2bc16 additional_latency=1990500 cycles
Heartbeat CPU 0 instructions: 1130000172 cycles: 1673974922 heartbeat IPC: 0.6767 cumulative IPC: 0.675 (Simulation time: 02 hr 43 min 11 sec)
Heartbeat CPU 0 instructions: 1140000176 cycles: 1688453756 heartbeat IPC: 0.6907 cumulative IPC: 0.6752 (Simulation time: 02 hr 44 min 17 sec)
[ERROR_CYCLE] Error added at CPU cycle 1697675055, next at 1701675293, pending count: 1
[DRAM_CYCLE_ERROR] Cycle-based error applied! address=0x16c413c670 additional_latency=1990500 cycles
[ERROR_CYCLE] Error added at CPU cycle 1701675294, next at 1708716282, pending count: 1
[DRAM_CYCLE_ERROR] Cycle-based error applied! address=0x1efacf0304 additional_latency=1990500 cycles
Heartbeat CPU 0 instructions: 1150000177 cycles: 1702905739 heartbeat IPC: 0.6919 cumulative IPC: 0.6753 (Simulation time: 02 hr 45 min 22 sec)
[ERROR_CYCLE] Error added at CPU cycle 1708716282, next at 1709439797, pending count: 1
[DRAM_CYCLE_ERROR] Cycle-based error applied! address=0x186415b16 additional_latency=1990500 cycles
[ERROR_CYCLE] Error added at CPU cycle 1709439798, next at 1711563017, pending count: 1
[DRAM_CYCLE_ERROR] Cycle-based error applied! address=0xd86bfe268 additional_latency=1990500 cycles
[ERROR_CYCLE] Error added at CPU cycle 1711563017, next at 1715003487, pending count: 1
[DRAM_CYCLE_ERROR] Cycle-based error applied! address=0x1e5157698 additional_latency=1990500 cycles
[ERROR_CYCLE] Error added at CPU cycle 1715003488, next at 1715066771, pending count: 1
[DRAM_CYCLE_ERROR] Cycle-based error applied! address=0xdafccfdc0 additional_latency=1990500 cycles
[ERROR_CYCLE] Error added at CPU cycle 1715066772, next at 1736135364, pending count: 1
[DRAM_CYCLE_ERROR] Cycle-based error applied! address=0x145cfc1cb0 additional_latency=1990500 cycles
Heartbeat CPU 0 instructions: 1160000181 cycles: 1717444300 heartbeat IPC: 0.6878 cumulative IPC: 0.6754 (Simulation time: 02 hr 46 min 27 sec)
Heartbeat CPU 0 instructions: 1170000181 cycles: 1732102317 heartbeat IPC: 0.6822 cumulative IPC: 0.6755 (Simulation time: 02 hr 47 min 33 sec)
[ERROR_CYCLE] Error added at CPU cycle 1736135365, next at 1736452711, pending count: 1
[DRAM_CYCLE_ERROR] Cycle-based error applied! address=0x1389e6b858 additional_latency=1990500 cycles
[ERROR_CYCLE] Error added at CPU cycle 1736452711, next at 1756027423, pending count: 1
[DRAM_CYCLE_ERROR] Cycle-based error applied! address=0x13832a4478 additional_latency=1990500 cycles
Heartbeat CPU 0 instructions: 1180000184 cycles: 1746597632 heartbeat IPC: 0.6899 cumulative IPC: 0.6756 (Simulation time: 02 hr 48 min 39 sec)
[ERROR_CYCLE] Error added at CPU cycle 1756027423, next at 1763549234, pending count: 1
[DRAM_CYCLE_ERROR] Cycle-based error applied! address=0x16c4f329c8 additional_latency=1990500 cycles
Heartbeat CPU 0 instructions: 1190000185 cycles: 1761378312 heartbeat IPC: 0.6766 cumulative IPC: 0.6756 (Simulation time: 02 hr 49 min 43 sec)
[ERROR_CYCLE] Error added at CPU cycle 1763549234, next at 1773768970, pending count: 1
[DRAM_CYCLE_ERROR] Cycle-based error applied! address=0x191e6fa570 additional_latency=1990500 cycles
[ERROR_CYCLE] Error added at CPU cycle 1773768971, next at 1778443844, pending count: 1
[DRAM_CYCLE_ERROR] Cycle-based error applied! address=0xc03f02608 additional_latency=1990500 cycles
Heartbeat CPU 0 instructions: 1200000186 cycles: 1776000215 heartbeat IPC: 0.6839 cumulative IPC: 0.6757 (Simulation time: 02 hr 50 min 49 sec)
[ERROR_CYCLE] Error added at CPU cycle 1778443844, next at 1782835365, pending count: 1
[DRAM_CYCLE_ERROR] Cycle-based error applied! address=0x480d3f660 additional_latency=1990500 cycles
[ERROR_CYCLE] Error added at CPU cycle 1782835365, next at 1785615858, pending count: 1
[DRAM_CYCLE_ERROR] Cycle-based error applied! address=0x1412400c0 additional_latency=1990500 cycles
[ERROR_CYCLE] Error added at CPU cycle 1785615859, next at 1788412747, pending count: 1
[DRAM_CYCLE_ERROR] Cycle-based error applied! address=0x1ca59598e8 additional_latency=1990500 cycles
[ERROR_CYCLE] Error added at CPU cycle 1788412747, next at 1790117615, pending count: 1
[DRAM_CYCLE_ERROR] Cycle-based error applied! address=0x103d314d80 additional_latency=1990500 cycles
[ERROR_CYCLE] Error added at CPU cycle 1790117615, next at 1798464365, pending count: 1
[DRAM_CYCLE_ERROR] Cycle-based error applied! address=0x119a70b830 additional_latency=1990500 cycles
Heartbeat CPU 0 instructions: 1210000189 cycles: 1790583919 heartbeat IPC: 0.6857 cumulative IPC: 0.6758 (Simulation time: 02 hr 51 min 54 sec)
[ERROR_CYCLE] Error added at CPU cycle 1798464365, next at 1814844775, pending count: 1
[DRAM_CYCLE_ERROR] Cycle-based error applied! address=0x18646c820 additional_latency=1990500 cycles
Heartbeat CPU 0 instructions: 1220000191 cycles: 1805179517 heartbeat IPC: 0.6851 cumulative IPC: 0.6758 (Simulation time: 02 hr 53 min 00 sec)
[ERROR_CYCLE] Error added at CPU cycle 1814844776, next at 1830785667, pending count: 1
[DRAM_CYCLE_ERROR] Cycle-based error applied! address=0x94c2e7320 additional_latency=1990500 cycles
Heartbeat CPU 0 instructions: 1230000191 cycles: 1819798275 heartbeat IPC: 0.6841 cumulative IPC: 0.6759 (Simulation time: 02 hr 54 min 04 sec)
[ERROR_CYCLE] Error added at CPU cycle 1830785668, next at 1835439145, pending count: 1
[DRAM_CYCLE_ERROR] Cycle-based error applied! address=0xd86b25d00 additional_latency=1990500 cycles
Heartbeat CPU 0 instructions: 1240000192 cycles: 1834337114 heartbeat IPC: 0.6878 cumulative IPC: 0.676 (Simulation time: 02 hr 55 min 09 sec)
[ERROR_CYCLE] Error added at CPU cycle 1835439146, next at 1836059153, pending count: 1
[DRAM_CYCLE_ERROR] Cycle-based error applied! address=0x162e260ee0 additional_latency=1990500 cycles
[ERROR_CYCLE] Error added at CPU cycle 1836059154, next at 1837493634, pending count: 1
[DRAM_CYCLE_ERROR] Cycle-based error applied! address=0x1e90667568 additional_latency=1990500 cycles
[ERROR_CYCLE] Error added at CPU cycle 1837493635, next at 1844607626, pending count: 1
[DRAM_CYCLE_ERROR] Cycle-based error applied! address=0x1f03d43ee8 additional_latency=1990500 cycles
[ERROR_CYCLE] Error added at CPU cycle 1844607626, next at 1854071328, pending count: 1
[DRAM_CYCLE_ERROR] Cycle-based error applied! address=0x186115bf60 additional_latency=1990500 cycles
Heartbeat CPU 0 instructions: 1250000193 cycles: 1848972227 heartbeat IPC: 0.6833 cumulative IPC: 0.6761 (Simulation time: 02 hr 56 min 14 sec)
[ERROR_CYCLE] Error added at CPU cycle 1854071328, next at 1855472322, pending count: 1
[DRAM_CYCLE_ERROR] Cycle-based error applied! address=0x162e35b300 additional_latency=1990500 cycles
[ERROR_CYCLE] Error added at CPU cycle 1855472323, next at 1857304410, pending count: 1
[DRAM_CYCLE_ERROR] Cycle-based error applied! address=0xc454fa4c8 additional_latency=1990500 cycles
[ERROR_CYCLE] Error added at CPU cycle 1857304410, next at 1862584605, pending count: 1
[DRAM_CYCLE_ERROR] Cycle-based error applied! address=0x18c8b08348 additional_latency=1990500 cycles
[ERROR_CYCLE] Error added at CPU cycle 1862584605, next at 1864393960, pending count: 1
[DRAM_CYCLE_ERROR] Cycle-based error applied! address=0x1b92c30e09 additional_latency=1990500 cycles
Heartbeat CPU 0 instructions: 1260000195 cycles: 1863547246 heartbeat IPC: 0.6861 cumulative IPC: 0.6761 (Simulation time: 02 hr 57 min 19 sec)
[ERROR_CYCLE] Error added at CPU cycle 1864393960, next at 1864933537, pending count: 1
[DRAM_CYCLE_ERROR] Cycle-based error applied! address=0x19465079d8 additional_latency=1990500 cycles
[ERROR_CYCLE] Error added at CPU cycle 1864933537, next at 1865851525, pending count: 1
[DRAM_CYCLE_ERROR] Cycle-based error applied! address=0x1fed780a00 additional_latency=1990500 cycles
[ERROR_CYCLE] Error added at CPU cycle 1865851526, next at 1867251092, pending count: 1
[DRAM_CYCLE_ERROR] Cycle-based error applied! address=0x1e907e94b0 additional_latency=1990500 cycles
[ERROR_CYCLE] Error added at CPU cycle 1867251092, next at 1900500575, pending count: 1
[DRAM_CYCLE_ERROR] Cycle-based error applied! address=0x191e6c1410 additional_latency=1990500 cycles
Heartbeat CPU 0 instructions: 1270000195 cycles: 1878083455 heartbeat IPC: 0.6879 cumulative IPC: 0.6762 (Simulation time: 02 hr 58 min 23 sec)
Heartbeat CPU 0 instructions: 1280000195 cycles: 1892704732 heartbeat IPC: 0.6839 cumulative IPC: 0.6763 (Simulation time: 02 hr 59 min 28 sec)
[ERROR_CYCLE] Error added at CPU cycle 1900500576, next at 1910563094, pending count: 1
[DRAM_CYCLE_ERROR] Cycle-based error applied! address=0xed64eed10 additional_latency=1990500 cycles
Heartbeat CPU 0 instructions: 1290000198 cycles: 1907446027 heartbeat IPC: 0.6784 cumulative IPC: 0.6763 (Simulation time: 03 hr 00 min 32 sec)
[ERROR_CYCLE] Error added at CPU cycle 1910563095, next at 1915408338, pending count: 1
[DRAM_CYCLE_ERROR] Cycle-based error applied! address=0xdafcc73f0 additional_latency=1990500 cycles
[ERROR_CYCLE] Error added at CPU cycle 1915408338, next at 1935312457, pending count: 1
[DRAM_CYCLE_ERROR] Cycle-based error applied! address=0xb41f95438 additional_latency=1990500 cycles
Heartbeat CPU 0 instructions: 1300000199 cycles: 1921943542 heartbeat IPC: 0.6898 cumulative IPC: 0.6764 (Simulation time: 03 hr 01 min 36 sec)
[ERROR_CYCLE] Error added at CPU cycle 1935312457, next at 1939316428, pending count: 1
[DRAM_CYCLE_ERROR] Cycle-based error applied! address=0x18f92e4c50 additional_latency=1990500 cycles
Heartbeat CPU 0 instructions: 1310000199 cycles: 1936361909 heartbeat IPC: 0.6936 cumulative IPC: 0.6765 (Simulation time: 03 hr 02 min 40 sec)
[ERROR_CYCLE] Error added at CPU cycle 1939316429, next at 1943440983, pending count: 1
[DRAM_CYCLE_ERROR] Cycle-based error applied! address=0xd1facf2f0 additional_latency=1990500 cycles
[ERROR_CYCLE] Error added at CPU cycle 1943440984, next at 1969741263, pending count: 1
[DRAM_CYCLE_ERROR] Cycle-based error applied! address=0x1e516a2d0 additional_latency=1990500 cycles
Heartbeat CPU 0 instructions: 1320000200 cycles: 1951063094 heartbeat IPC: 0.6802 cumulative IPC: 0.6766 (Simulation time: 03 hr 03 min 43 sec)
Heartbeat CPU 0 instructions: 1330000200 cycles: 1965556650 heartbeat IPC: 0.69 cumulative IPC: 0.6767 (Simulation time: 03 hr 04 min 45 sec)
[ERROR_CYCLE] Error added at CPU cycle 1969741263, next at 1976892412, pending count: 1
[DRAM_CYCLE_ERROR] Cycle-based error applied! address=0x1b617a9488 additional_latency=1990500 cycles
[ERROR_CYCLE] Error added at CPU cycle 1976892413, next at 1985788570, pending count: 1
[DRAM_CYCLE_ERROR] Cycle-based error applied! address=0x1b867b6ef0 additional_latency=1990500 cycles
Heartbeat CPU 0 instructions: 1340000202 cycles: 1980123536 heartbeat IPC: 0.6865 cumulative IPC: 0.6767 (Simulation time: 03 hr 05 min 48 sec)
[ERROR_CYCLE] Error added at CPU cycle 1985788571, next at 1987556565, pending count: 1
[DRAM_CYCLE_ERROR] Cycle-based error applied! address=0xcf7ce4f40 additional_latency=1990500 cycles
[ERROR_CYCLE] Error added at CPU cycle 1987556566, next at 1990261281, pending count: 1
[DRAM_CYCLE_ERROR] Cycle-based error applied! address=0x1b7122cf0 additional_latency=1990500 cycles
[ERROR_CYCLE] Error added at CPU cycle 1990261282, next at 1993701914, pending count: 1
[DRAM_CYCLE_ERROR] Cycle-based error applied! address=0x1b867b1910 additional_latency=1990500 cycles
[ERROR_CYCLE] Error added at CPU cycle 1993701914, next at 2004551432, pending count: 1
[DRAM_CYCLE_ERROR] Cycle-based error applied! address=0x19355f95a0 additional_latency=1990500 cycles
Heartbeat CPU 0 instructions: 1350000205 cycles: 1994816892 heartbeat IPC: 0.6806 cumulative IPC: 0.6768 (Simulation time: 03 hr 06 min 51 sec)
[ERROR_CYCLE] Error added at CPU cycle 2004551432, next at 2012423380, pending count: 1
[DRAM_CYCLE_ERROR] Cycle-based error applied! address=0x119a62ed58 additional_latency=1990500 cycles
Heartbeat CPU 0 instructions: 1360000205 cycles: 2009183143 heartbeat IPC: 0.6961 cumulative IPC: 0.6769 (Simulation time: 03 hr 07 min 52 sec)
[ERROR_CYCLE] Error added at CPU cycle 2012423380, next at 2016554019, pending count: 1
[DRAM_CYCLE_ERROR] Cycle-based error applied! address=0x138fb90a80 additional_latency=1990500 cycles
[ERROR_CYCLE] Error added at CPU cycle 2016554019, next at 2021582144, pending count: 1
[DRAM_CYCLE_ERROR] Cycle-based error applied! address=0x17e869a048 additional_latency=1990500 cycles
[ERROR_CYCLE] Error added at CPU cycle 2021582145, next at 2027830179, pending count: 1
[DRAM_CYCLE_ERROR] Cycle-based error applied! address=0x18c8a36af9 additional_latency=1990500 cycles
Heartbeat CPU 0 instructions: 1370000207 cycles: 2023840545 heartbeat IPC: 0.6822 cumulative IPC: 0.6769 (Simulation time: 03 hr 08 min 56 sec)
[ERROR_CYCLE] Error added at CPU cycle 2027830180, next at 2031708010, pending count: 1
[DRAM_CYCLE_ERROR] Cycle-based error applied! address=0x1fe3483c30 additional_latency=1990500 cycles
[ERROR_CYCLE] Error added at CPU cycle 2031708011, next at 2033085878, pending count: 1
[DRAM_CYCLE_ERROR] Cycle-based error applied! address=0x7d76cd680 additional_latency=1990500 cycles
[ERROR_CYCLE] Error added at CPU cycle 2033085879, next at 2050412514, pending count: 1
[DRAM_CYCLE_ERROR] Cycle-based error applied! address=0x119a60b468 additional_latency=1990500 cycles
Heartbeat CPU 0 instructions: 1380000207 cycles: 2038522166 heartbeat IPC: 0.6811 cumulative IPC: 0.677 (Simulation time: 03 hr 10 min 02 sec)
[ERROR_CYCLE] Error added at CPU cycle 2050412514, next at 2059398746, pending count: 1
[DRAM_CYCLE_ERROR] Cycle-based error applied! address=0x28de962c8 additional_latency=1990500 cycles
Heartbeat CPU 0 instructions: 1390000207 cycles: 2053188859 heartbeat IPC: 0.6818 cumulative IPC: 0.677 (Simulation time: 03 hr 11 min 06 sec)
[ERROR_CYCLE] Error added at CPU cycle 2059398746, next at 2067629437, pending count: 1
[DRAM_CYCLE_ERROR] Cycle-based error applied! address=0x83aff24a0 additional_latency=1990500 cycles
[ERROR_CYCLE] Error added at CPU cycle 2067629437, next at 2106934259, pending count: 1
[DRAM_CYCLE_ERROR] Cycle-based error applied! address=0x1b6174a8f0 additional_latency=1990500 cycles
Heartbeat CPU 0 instructions: 1400000207 cycles: 2067712107 heartbeat IPC: 0.6886 cumulative IPC: 0.6771 (Simulation time: 03 hr 12 min 10 sec)
Heartbeat CPU 0 instructions: 1410000207 cycles: 2082381167 heartbeat IPC: 0.6817 cumulative IPC: 0.6771 (Simulation time: 03 hr 13 min 15 sec)
Heartbeat CPU 0 instructions: 1420000207 cycles: 2097142803 heartbeat IPC: 0.6774 cumulative IPC: 0.6771 (Simulation time: 03 hr 14 min 18 sec)
[ERROR_CYCLE] Error added at CPU cycle 2106934259, next at 2110315627, pending count: 1
[DRAM_CYCLE_ERROR] Cycle-based error applied! address=0x8d624cf70 additional_latency=1990500 cycles
[ERROR_CYCLE] Error added at CPU cycle 2110315627, next at 2118569518, pending count: 1
[DRAM_CYCLE_ERROR] Cycle-based error applied! address=0x14124df20 additional_latency=1990500 cycles
Heartbeat CPU 0 instructions: 1430000211 cycles: 2111848768 heartbeat IPC: 0.68 cumulative IPC: 0.6771 (Simulation time: 03 hr 15 min 22 sec)
[ERROR_CYCLE] Error added at CPU cycle 2118569518, next at 2119210001, pending count: 1
[DRAM_CYCLE_ERROR] Cycle-based error applied! address=0xadb2a3dc0 additional_latency=1990500 cycles
[ERROR_CYCLE] Error added at CPU cycle 2119210001, next at 2124520168, pending count: 1
[DRAM_CYCLE_ERROR] Cycle-based error applied! address=0x138fbc4b18 additional_latency=1990500 cycles
[ERROR_CYCLE] Error added at CPU cycle 2124520168, next at 2130820746, pending count: 1
[DRAM_CYCLE_ERROR] Cycle-based error applied! address=0x1ef4ffd420 additional_latency=1990500 cycles
Heartbeat CPU 0 instructions: 1440000213 cycles: 2126684227 heartbeat IPC: 0.6741 cumulative IPC: 0.6771 (Simulation time: 03 hr 16 min 27 sec)
[ERROR_CYCLE] Error added at CPU cycle 2130820746, next at 2149422911, pending count: 1
[DRAM_CYCLE_ERROR] Cycle-based error applied! address=0x9ae63fb60 additional_latency=1990500 cycles
Heartbeat CPU 0 instructions: 1450000215 cycles: 2140993112 heartbeat IPC: 0.6989 cumulative IPC: 0.6773 (Simulation time: 03 hr 17 min 30 sec)
[ERROR_CYCLE] Error added at CPU cycle 2149422912, next at 2165592258, pending count: 1
[DRAM_CYCLE_ERROR] Cycle-based error applied! address=0x100ea38e0 additional_latency=1990500 cycles
Heartbeat CPU 0 instructions: 1460000218 cycles: 2155645006 heartbeat IPC: 0.6825 cumulative IPC: 0.6773 (Simulation time: 03 hr 18 min 33 sec)
[ERROR_CYCLE] Error added at CPU cycle 2165592259, next at 2166000139, pending count: 1
[DRAM_CYCLE_ERROR] Cycle-based error applied! address=0x1f7942eba0 additional_latency=1990500 cycles
[ERROR_CYCLE] Error added at CPU cycle 2166000139, next at 2169428774, pending count: 1
[DRAM_CYCLE_ERROR] Cycle-based error applied! address=0x1b616f8b50 additional_latency=1990500 cycles
[ERROR_CYCLE] Error added at CPU cycle 2169428774, next at 2177935414, pending count: 1
[DRAM_CYCLE_ERROR] Cycle-based error applied! address=0x1556a92588 additional_latency=1990500 cycles
Heartbeat CPU 0 instructions: 1470000218 cycles: 2170148955 heartbeat IPC: 0.6895 cumulative IPC: 0.6774 (Simulation time: 03 hr 19 min 37 sec)
[ERROR_CYCLE] Error added at CPU cycle 2177935415, next at 2187353454, pending count: 1
[DRAM_CYCLE_ERROR] Cycle-based error applied! address=0x15ac481548 additional_latency=1990500 cycles
Heartbeat CPU 0 instructions: 1480000218 cycles: 2184732176 heartbeat IPC: 0.6857 cumulative IPC: 0.6774 (Simulation time: 03 hr 20 min 38 sec)
[ERROR_CYCLE] Error added at CPU cycle 2187353454, next at 2210064718, pending count: 1
[DRAM_CYCLE_ERROR] Cycle-based error applied! address=0x6460c8800 additional_latency=1990500 cycles
Heartbeat CPU 0 instructions: 1490000222 cycles: 2199273333 heartbeat IPC: 0.6877 cumulative IPC: 0.6775 (Simulation time: 03 hr 21 min 41 sec)
[ERROR_CYCLE] Error added at CPU cycle 2210064719, next at 2214888135, pending count: 1
[DRAM_CYCLE_ERROR] Cycle-based error applied! address=0xdafccc590 additional_latency=1990500 cycles
Heartbeat CPU 0 instructions: 1500000226 cycles: 2213893996 heartbeat IPC: 0.684 cumulative IPC: 0.6775 (Simulation time: 03 hr 22 min 45 sec)
[ERROR_CYCLE] Error added at CPU cycle 2214888136, next at 2227682588, pending count: 1
[DRAM_CYCLE_ERROR] Cycle-based error applied! address=0x14133d650 additional_latency=1990500 cycles
[ERROR_CYCLE] Error added at CPU cycle 2227682589, next at 2233464834, pending count: 1
[DRAM_CYCLE_ERROR] Cycle-based error applied! address=0xe6fe17b98 additional_latency=1990500 cycles
Heartbeat CPU 0 instructions: 1510000228 cycles: 2228530744 heartbeat IPC: 0.6832 cumulative IPC: 0.6776 (Simulation time: 03 hr 23 min 47 sec)
[ERROR_CYCLE] Error added at CPU cycle 2233464834, next at 2241434258, pending count: 1
[DRAM_CYCLE_ERROR] Cycle-based error applied! address=0x15b50ffaf8 additional_latency=1990500 cycles
[ERROR_CYCLE] Error added at CPU cycle 2241434259, next at 2241811042, pending count: 1
[DRAM_CYCLE_ERROR] Cycle-based error applied! address=0x112c5821c8 additional_latency=1990500 cycles
[ERROR_CYCLE] Error added at CPU cycle 2241811042, next at 2244262384, pending count: 1
[DRAM_CYCLE_ERROR] Cycle-based error applied! address=0xee7db74f6 additional_latency=1990500 cycles
Heartbeat CPU 0 instructions: 1520000228 cycles: 2243161110 heartbeat IPC: 0.6835 cumulative IPC: 0.6776 (Simulation time: 03 hr 24 min 51 sec)
[ERROR_CYCLE] Error added at CPU cycle 2244262384, next at 2247145011, pending count: 1
[DRAM_CYCLE_ERROR] Cycle-based error applied! address=0x10c6e70738 additional_latency=1990500 cycles
[ERROR_CYCLE] Error added at CPU cycle 2247145011, next at 2253047404, pending count: 1
[DRAM_CYCLE_ERROR] Cycle-based error applied! address=0x1e004800d0 additional_latency=1990500 cycles
[ERROR_CYCLE] Error added at CPU cycle 2253047405, next at 2261281241, pending count: 1
[DRAM_CYCLE_ERROR] Cycle-based error applied! address=0xe50e699d1 additional_latency=1990500 cycles
Heartbeat CPU 0 instructions: 1530000229 cycles: 2257953597 heartbeat IPC: 0.676 cumulative IPC: 0.6776 (Simulation time: 03 hr 25 min 56 sec)
[ERROR_CYCLE] Error added at CPU cycle 2261281241, next at 2288732855, pending count: 1
[DRAM_CYCLE_ERROR] Cycle-based error applied! address=0x5a93105b0 additional_latency=1990500 cycles
Heartbeat CPU 0 instructions: 1540000230 cycles: 2272683357 heartbeat IPC: 0.6789 cumulative IPC: 0.6776 (Simulation time: 03 hr 27 min 01 sec)
Heartbeat CPU 0 instructions: 1550000233 cycles: 2287618584 heartbeat IPC: 0.6696 cumulative IPC: 0.6776 (Simulation time: 03 hr 28 min 06 sec)
[ERROR_CYCLE] Error added at CPU cycle 2288732855, next at 2296178606, pending count: 1
[DRAM_CYCLE_ERROR] Cycle-based error applied! address=0x16c4e43758 additional_latency=1990500 cycles
[...]
[DRAM_CYCLE_ERROR] Cycle-based error applied! address=0x1d1ad6b38 additional_latency=1990500 cycles
Heartbeat CPU 0 instructions: 1730000275 cycles: 2555677994 heartbeat IPC: 0.6619 cumulative IPC: 0.6769 (Simulation time: 03 hr 47 min 29 sec)
[ERROR_CYCLE] Error added at CPU cycle 2557993328, next at 2559354305, pending count: 1
[DRAM_CYCLE_ERROR] Cycle-based error applied! address=0x5a93302c8 additional_latency=1990500 cycles
[ERROR_CYCLE] Error added at CPU cycle 2559354305, next at 2565617397, pending count: 1
[DRAM_CYCLE_ERROR] Cycle-based error applied! address=0x1b617212d1 additional_latency=1990500 cycles
[ERROR_CYCLE] Error added at CPU cycle 2565617398, next at 2589075952, pending count: 1
[DRAM_CYCLE_ERROR] Cycle-based error applied! address=0x4295071a8 additional_latency=1990500 cycles
Heartbeat CPU 0 instructions: 1740000278 cycles: 2570374204 heartbeat IPC: 0.6804 cumulative IPC: 0.6769 (Simulation time: 03 hr 48 min 32 sec)
Heartbeat CPU 0 instructions: 1750000279 cycles: 2585152391 heartbeat IPC: 0.6767 cumulative IPC: 0.6769 (Simulation time: 03 hr 49 min 37 sec)
[ERROR_CYCLE] Error added at CPU cycle 2589075953, next at 2593877875, pending count: 1
[DRAM_CYCLE_ERROR] Cycle-based error applied! address=0xda87019d0 additional_latency=1990500 cycles
[ERROR_CYCLE] Error added at CPU cycle 2593877876, next at 2606344063, pending count: 1
[DRAM_CYCLE_ERROR] Cycle-based error applied! address=0x8ba910384 additional_latency=1990500 cycles
Heartbeat CPU 0 instructions: 1760000279 cycles: 2600182412 heartbeat IPC: 0.6653 cumulative IPC: 0.6769 (Simulation time: 03 hr 50 min 41 sec)
[ERROR_CYCLE] Error added at CPU cycle 2606344063, next at 2610704056, pending count: 1
[DRAM_CYCLE_ERROR] Cycle-based error applied! address=0x1864a5d78 additional_latency=1990500 cycles
[ERROR_CYCLE] Error added at CPU cycle 2610704056, next at 2630475245, pending count: 1
[DRAM_CYCLE_ERROR] Cycle-based error applied! address=0x1455756590 additional_latency=1990500 cycles
Heartbeat CPU 0 instructions: 1770000282 cycles: 2615205685 heartbeat IPC: 0.6656 cumulative IPC: 0.6768 (Simulation time: 03 hr 51 min 46 sec)
Heartbeat CPU 0 instructions: 1780000282 cycles: 2630025582 heartbeat IPC: 0.6748 cumulative IPC: 0.6768 (Simulation time: 03 hr 52 min 50 sec)
[ERROR_CYCLE] Error added at CPU cycle 2630475246, next at 2640791493, pending count: 1
[DRAM_CYCLE_ERROR] Cycle-based error applied! address=0xc454c2198 additional_latency=1990500 cycles
[ERROR_CYCLE] Error added at CPU cycle 2640791494, next at 2644247825, pending count: 1
[DRAM_CYCLE_ERROR] Cycle-based error applied! address=0x106e46e380 additional_latency=1990500 cycles
[ERROR_CYCLE] Error added at CPU cycle 2644247825, next at 2656939740, pending count: 1
[DRAM_CYCLE_ERROR] Cycle-based error applied! address=0x119a674690 additional_latency=1990500 cycles
Heartbeat CPU 0 instructions: 1790000283 cycles: 2644843748 heartbeat IPC: 0.6748 cumulative IPC: 0.6768 (Simulation time: 03 hr 53 min 53 sec)
[ERROR_CYCLE] Error added at CPU cycle 2656939740, next at 2661483893, pending count: 1
[DRAM_CYCLE_ERROR] Cycle-based error applied! address=0x9611ec8d8 additional_latency=1990500 cycles
Heartbeat CPU 0 instructions: 1800000285 cycles: 2659709346 heartbeat IPC: 0.6727 cumulative IPC: 0.6768 (Simulation time: 03 hr 54 min 57 sec)
[ERROR_CYCLE] Error added at CPU cycle 2661483893, next at 2674328280, pending count: 1
[DRAM_CYCLE_ERROR] Cycle-based error applied! address=0x1c78970be8 additional_latency=1990500 cycles
[ERROR_CYCLE] Error added at CPU cycle 2674328280, next at 2679170229, pending count: 1
[DRAM_CYCLE_ERROR] Cycle-based error applied! address=0x119a7fcfb0 additional_latency=1990500 cycles
Heartbeat CPU 0 instructions: 1810000286 cycles: 2674452270 heartbeat IPC: 0.6783 cumulative IPC: 0.6768 (Simulation time: 03 hr 56 min 01 sec)
[ERROR_CYCLE] Error added at CPU cycle 2679170229, next at 2680204502, pending count: 1
[DRAM_CYCLE_ERROR] Cycle-based error applied! address=0x11ea2737a8 additional_latency=1990500 cycles
[ERROR_CYCLE] Error added at CPU cycle 2680204502, next at 2680931504, pending count: 1
[DRAM_CYCLE_ERROR] Cycle-based error applied! address=0x1b61757c08 additional_latency=1990500 cycles
[ERROR_CYCLE] Error added at CPU cycle 2680931505, next at 2683649452, pending count: 1
[DRAM_CYCLE_ERROR] Cycle-based error applied! address=0x1ca583ae80 additional_latency=1990500 cycles
[ERROR_CYCLE] Error added at CPU cycle 2683649453, next at 2691489675, pending count: 1
[DRAM_CYCLE_ERROR] Cycle-based error applied! address=0x1b616a32b8 additional_latency=1990500 cycles
Heartbeat CPU 0 instructions: 1820000287 cycles: 2689491630 heartbeat IPC: 0.6649 cumulative IPC: 0.6767 (Simulation time: 03 hr 57 min 06 sec)
[ERROR_CYCLE] Error added at CPU cycle 2691489675, next at 2695565770, pending count: 1
[DRAM_CYCLE_ERROR] Cycle-based error applied! address=0x1383235d14 additional_latency=1990500 cycles
[ERROR_CYCLE] Error added at CPU cycle 2695565771, next at 2722764317, pending count: 1
[DRAM_CYCLE_ERROR] Cycle-based error applied! address=0x1d1aa7748 additional_latency=1990500 cycles
Heartbeat CPU 0 instructions: 1830000289 cycles: 2704228639 heartbeat IPC: 0.6786 cumulative IPC: 0.6767 (Simulation time: 03 hr 58 min 10 sec)
Heartbeat CPU 0 instructions: 1840000289 cycles: 2719025749 heartbeat IPC: 0.6758 cumulative IPC: 0.6767 (Simulation time: 03 hr 59 min 13 sec)
[ERROR_CYCLE] Error added at CPU cycle 2722764317, next at 2723650833, pending count: 1
[DRAM_CYCLE_ERROR] Cycle-based error applied! address=0x1f03c4d918 additional_latency=1990500 cycles
[ERROR_CYCLE] Error added at CPU cycle 2723650833, next at 2729058022, pending count: 1
[DRAM_CYCLE_ERROR] Cycle-based error applied! address=0x15ac570500 additional_latency=1990500 cycles
[ERROR_CYCLE] Error added at CPU cycle 2729058022, next at 2732791294, pending count: 1
[DRAM_CYCLE_ERROR] Cycle-based error applied! address=0x1746b274c0 additional_latency=1990500 cycles
[ERROR_CYCLE] Error added at CPU cycle 2732791295, next at 2734013799, pending count: 1
[DRAM_CYCLE_ERROR] Cycle-based error applied! address=0x83affda60 additional_latency=1990500 cycles
Heartbeat CPU 0 instructions: 1850000292 cycles: 2733914332 heartbeat IPC: 0.6717 cumulative IPC: 0.6767 (Simulation time: 04 hr 00 min 17 sec)
[ERROR_CYCLE] Error added at CPU cycle 2734013799, next at 2740931858, pending count: 1
[DRAM_CYCLE_ERROR] Cycle-based error applied! address=0x613f659c8 additional_latency=1990500 cycles
[ERROR_CYCLE] Error added at CPU cycle 2740931859, next at 2745659437, pending count: 1
[DRAM_CYCLE_ERROR] Cycle-based error applied! address=0xdafcd7550 additional_latency=1990500 cycles
[ERROR_CYCLE] Error added at CPU cycle 2745659438, next at 2747981596, pending count: 1
[DRAM_CYCLE_ERROR] Cycle-based error applied! address=0x1fed7f5578 additional_latency=1990500 cycles
[ERROR_CYCLE] Error added at CPU cycle 2747981596, next at 2758636254, pending count: 1
[DRAM_CYCLE_ERROR] Cycle-based error applied! address=0x1b6175e488 additional_latency=1990500 cycles
Heartbeat CPU 0 instructions: 1860000292 cycles: 2748814386 heartbeat IPC: 0.6711 cumulative IPC: 0.6767 (Simulation time: 04 hr 01 min 19 sec)
[ERROR_CYCLE] Error added at CPU cycle 2758636255, next at 2766932672, pending count: 1
[DRAM_CYCLE_ERROR] Cycle-based error applied! address=0x1389e16de8 additional_latency=1990500 cycles
Heartbeat CPU 0 instructions: 1870000296 cycles: 2763743650 heartbeat IPC: 0.6698 cumulative IPC: 0.6766 (Simulation time: 04 hr 02 min 23 sec)
[ERROR_CYCLE] Error added at CPU cycle 2766932673, next at 2785360597, pending count: 1
[DRAM_CYCLE_ERROR] Cycle-based error applied! address=0x1f5dce6c50 additional_latency=1990500 cycles
Heartbeat CPU 0 instructions: 1880000298 cycles: 2778563148 heartbeat IPC: 0.6748 cumulative IPC: 0.6766 (Simulation time: 04 hr 03 min 26 sec)
[ERROR_CYCLE] Error added at CPU cycle 2785360597, next at 2785631447, pending count: 1
[DRAM_CYCLE_ERROR] Cycle-based error applied! address=0x1946556838 additional_latency=1990500 cycles
[ERROR_CYCLE] Error added at CPU cycle 2785631447, next at 2803717836, pending count: 1
[DRAM_CYCLE_ERROR] Cycle-based error applied! address=0xe50face98 additional_latency=1990500 cycles
Heartbeat CPU 0 instructions: 1890000302 cycles: 2793289860 heartbeat IPC: 0.679 cumulative IPC: 0.6766 (Simulation time: 04 hr 04 min 28 sec)
[ERROR_CYCLE] Error added at CPU cycle 2803717837, next at 2806220590, pending count: 1
[DRAM_CYCLE_ERROR] Cycle-based error applied! address=0x11f37c6288 additional_latency=1990500 cycles
[ERROR_CYCLE] Error added at CPU cycle 2806220591, next at 2816747999, pending count: 1
[DRAM_CYCLE_ERROR] Cycle-based error applied! address=0x1b2c6f0a0 additional_latency=1990500 cycles
Heartbeat CPU 0 instructions: 1900000302 cycles: 2808059237 heartbeat IPC: 0.6771 cumulative IPC: 0.6766 (Simulation time: 04 hr 05 min 30 sec)
[ERROR_CYCLE] Error added at CPU cycle 2816747999, next at 2826356346, pending count: 1
[DRAM_CYCLE_ERROR] Cycle-based error applied! address=0x112c416258 additional_latency=1990500 cycles
Heartbeat CPU 0 instructions: 1910000305 cycles: 2822747499 heartbeat IPC: 0.6808 cumulative IPC: 0.6766 (Simulation time: 04 hr 06 min 33 sec)
[ERROR_CYCLE] Error added at CPU cycle 2826356346, next at 2835068009, pending count: 1
[DRAM_CYCLE_ERROR] Cycle-based error applied! address=0x1861149c81 additional_latency=1990500 cycles
[ERROR_CYCLE] Error added at CPU cycle 2835068010, next at 2841514409, pending count: 1
[DRAM_CYCLE_ERROR] Cycle-based error applied! address=0x1ef4e81e50 additional_latency=1990500 cycles
Heartbeat CPU 0 instructions: 1920000307 cycles: 2837758553 heartbeat IPC: 0.6662 cumulative IPC: 0.6766 (Simulation time: 04 hr 07 min 37 sec)
[ERROR_CYCLE] Error added at CPU cycle 2841514409, next at 2852763426, pending count: 1
[DRAM_CYCLE_ERROR] Cycle-based error applied! address=0x182e877de0 additional_latency=1990500 cycles
Heartbeat CPU 0 instructions: 1930000310 cycles: 2852740837 heartbeat IPC: 0.6675 cumulative IPC: 0.6765 (Simulation time: 04 hr 08 min 41 sec)
[ERROR_CYCLE] Error added at CPU cycle 2852763427, next at 2853318100, pending count: 1
[DRAM_CYCLE_ERROR] Cycle-based error applied! address=0xed64a4458 additional_latency=1990500 cycles
[ERROR_CYCLE] Error added at CPU cycle 2853318101, next at 2855401947, pending count: 1
[DRAM_CYCLE_ERROR] Cycle-based error applied! address=0x18c8beb136 additional_latency=1990500 cycles
[ERROR_CYCLE] Error added at CPU cycle 2855401947, next at 2863915189, pending count: 1
[DRAM_CYCLE_ERROR] Cycle-based error applied! address=0x19354ec638 additional_latency=1990500 cycles
[ERROR_CYCLE] Error added at CPU cycle 2863915190, next at 2885265629, pending count: 1
[DRAM_CYCLE_ERROR] Cycle-based error applied! address=0xb41f9c708 additional_latency=1990500 cycles
Heartbeat CPU 0 instructions: 1940000310 cycles: 2867557449 heartbeat IPC: 0.6749 cumulative IPC: 0.6765 (Simulation time: 04 hr 09 min 44 sec)
Heartbeat CPU 0 instructions: 1950000311 cycles: 2882368449 heartbeat IPC: 0.6752 cumulative IPC: 0.6765 (Simulation time: 04 hr 10 min 46 sec)
[ERROR_CYCLE] Error added at CPU cycle 2885265630, next at 2887048941, pending count: 1
[DRAM_CYCLE_ERROR] Cycle-based error applied! address=0x119a7c4488 additional_latency=1990500 cycles
[ERROR_CYCLE] Error added at CPU cycle 2887048942, next at 2888334623, pending count: 1
[DRAM_CYCLE_ERROR] Cycle-based error applied! address=0x1317b3d1c8 additional_latency=1990500 cycles
[ERROR_CYCLE] Error added at CPU cycle 2888334623, next at 2899354070, pending count: 1
[DRAM_CYCLE_ERROR] Cycle-based error applied! address=0x138327c048 additional_latency=1990500 cycles
Heartbeat CPU 0 instructions: 1960000313 cycles: 2897041588 heartbeat IPC: 0.6815 cumulative IPC: 0.6766 (Simulation time: 04 hr 11 min 49 sec)
[ERROR_CYCLE] Error added at CPU cycle 2899354070, next at 2900689648, pending count: 1
[DRAM_CYCLE_ERROR] Cycle-based error applied! address=0x1b2cb9838 additional_latency=1990500 cycles
[ERROR_CYCLE] Error added at CPU cycle 2900689648, next at 2905638096, pending count: 1
[DRAM_CYCLE_ERROR] Cycle-based error applied! address=0xd86a61454 additional_latency=1990500 cycles
[ERROR_CYCLE] Error added at CPU cycle 2905638097, next at 2920074842, pending count: 1
[DRAM_CYCLE_ERROR] Cycle-based error applied! address=0x28dfd5ff8 additional_latency=1990500 cycles
Heartbeat CPU 0 instructions: 1970000313 cycles: 2911744342 heartbeat IPC: 0.6801 cumulative IPC: 0.6766 (Simulation time: 04 hr 12 min 51 sec)
[ERROR_CYCLE] Error added at CPU cycle 2920074842, next at 2924861008, pending count: 1
[DRAM_CYCLE_ERROR] Cycle-based error applied! address=0x11ea3d85b0 additional_latency=1990500 cycles
[ERROR_CYCLE] Error added at CPU cycle 2924861009, next at 2960284206, pending count: 1
[DRAM_CYCLE_ERROR] Cycle-based error applied! address=0xf53bc9f98 additional_latency=1990500 cycles
Heartbeat CPU 0 instructions: 1980000314 cycles: 2926461680 heartbeat IPC: 0.6795 cumulative IPC: 0.6766 (Simulation time: 04 hr 13 min 53 sec)
Heartbeat CPU 0 instructions: 1990000314 cycles: 2941078292 heartbeat IPC: 0.6842 cumulative IPC: 0.6766 (Simulation time: 04 hr 14 min 55 sec)

=== ERROR PAGE STATISTICS ===
Mode: CYCLE
Error Cycle Interval: 8000000 CPU cycles
Total Error Accesses: 383
==============================
Simulation finished CPU 0 instructions: 1999999986 cycles: 2955652767 cumulative IPC: 0.6767 (Simulation time: 04 hr 15 min 57 sec)
Simulation complete CPU 0 instructions: 1999999986 cycles: 2955652767 cumulative IPC: 0.6767 (Simulation time: 04 hr 15 min 57 sec)

ChampSim completed all CPUs

=== Simulation ===
CPU 0 runs test_traces/620.omnetpp_s-141B.champsimtrace.xz

Region of Interest Statistics

CPU 0 cumulative IPC: 0.6767 instructions: 1999999986 cycles: 2955652767
CPU 0 Branch Prediction Accuracy: 92.96% MPKI: 14.8 Average ROB Occupancy at Mispredict: 42.41
Branch type MPKI
BRANCH_DIRECT_JUMP: 0.8484
BRANCH_INDIRECT: 0.3555
BRANCH_CONDITIONAL: 12.32
BRANCH_DIRECT_CALL: 0.0001295
BRANCH_INDIRECT_CALL: 0.8457
BRANCH_RETURN: 0.4309

cpu0->cpu0_STLB TOTAL        ACCESS:    2805465 HIT:    2805350 MISS:        115 MSHR_MERGE:          0
cpu0->cpu0_STLB LOAD         ACCESS:    2805465 HIT:    2805350 MISS:        115 MSHR_MERGE:          0
cpu0->cpu0_STLB RFO          ACCESS:          0 HIT:          0 MISS:          0 MSHR_MERGE:          0
cpu0->cpu0_STLB PREFETCH     ACCESS:          0 HIT:          0 MISS:          0 MSHR_MERGE:          0
cpu0->cpu0_STLB WRITE        ACCESS:          0 HIT:          0 MISS:          0 MSHR_MERGE:          0
cpu0->cpu0_STLB TRANSLATION  ACCESS:          0 HIT:          0 MISS:          0 MSHR_MERGE:          0
cpu0->cpu0_STLB PREFETCH REQUESTED:          0 ISSUED:          0 USEFUL:          0 USELESS:          0
cpu0->cpu0_STLB AVERAGE MISS LATENCY: 8795 cycles
cpu0->cpu0_L2C TOTAL        ACCESS:   56648168 HIT:   29475911 MISS:   27172257 MSHR_MERGE:          0
cpu0->cpu0_L2C LOAD         ACCESS:   33707409 HIT:   10164064 MISS:   23543345 MSHR_MERGE:          0
cpu0->cpu0_L2C RFO          ACCESS:    4838804 HIT:    1232937 MISS:    3605867 MSHR_MERGE:          0
cpu0->cpu0_L2C PREFETCH     ACCESS:          0 HIT:          0 MISS:          0 MSHR_MERGE:          0
cpu0->cpu0_L2C WRITE        ACCESS:   18101955 HIT:   18078910 MISS:      23045 MSHR_MERGE:          0
cpu0->cpu0_L2C TRANSLATION  ACCESS:          0 HIT:          0 MISS:          0 MSHR_MERGE:          0
cpu0->cpu0_L2C PREFETCH REQUESTED:          0 ISSUED:          0 USEFUL:          0 USELESS:          0
cpu0->cpu0_L2C AVERAGE MISS LATENCY: 91.02 cycles
cpu0->cpu0_L1I TOTAL        ACCESS:  267255993 HIT:  265533138 MISS:    1722855 MSHR_MERGE:     435767
cpu0->cpu0_L1I LOAD         ACCESS:  267255993 HIT:  265533138 MISS:    1722855 MSHR_MERGE:     435767
cpu0->cpu0_L1I RFO          ACCESS:          0 HIT:          0 MISS:          0 MSHR_MERGE:          0
cpu0->cpu0_L1I PREFETCH     ACCESS:          0 HIT:          0 MISS:          0 MSHR_MERGE:          0
cpu0->cpu0_L1I WRITE        ACCESS:          0 HIT:          0 MISS:          0 MSHR_MERGE:          0
cpu0->cpu0_L1I TRANSLATION  ACCESS:          0 HIT:          0 MISS:          0 MSHR_MERGE:          0
cpu0->cpu0_L1I PREFETCH REQUESTED:          0 ISSUED:          0 USEFUL:          0 USELESS:          0
cpu0->cpu0_L1I AVERAGE MISS LATENCY: 12.08 cycles
cpu0->cpu0_L1D TOTAL        ACCESS:  808743385 HIT:  751448260 MISS:   57295125 MSHR_MERGE:   20035855
cpu0->cpu0_L1D LOAD         ACCESS:  441061745 HIT:  397759384 MISS:   43302361 MSHR_MERGE:   10881947
cpu0->cpu0_L1D RFO          ACCESS:          0 HIT:          0 MISS:          0 MSHR_MERGE:          0
cpu0->cpu0_L1D PREFETCH     ACCESS:          0 HIT:          0 MISS:          0 MSHR_MERGE:          0
cpu0->cpu0_L1D WRITE        ACCESS:  367681640 HIT:  353688876 MISS:   13992764 MSHR_MERGE:    9153908
cpu0->cpu0_L1D TRANSLATION  ACCESS:          0 HIT:          0 MISS:          0 MSHR_MERGE:          0
cpu0->cpu0_L1D PREFETCH REQUESTED:          0 ISSUED:          0 USEFUL:          0 USELESS:          0
cpu0->cpu0_L1D AVERAGE MISS LATENCY: 75.02 cycles
cpu0->cpu0_ITLB TOTAL        ACCESS:  234322094 HIT:  234322091 MISS:          3 MSHR_MERGE:          1
cpu0->cpu0_ITLB LOAD         ACCESS:  234322094 HIT:  234322091 MISS:          3 MSHR_MERGE:          1
cpu0->cpu0_ITLB RFO          ACCESS:          0 HIT:          0 MISS:          0 MSHR_MERGE:          0
cpu0->cpu0_ITLB PREFETCH     ACCESS:          0 HIT:          0 MISS:          0 MSHR_MERGE:          0
cpu0->cpu0_ITLB WRITE        ACCESS:          0 HIT:          0 MISS:          0 MSHR_MERGE:          0
cpu0->cpu0_ITLB TRANSLATION  ACCESS:          0 HIT:          0 MISS:          0 MSHR_MERGE:          0
cpu0->cpu0_ITLB PREFETCH REQUESTED:          0 ISSUED:          0 USEFUL:          0 USELESS:          0
cpu0->cpu0_ITLB AVERAGE MISS LATENCY: 1.292e+04 cycles
cpu0->cpu0_DTLB TOTAL        ACCESS:  686935331 HIT:  683475525 MISS:    3459806 MSHR_MERGE:     654343
cpu0->cpu0_DTLB LOAD         ACCESS:  686935331 HIT:  683475525 MISS:    3459806 MSHR_MERGE:     654343
cpu0->cpu0_DTLB RFO          ACCESS:          0 HIT:          0 MISS:          0 MSHR_MERGE:          0
cpu0->cpu0_DTLB PREFETCH     ACCESS:          0 HIT:          0 MISS:          0 MSHR_MERGE:          0
cpu0->cpu0_DTLB WRITE        ACCESS:          0 HIT:          0 MISS:          0 MSHR_MERGE:          0
cpu0->cpu0_DTLB TRANSLATION  ACCESS:          0 HIT:          0 MISS:          0 MSHR_MERGE:          0
cpu0->cpu0_DTLB PREFETCH REQUESTED:          0 ISSUED:          0 USEFUL:          0 USELESS:          0
cpu0->cpu0_DTLB AVERAGE MISS LATENCY: 5.353 cycles
cpu0->LLC TOTAL        ACCESS:   40303011 HIT:   19732326 MISS:   20570685 MSHR_MERGE:          0
cpu0->LLC LOAD         ACCESS:   23543340 HIT:    5180177 MISS:   18363163 MSHR_MERGE:          0
cpu0->LLC RFO          ACCESS:    3605866 HIT:    1446161 MISS:    2159705 MSHR_MERGE:          0
cpu0->LLC PREFETCH     ACCESS:          0 HIT:          0 MISS:          0 MSHR_MERGE:          0
cpu0->LLC WRITE        ACCESS:   13153805 HIT:   13105988 MISS:      47817 MSHR_MERGE:          0
cpu0->LLC TRANSLATION  ACCESS:          0 HIT:          0 MISS:          0 MSHR_MERGE:          0
cpu0->LLC PREFETCH REQUESTED:          0 ISSUED:          0 USEFUL:          0 USELESS:          0
cpu0->LLC AVERAGE MISS LATENCY: 99.45 cycles

DRAM Statistics

Channel 0 RQ ROW_BUFFER_HIT:     359606
  ROW_BUFFER_MISS:    9897614
  AVG DBUS CONGESTED CYCLE: 13.54
Channel 0 WQ ROW_BUFFER_HIT:     751803
  ROW_BUFFER_MISS:    3987265
  FULL:          0
Channel 0 REFRESHES ISSUED:     246288

Channel 1 RQ ROW_BUFFER_HIT:     357190
  ROW_BUFFER_MISS:    9908665
  AVG DBUS CONGESTED CYCLE: 13.57
Channel 1 WQ ROW_BUFFER_HIT:     757390
  ROW_BUFFER_MISS:    4005289
  FULL:          0
Channel 1 REFRESHES ISSUED:     246288
