[VMEM] WARNING: physical memory size is smaller than virtual memory size.

*** ChampSim Multicore Out-of-Order Simulator ***
Warmup Instructions: 0
Simulation Instructions: 9223372036854775807
Number of CPUs: 1
Page size: 4096

Off-chip DRAM Size: 64 GiB Channels: 2 Width: 32-bit Data Rate: 4807 MT/s
[ERROR_PAGE_MANAGER] Error latency: 173500 
[ERROR_PAGE_MANAGER] Random seed: 54321 (fixed for preload reproducibility)
[ERROR_PAGE_MANAGER] Cycle-based error modeling enabled
[ERROR_PAGE_MANAGER] Errors per interval: 1
[ERROR_PAGE_MANAGER] Error cycle interval: 10000000 cycles

=== ERROR PAGE STATISTICS ===
Mode: CYCLE
Error Cycle Interval: 10000000 CPU cycles
Total Error Accesses: 0
==============================
Warmup finished CPU 0 instructions: 0 cycles: 1 cumulative IPC: 0 (Simulation time: 00 hr 00 min 01 sec)
Warmup complete CPU 0 instructions: 0 cycles: 1 cumulative IPC: 0 (Simulation time: 00 hr 00 min 01 sec)
[ERROR_CYCLE] Error added at CPU cycle 7127805, next at 9153305, pending count: 1
[DRAM_CYCLE_ERROR] Cycle-based error applied! address=0x1099d23f8 additional_latency=173500 cycles
[ERROR_CYCLE] Error added at CPU cycle 9153306, next at 25696063, pending count: 1
[DRAM_CYCLE_ERROR] Cycle-based error applied! address=0x63193eb48 additional_latency=173500 cycles
[ERROR_CYCLE] Error added at CPU cycle 25696063, next at 53467688, pending count: 1
[DRAM_CYCLE_ERROR] Cycle-based error applied! address=0xb822a36e0 additional_latency=173500 cycles
Heartbeat CPU 0 instructions: 10000002 cycles: 29553358 heartbeat IPC: 0.3384 cumulative IPC: 0.3384 (Simulation time: 00 hr 02 min 47 sec)
[ERROR_CYCLE] Error added at CPU cycle 53467689, next at 53768224, pending count: 1
[DRAM_CYCLE_ERROR] Cycle-based error applied! address=0x28569e498 additional_latency=173500 cycles
[ERROR_CYCLE] Error added at CPU cycle 53768224, next at 69138641, pending count: 1
[DRAM_CYCLE_ERROR] Cycle-based error applied! address=0x72ec39e00 additional_latency=173500 cycles
Heartbeat CPU 0 instructions: 20000002 cycles: 59027230 heartbeat IPC: 0.3393 cumulative IPC: 0.3388 (Simulation time: 00 hr 05 min 28 sec)
[ERROR_CYCLE] Error added at CPU cycle 69138642, next at 70928443, pending count: 1
[DRAM_CYCLE_ERROR] Cycle-based error applied! address=0x9fa44f9d8 additional_latency=173500 cycles
[ERROR_CYCLE] Error added at CPU cycle 70928444, next at 76617422, pending count: 1
[DRAM_CYCLE_ERROR] Cycle-based error applied! address=0xf2868b0d8 additional_latency=173500 cycles
[ERROR_CYCLE] Error added at CPU cycle 76617422, next at 85156860, pending count: 1
[DRAM_CYCLE_ERROR] Cycle-based error applied! address=0x3a47ffa88 additional_latency=173500 cycles
[ERROR_CYCLE] Error added at CPU cycle 85156860, next at 87603375, pending count: 1
[DRAM_CYCLE_ERROR] Cycle-based error applied! address=0x2d9bdddc8 additional_latency=173500 cycles
[ERROR_CYCLE] Error added at CPU cycle 87603376, next at 105362955, pending count: 1
[DRAM_CYCLE_ERROR] Cycle-based error applied! address=0x94be948c0 additional_latency=173500 cycles
Heartbeat CPU 0 instructions: 30000004 cycles: 88498636 heartbeat IPC: 0.3393 cumulative IPC: 0.339 (Simulation time: 00 hr 08 min 21 sec)
[ERROR_CYCLE] Error added at CPU cycle 105362955, next at 108923137, pending count: 1
[DRAM_CYCLE_ERROR] Cycle-based error applied! address=0x7f89c0a98 additional_latency=173500 cycles
[ERROR_CYCLE] Error added at CPU cycle 108923137, next at 113398998, pending count: 1
[DRAM_CYCLE_ERROR] Cycle-based error applied! address=0xf65d42440 additional_latency=173500 cycles
[ERROR_CYCLE] Error added at CPU cycle 113398999, next at 133751835, pending count: 1
[DRAM_CYCLE_ERROR] Cycle-based error applied! address=0xa61146e08 additional_latency=173500 cycles
Heartbeat CPU 0 instructions: 40000005 cycles: 118001919 heartbeat IPC: 0.3389 cumulative IPC: 0.339 (Simulation time: 00 hr 10 min 42 sec)
[ERROR_CYCLE] Error added at CPU cycle 133751835, next at 133874359, pending count: 1
[DRAM_CYCLE_ERROR] Cycle-based error applied! address=0xe444f2590 additional_latency=173500 cycles
[ERROR_CYCLE] Error added at CPU cycle 133874359, next at 145123863, pending count: 1
[DRAM_CYCLE_ERROR] Cycle-based error applied! address=0xa77e75850 additional_latency=173500 cycles
[ERROR_CYCLE] Error added at CPU cycle 145123863, next at 151687113, pending count: 1
[DRAM_CYCLE_ERROR] Cycle-based error applied! address=0x46d183488 additional_latency=173500 cycles
Heartbeat CPU 0 instructions: 50000009 cycles: 147422379 heartbeat IPC: 0.3399 cumulative IPC: 0.3392 (Simulation time: 00 hr 12 min 48 sec)
[ERROR_CYCLE] Error added at CPU cycle 151687113, next at 189526482, pending count: 1
[DRAM_CYCLE_ERROR] Cycle-based error applied! address=0x6c0b4e3a0 additional_latency=173500 cycles
Heartbeat CPU 0 instructions: 60000012 cycles: 176862983 heartbeat IPC: 0.3397 cumulative IPC: 0.3392 (Simulation time: 00 hr 15 min 46 sec)
[ERROR_CYCLE] Error added at CPU cycle 189526483, next at 191895927, pending count: 1
[DRAM_CYCLE_ERROR] Cycle-based error applied! address=0x54e3f9310 additional_latency=173500 cycles
[ERROR_CYCLE] Error added at CPU cycle 191895927, next at 194297025, pending count: 1
[DRAM_CYCLE_ERROR] Cycle-based error applied! address=0xc3a6ed600 additional_latency=173500 cycles
[ERROR_CYCLE] Error added at CPU cycle 194297026, next at 223119032, pending count: 1
[DRAM_CYCLE_ERROR] Cycle-based error applied! address=0xda7530b20 additional_latency=173500 cycles
Heartbeat CPU 0 instructions: 70000012 cycles: 206309632 heartbeat IPC: 0.3396 cumulative IPC: 0.3393 (Simulation time: 00 hr 18 min 37 sec)
[ERROR_CYCLE] Error added at CPU cycle 223119032, next at 227066706, pending count: 1
[DRAM_CYCLE_ERROR] Cycle-based error applied! address=0x3e758f988 additional_latency=173500 cycles
[ERROR_CYCLE] Error added at CPU cycle 227066706, next at 269846489, pending count: 1
[DRAM_CYCLE_ERROR] Cycle-based error applied! address=0x39b136c80 additional_latency=173500 cycles
Heartbeat CPU 0 instructions: 80000016 cycles: 235752670 heartbeat IPC: 0.3396 cumulative IPC: 0.3393 (Simulation time: 00 hr 20 min 33 sec)
Heartbeat CPU 0 instructions: 90000018 cycles: 265196666 heartbeat IPC: 0.3396 cumulative IPC: 0.3394 (Simulation time: 00 hr 22 min 49 sec)
[ERROR_CYCLE] Error added at CPU cycle 269846490, next at 275597170, pending count: 1
[DRAM_CYCLE_ERROR] Cycle-based error applied! address=0x10893fc08 additional_latency=173500 cycles
[ERROR_CYCLE] Error added at CPU cycle 275597171, next at 309231635, pending count: 1
[DRAM_CYCLE_ERROR] Cycle-based error applied! address=0x2aac57a10 additional_latency=173500 cycles
Heartbeat CPU 0 instructions: 100000020 cycles: 294622885 heartbeat IPC: 0.3398 cumulative IPC: 0.3394 (Simulation time: 00 hr 25 min 44 sec)
[ERROR_CYCLE] Error added at CPU cycle 309231636, next at 312214761, pending count: 1
[DRAM_CYCLE_ERROR] Cycle-based error applied! address=0x3b6f85288 additional_latency=173500 cycles
[ERROR_CYCLE] Error added at CPU cycle 312214762, next at 326484517, pending count: 1
[DRAM_CYCLE_ERROR] Cycle-based error applied! address=0x2c96a6348 additional_latency=173500 cycles
Heartbeat CPU 0 instructions: 110000020 cycles: 324120839 heartbeat IPC: 0.339 cumulative IPC: 0.3394 (Simulation time: 00 hr 28 min 42 sec)
[ERROR_CYCLE] Error added at CPU cycle 326484517, next at 328619258, pending count: 1
[DRAM_CYCLE_ERROR] Cycle-based error applied! address=0x23c4374d0 additional_latency=173500 cycles
[ERROR_CYCLE] Error added at CPU cycle 328619258, next at 331945338, pending count: 1
[DRAM_CYCLE_ERROR] Cycle-based error applied! address=0x394945b60 additional_latency=173500 cycles
[ERROR_CYCLE] Error added at CPU cycle 331945339, next at 346622017, pending count: 1
[DRAM_CYCLE_ERROR] Cycle-based error applied! address=0xd99ccf9e0 additional_latency=173500 cycles
[ERROR_CYCLE] Error added at CPU cycle 346622017, next at 346704171, pending count: 1
[DRAM_CYCLE_ERROR] Cycle-based error applied! address=0x58cfd0e40 additional_latency=173500 cycles
[ERROR_CYCLE] Error added at CPU cycle 346704171, next at 351055557, pending count: 1
[DRAM_CYCLE_ERROR] Cycle-based error applied! address=0x1cb7d5c48 additional_latency=173500 cycles
[ERROR_CYCLE] Error added at CPU cycle 351055557, next at 353715518, pending count: 1
[DRAM_CYCLE_ERROR] Cycle-based error applied! address=0x614e7f480 additional_latency=173500 cycles
Heartbeat CPU 0 instructions: 120000024 cycles: 353644272 heartbeat IPC: 0.3387 cumulative IPC: 0.3393 (Simulation time: 00 hr 31 min 40 sec)
[ERROR_CYCLE] Error added at CPU cycle 353715518, next at 358578569, pending count: 1
[DRAM_CYCLE_ERROR] Cycle-based error applied! address=0xfa5e44c90 additional_latency=173500 cycles
[ERROR_CYCLE] Error added at CPU cycle 358578569, next at 359734081, pending count: 1
[DRAM_CYCLE_ERROR] Cycle-based error applied! address=0xc6dce16e0 additional_latency=173500 cycles
[ERROR_CYCLE] Error added at CPU cycle 359734081, next at 364965560, pending count: 1
[DRAM_CYCLE_ERROR] Cycle-based error applied! address=0xf441b9498 additional_latency=173500 cycles
[ERROR_CYCLE] Error added at CPU cycle 364965560, next at 370163876, pending count: 1
[DRAM_CYCLE_ERROR] Cycle-based error applied! address=0x1aafb8ca8 additional_latency=173500 cycles
[ERROR_CYCLE] Error added at CPU cycle 370163876, next at 384861686, pending count: 1
[DRAM_CYCLE_ERROR] Cycle-based error applied! address=0x3969dfe50 additional_latency=173500 cycles
Heartbeat CPU 0 instructions: 130000024 cycles: 383147450 heartbeat IPC: 0.3389 cumulative IPC: 0.3393 (Simulation time: 00 hr 34 min 30 sec)
[ERROR_CYCLE] Error added at CPU cycle 384861686, next at 403305050, pending count: 1
[DRAM_CYCLE_ERROR] Cycle-based error applied! address=0xe59549000 additional_latency=173500 cycles
[ERROR_CYCLE] Error added at CPU cycle 403305051, next at 408299099, pending count: 1
[DRAM_CYCLE_ERROR] Cycle-based error applied! address=0x34cd3c250 additional_latency=173500 cycles
[ERROR_CYCLE] Error added at CPU cycle 408299099, next at 414578861, pending count: 1
[DRAM_CYCLE_ERROR] Cycle-based error applied! address=0x62030bf40 additional_latency=173500 cycles
Heartbeat CPU 0 instructions: 140000027 cycles: 412558023 heartbeat IPC: 0.34 cumulative IPC: 0.3393 (Simulation time: 00 hr 37 min 22 sec)
[ERROR_CYCLE] Error added at CPU cycle 414578862, next at 415677269, pending count: 1
[DRAM_CYCLE_ERROR] Cycle-based error applied! address=0xdf1a25850 additional_latency=173500 cycles
[ERROR_CYCLE] Error added at CPU cycle 415677270, next at 417793974, pending count: 1
[DRAM_CYCLE_ERROR] Cycle-based error applied! address=0xc8ba1290 additional_latency=173500 cycles
[ERROR_CYCLE] Error added at CPU cycle 417793975, next at 428962166, pending count: 1
[DRAM_CYCLE_ERROR] Cycle-based error applied! address=0xa1a966c20 additional_latency=173500 cycles
[ERROR_CYCLE] Error added at CPU cycle 428962167, next at 435398726, pending count: 1
[DRAM_CYCLE_ERROR] Cycle-based error applied! address=0x3b9ade950 additional_latency=173500 cycles
[ERROR_CYCLE] Error added at CPU cycle 435398727, next at 451570558, pending count: 1
[DRAM_CYCLE_ERROR] Cycle-based error applied! address=0xb0b1e3640 additional_latency=173500 cycles
Heartbeat CPU 0 instructions: 150000029 cycles: 441965740 heartbeat IPC: 0.34 cumulative IPC: 0.3394 (Simulation time: 00 hr 40 min 10 sec)
[ERROR_CYCLE] Error added at CPU cycle 451570559, next at 454416191, pending count: 1
[DRAM_CYCLE_ERROR] Cycle-based error applied! address=0x29ed41880 additional_latency=173500 cycles
[ERROR_CYCLE] Error added at CPU cycle 454416192, next at 467943289, pending count: 1
[DRAM_CYCLE_ERROR] Cycle-based error applied! address=0x2dde43c20 additional_latency=173500 cycles
[ERROR_CYCLE] Error added at CPU cycle 467943289, next at 479150351, pending count: 1
[DRAM_CYCLE_ERROR] Cycle-based error applied! address=0x8b2771990 additional_latency=173500 cycles
Heartbeat CPU 0 instructions: 160000031 cycles: 471436744 heartbeat IPC: 0.3393 cumulative IPC: 0.3394 (Simulation time: 00 hr 43 min 08 sec)
[ERROR_CYCLE] Error added at CPU cycle 479150352, next at 489818806, pending count: 1
[DRAM_CYCLE_ERROR] Cycle-based error applied! address=0x507d60018 additional_latency=173500 cycles
[ERROR_CYCLE] Error added at CPU cycle 489818807, next at 492199391, pending count: 1
[DRAM_CYCLE_ERROR] Cycle-based error applied! address=0xbe66c78c0 additional_latency=173500 cycles
[ERROR_CYCLE] Error added at CPU cycle 492199392, next at 501105066, pending count: 1
[DRAM_CYCLE_ERROR] Cycle-based error applied! address=0x700b97ad8 additional_latency=173500 cycles
Heartbeat CPU 0 instructions: 170000034 cycles: 500947063 heartbeat IPC: 0.3389 cumulative IPC: 0.3394 (Simulation time: 00 hr 46 min 06 sec)
[ERROR_CYCLE] Error added at CPU cycle 501105067, next at 516413942, pending count: 1
[DRAM_CYCLE_ERROR] Cycle-based error applied! address=0x3e624aac0 additional_latency=173500 cycles
[ERROR_CYCLE] Error added at CPU cycle 516413943, next at 523258148, pending count: 1
[DRAM_CYCLE_ERROR] Cycle-based error applied! address=0x87e482150 additional_latency=173500 cycles
[ERROR_CYCLE] Error added at CPU cycle 523258148, next at 524320531, pending count: 1
[DRAM_CYCLE_ERROR] Cycle-based error applied! address=0xed6ce8940 additional_latency=173500 cycles
[ERROR_CYCLE] Error added at CPU cycle 524320531, next at 545421303, pending count: 1
[DRAM_CYCLE_ERROR] Cycle-based error applied! address=0xbe61b4620 additional_latency=173500 cycles
Heartbeat CPU 0 instructions: 180000036 cycles: 530377600 heartbeat IPC: 0.3398 cumulative IPC: 0.3394 (Simulation time: 00 hr 48 min 49 sec)
[ERROR_CYCLE] Error added at CPU cycle 545421304, next at 555011553, pending count: 1
[DRAM_CYCLE_ERROR] Cycle-based error applied! address=0x5751a0590 additional_latency=173500 cycles
[ERROR_CYCLE] Error added at CPU cycle 555011553, next at 566707107, pending count: 1
[DRAM_CYCLE_ERROR] Cycle-based error applied! address=0x98b1c1c10 additional_latency=173500 cycles
Heartbeat CPU 0 instructions: 190000039 cycles: 559929689 heartbeat IPC: 0.3384 cumulative IPC: 0.3393 (Simulation time: 00 hr 51 min 48 sec)
[ERROR_CYCLE] Error added at CPU cycle 566707107, next at 602334490, pending count: 1
[DRAM_CYCLE_ERROR] Cycle-based error applied! address=0x333b4bf10 additional_latency=173500 cycles
Heartbeat CPU 0 instructions: 200000040 cycles: 589311634 heartbeat IPC: 0.3403 cumulative IPC: 0.3394 (Simulation time: 00 hr 54 min 45 sec)
[ERROR_CYCLE] Error added at CPU cycle 602334490, next at 607801697, pending count: 1
[DRAM_CYCLE_ERROR] Cycle-based error applied! address=0x75da3cc80 additional_latency=173500 cycles
[ERROR_CYCLE] Error added at CPU cycle 607801697, next at 608543542, pending count: 1
[DRAM_CYCLE_ERROR] Cycle-based error applied! address=0x361b44ea0 additional_latency=173500 cycles
[ERROR_CYCLE] Error added at CPU cycle 608543543, next at 610655090, pending count: 1
[DRAM_CYCLE_ERROR] Cycle-based error applied! address=0xea9b0ed00 additional_latency=173500 cycles
[ERROR_CYCLE] Error added at CPU cycle 610655091, next at 613219349, pending count: 1
[DRAM_CYCLE_ERROR] Cycle-based error applied! address=0x3b3d1a900 additional_latency=173500 cycles
[ERROR_CYCLE] Error added at CPU cycle 613219350, next at 613730924, pending count: 1
[DRAM_CYCLE_ERROR] Cycle-based error applied! address=0xf8032ac98 additional_latency=173500 cycles
[ERROR_CYCLE] Error added at CPU cycle 613730925, next at 615686536, pending count: 1
[DRAM_CYCLE_ERROR] Cycle-based error applied! address=0x6616c2b80 additional_latency=173500 cycles
[ERROR_CYCLE] Error added at CPU cycle 615686536, next at 623830395, pending count: 1
[DRAM_CYCLE_ERROR] Cycle-based error applied! address=0x86747e650 additional_latency=173500 cycles
Heartbeat CPU 0 instructions: 210000042 cycles: 618795138 heartbeat IPC: 0.3392 cumulative IPC: 0.3394 (Simulation time: 00 hr 57 min 43 sec)
[ERROR_CYCLE] Error added at CPU cycle 623830395, next at 655504590, pending count: 1
[DRAM_CYCLE_ERROR] Cycle-based error applied! address=0xc3c5b2148 additional_latency=173500 cycles
Heartbeat CPU 0 instructions: 220000045 cycles: 648321701 heartbeat IPC: 0.3387 cumulative IPC: 0.3393 (Simulation time: 01 hr 00 min 41 sec)
[ERROR_CYCLE] Error added at CPU cycle 655504590, next at 685296427, pending count: 1
[DRAM_CYCLE_ERROR] Cycle-based error applied! address=0x1fd2f2010 additional_latency=173500 cycles
Heartbeat CPU 0 instructions: 230000046 cycles: 677802207 heartbeat IPC: 0.3392 cumulative IPC: 0.3393 (Simulation time: 01 hr 03 min 36 sec)
[ERROR_CYCLE] Error added at CPU cycle 685296428, next at 692067362, pending count: 1
[DRAM_CYCLE_ERROR] Cycle-based error applied! address=0xd8132cf08 additional_latency=173500 cycles
[ERROR_CYCLE] Error added at CPU cycle 692067362, next at 693560863, pending count: 1
[DRAM_CYCLE_ERROR] Cycle-based error applied! address=0xf730049c8 additional_latency=173500 cycles
[ERROR_CYCLE] Error added at CPU cycle 693560864, next at 696567615, pending count: 1
[DRAM_CYCLE_ERROR] Cycle-based error applied! address=0xa0802c1c0 additional_latency=173500 cycles
[ERROR_CYCLE] Error added at CPU cycle 696567615, next at 705122761, pending count: 1
[DRAM_CYCLE_ERROR] Cycle-based error applied! address=0x5f2f390c8 additional_latency=173500 cycles
[ERROR_CYCLE] Error added at CPU cycle 705122762, next at 747545945, pending count: 1
[DRAM_CYCLE_ERROR] Cycle-based error applied! address=0x3b4e96cd8 additional_latency=173500 cycles
Heartbeat CPU 0 instructions: 240000047 cycles: 707291853 heartbeat IPC: 0.3391 cumulative IPC: 0.3393 (Simulation time: 01 hr 06 min 17 sec)
Heartbeat CPU 0 instructions: 250000047 cycles: 736812781 heartbeat IPC: 0.3387 cumulative IPC: 0.3393 (Simulation time: 01 hr 08 min 44 sec)
[ERROR_CYCLE] Error added at CPU cycle 747545946, next at 748669179, pending count: 1
[DRAM_CYCLE_ERROR] Cycle-based error applied! address=0x720c42208 additional_latency=173500 cycles
[ERROR_CYCLE] Error added at CPU cycle 748669179, next at 755019492, pending count: 1
[DRAM_CYCLE_ERROR] Cycle-based error applied! address=0x9baa9f7d8 additional_latency=173500 cycles
[ERROR_CYCLE] Error added at CPU cycle 755019492, next at 755497083, pending count: 1
[DRAM_CYCLE_ERROR] Cycle-based error applied! address=0xedda21448 additional_latency=173500 cycles
[ERROR_CYCLE] Error added at CPU cycle 755497084, next at 758773095, pending count: 1
[DRAM_CYCLE_ERROR] Cycle-based error applied! address=0xa98394190 additional_latency=173500 cycles
[ERROR_CYCLE] Error added at CPU cycle 758773095, next at 767932446, pending count: 1
[DRAM_CYCLE_ERROR] Cycle-based error applied! address=0x838923a40 additional_latency=173500 cycles
Heartbeat CPU 0 instructions: 260000051 cycles: 766351135 heartbeat IPC: 0.3385 cumulative IPC: 0.3393 (Simulation time: 01 hr 11 min 19 sec)
[ERROR_CYCLE] Error added at CPU cycle 767932447, next at 768052303, pending count: 1
[DRAM_CYCLE_ERROR] Cycle-based error applied! address=0xb5bdc2240 additional_latency=173500 cycles
[ERROR_CYCLE] Error added at CPU cycle 768052303, next at 768100071, pending count: 1
[DRAM_CYCLE_ERROR] Cycle-based error applied! address=0xce6493470 additional_latency=173500 cycles
[ERROR_CYCLE] Error added at CPU cycle 768100072, next at 768264987, pending count: 1
[DRAM_CYCLE_ERROR] Cycle-based error applied! address=0x13503bf80 additional_latency=173500 cycles
[ERROR_CYCLE] Error added at CPU cycle 768264987, next at 773476830, pending count: 1
[DRAM_CYCLE_ERROR] Cycle-based error applied! address=0xd2aa80040 additional_latency=173500 cycles
[ERROR_CYCLE] Error added at CPU cycle 773476830, next at 775408797, pending count: 1
[DRAM_CYCLE_ERROR] Cycle-based error applied! address=0x8e301b010 additional_latency=173500 cycles
[ERROR_CYCLE] Error added at CPU cycle 775408797, next at 776477567, pending count: 1
[DRAM_CYCLE_ERROR] Cycle-based error applied! address=0x5d78d0520 additional_latency=173500 cycles
[ERROR_CYCLE] Error added at CPU cycle 776477568, next at 782055313, pending count: 1
[DRAM_CYCLE_ERROR] Cycle-based error applied! address=0x2967071d8 additional_latency=173500 cycles
[ERROR_CYCLE] Error added at CPU cycle 782055314, next at 793366198, pending count: 1
[DRAM_CYCLE_ERROR] Cycle-based error applied! address=0x63e4ca7d0 additional_latency=173500 cycles
[ERROR_CYCLE] Error added at CPU cycle 793366198, next at 800738627, pending count: 1
[DRAM_CYCLE_ERROR] Cycle-based error applied! address=0xad85827c8 additional_latency=173500 cycles
Heartbeat CPU 0 instructions: 270000051 cycles: 795879885 heartbeat IPC: 0.3387 cumulative IPC: 0.3392 (Simulation time: 01 hr 14 min 14 sec)
[ERROR_CYCLE] Error added at CPU cycle 800738628, next at 804703481, pending count: 1
[DRAM_CYCLE_ERROR] Cycle-based error applied! address=0xc3132ca00 additional_latency=173500 cycles
[ERROR_CYCLE] Error added at CPU cycle 804703481, next at 812634114, pending count: 1
[DRAM_CYCLE_ERROR] Cycle-based error applied! address=0x6bd5b7388 additional_latency=173500 cycles
[ERROR_CYCLE] Error added at CPU cycle 812634115, next at 825252033, pending count: 1
[DRAM_CYCLE_ERROR] Cycle-based error applied! address=0xcce89dc80 additional_latency=173500 cycles
[ERROR_CYCLE] Error added at CPU cycle 825252034, next at 830437472, pending count: 1
[DRAM_CYCLE_ERROR] Cycle-based error applied! address=0x566f99010 additional_latency=173500 cycles
Heartbeat CPU 0 instructions: 280000052 cycles: 825356232 heartbeat IPC: 0.3393 cumulative IPC: 0.3392 (Simulation time: 01 hr 17 min 11 sec)
[ERROR_CYCLE] Error added at CPU cycle 830437472, next at 838935145, pending count: 1
[DRAM_CYCLE_ERROR] Cycle-based error applied! address=0xe71cfae08 additional_latency=173500 cycles
[ERROR_CYCLE] Error added at CPU cycle 838935145, next at 861804158, pending count: 1
[DRAM_CYCLE_ERROR] Cycle-based error applied! address=0x22994cb48 additional_latency=173500 cycles
Heartbeat CPU 0 instructions: 290000052 cycles: 854789495 heartbeat IPC: 0.3398 cumulative IPC: 0.3393 (Simulation time: 01 hr 20 min 09 sec)
[ERROR_CYCLE] Error added at CPU cycle 861804158, next at 864139244, pending count: 1
[DRAM_CYCLE_ERROR] Cycle-based error applied! address=0x229e2f818 additional_latency=173500 cycles
[ERROR_CYCLE] Error added at CPU cycle 864139244, next at 883044804, pending count: 1
[DRAM_CYCLE_ERROR] Cycle-based error applied! address=0x84ac362d0 additional_latency=173500 cycles
[ERROR_CYCLE] Error added at CPU cycle 883044804, next at 885467139, pending count: 1
[DRAM_CYCLE_ERROR] Cycle-based error applied! address=0x21c5b1bd8 additional_latency=173500 cycles
Heartbeat CPU 0 instructions: 300000056 cycles: 884211934 heartbeat IPC: 0.3399 cumulative IPC: 0.3393 (Simulation time: 01 hr 23 min 05 sec)
[ERROR_CYCLE] Error added at CPU cycle 885467140, next at 887176065, pending count: 1
[DRAM_CYCLE_ERROR] Cycle-based error applied! address=0xadd33080 additional_latency=173500 cycles
[ERROR_CYCLE] Error added at CPU cycle 887176065, next at 891433294, pending count: 1
[DRAM_CYCLE_ERROR] Cycle-based error applied! address=0x3cdb8ef50 additional_latency=173500 cycles
[ERROR_CYCLE] Error added at CPU cycle 891433294, next at 910142062, pending count: 1
[DRAM_CYCLE_ERROR] Cycle-based error applied! address=0xa922898f8 additional_latency=173500 cycles
[ERROR_CYCLE] Error added at CPU cycle 910142062, next at 912455925, pending count: 1
[DRAM_CYCLE_ERROR] Cycle-based error applied! address=0xfb7a47558 additional_latency=173500 cycles
[ERROR_CYCLE] Error added at CPU cycle 912455925, next at 920452495, pending count: 1
[DRAM_CYCLE_ERROR] Cycle-based error applied! address=0x339623148 additional_latency=173500 cycles
Heartbeat CPU 0 instructions: 310000056 cycles: 913680906 heartbeat IPC: 0.3393 cumulative IPC: 0.3393 (Simulation time: 01 hr 26 min 00 sec)
[ERROR_CYCLE] Error added at CPU cycle 920452495, next at 925358975, pending count: 1
[DRAM_CYCLE_ERROR] Cycle-based error applied! address=0xd24794540 additional_latency=173500 cycles
[ERROR_CYCLE] Error added at CPU cycle 925358976, next at 928208581, pending count: 1
[DRAM_CYCLE_ERROR] Cycle-based error applied! address=0xcf58d7288 additional_latency=173500 cycles
[ERROR_CYCLE] Error added at CPU cycle 928208581, next at 935551244, pending count: 1
[DRAM_CYCLE_ERROR] Cycle-based error applied! address=0xcb34444c0 additional_latency=173500 cycles
[ERROR_CYCLE] Error added at CPU cycle 935551244, next at 940277711, pending count: 1
[DRAM_CYCLE_ERROR] Cycle-based error applied! address=0x829223fc0 additional_latency=173500 cycles
[ERROR_CYCLE] Error added at CPU cycle 940277711, next at 941361915, pending count: 1
[DRAM_CYCLE_ERROR] Cycle-based error applied! address=0xe1f10f448 additional_latency=173500 cycles
[ERROR_CYCLE] Error added at CPU cycle 941361915, next at 944131710, pending count: 1
[DRAM_CYCLE_ERROR] Cycle-based error applied! address=0xdf088f618 additional_latency=173500 cycles
Heartbeat CPU 0 instructions: 320000059 cycles: 943192856 heartbeat IPC: 0.3388 cumulative IPC: 0.3393 (Simulation time: 01 hr 28 min 50 sec)
[ERROR_CYCLE] Error added at CPU cycle 944131710, next at 965831250, pending count: 1
[DRAM_CYCLE_ERROR] Cycle-based error applied! address=0xda56e3690 additional_latency=173500 cycles
[ERROR_CYCLE] Error added at CPU cycle 965831250, next at 978230112, pending count: 1
[DRAM_CYCLE_ERROR] Cycle-based error applied! address=0x83305c900 additional_latency=173500 cycles
Heartbeat CPU 0 instructions: 330000059 cycles: 972674982 heartbeat IPC: 0.3392 cumulative IPC: 0.3393 (Simulation time: 01 hr 31 min 23 sec)
[ERROR_CYCLE] Error added at CPU cycle 978230113, next at 995345989, pending count: 1
[DRAM_CYCLE_ERROR] Cycle-based error applied! address=0xd9b95c9c0 additional_latency=173500 cycles
[ERROR_CYCLE] Error added at CPU cycle 995345989, next at 1001484614, pending count: 1
[DRAM_CYCLE_ERROR] Cycle-based error applied! address=0xb69ae08c0 additional_latency=173500 cycles
[ERROR_CYCLE] Error added at CPU cycle 1001484615, next at 1010972056, pending count: 1
[DRAM_CYCLE_ERROR] Cycle-based error applied! address=0x656eade40 additional_latency=173500 cycles
Heartbeat CPU 0 instructions: 340000061 cycles: 1002095115 heartbeat IPC: 0.3399 cumulative IPC: 0.3393 (Simulation time: 01 hr 33 min 46 sec)
[ERROR_CYCLE] Error added at CPU cycle 1010972057, next at 1013450836, pending count: 1
[DRAM_CYCLE_ERROR] Cycle-based error applied! address=0x1a54fd6a0 additional_latency=173500 cycles
[ERROR_CYCLE] Error added at CPU cycle 1013450836, next at 1027850374, pending count: 1
[DRAM_CYCLE_ERROR] Cycle-based error applied! address=0xb3c1097c8 additional_latency=173500 cycles
[ERROR_CYCLE] Error added at CPU cycle 1027850375, next at 1040360188, pending count: 1
[DRAM_CYCLE_ERROR] Cycle-based error applied! address=0xc1121180 additional_latency=173500 cycles
Heartbeat CPU 0 instructions: 350000063 cycles: 1031506195 heartbeat IPC: 0.34 cumulative IPC: 0.3393 (Simulation time: 01 hr 36 min 01 sec)
[ERROR_CYCLE] Error added at CPU cycle 1040360189, next at 1048241966, pending count: 1
[DRAM_CYCLE_ERROR] Cycle-based error applied! address=0x9383ed100 additional_latency=173500 cycles
[ERROR_CYCLE] Error added at CPU cycle 1048241966, next at 1057607729, pending count: 1
[DRAM_CYCLE_ERROR] Cycle-based error applied! address=0xbb3f3f400 additional_latency=173500 cycles
[ERROR_CYCLE] Error added at CPU cycle 1057607729, next at 1078039556, pending count: 1
[DRAM_CYCLE_ERROR] Cycle-based error applied! address=0xe1a1c9fd8 additional_latency=173500 cycles
Heartbeat CPU 0 instructions: 360000064 cycles: 1060934269 heartbeat IPC: 0.3398 cumulative IPC: 0.3393 (Simulation time: 01 hr 38 min 07 sec)
[ERROR_CYCLE] Error added at CPU cycle 1078039557, next at 1093227895, pending count: 1
[DRAM_CYCLE_ERROR] Cycle-based error applied! address=0x8a1b98200 additional_latency=173500 cycles
Heartbeat CPU 0 instructions: 370000067 cycles: 1090361743 heartbeat IPC: 0.3398 cumulative IPC: 0.3393 (Simulation time: 01 hr 40 min 35 sec)
[ERROR_CYCLE] Error added at CPU cycle 1093227895, next at 1095375545, pending count: 1
[DRAM_CYCLE_ERROR] Cycle-based error applied! address=0x56343ae50 additional_latency=173500 cycles
[ERROR_CYCLE] Error added at CPU cycle 1095375545, next at 1101804530, pending count: 1
[DRAM_CYCLE_ERROR] Cycle-based error applied! address=0x4829707e0 additional_latency=173500 cycles
[ERROR_CYCLE] Error added at CPU cycle 1101804530, next at 1107079687, pending count: 1
[DRAM_CYCLE_ERROR] Cycle-based error applied! address=0xabaac9148 additional_latency=173500 cycles
[ERROR_CYCLE] Error added at CPU cycle 1107079687, next at 1115318803, pending count: 1
[DRAM_CYCLE_ERROR] Cycle-based error applied! address=0xd67cb0e98 additional_latency=173500 cycles
[ERROR_CYCLE] Error added at CPU cycle 1115318803, next at 1135008200, pending count: 1
[DRAM_CYCLE_ERROR] Cycle-based error applied! address=0x39a01f718 additional_latency=173500 cycles
Heartbeat CPU 0 instructions: 380000068 cycles: 1119896258 heartbeat IPC: 0.3386 cumulative IPC: 0.3393 (Simulation time: 01 hr 43 min 28 sec)
[ERROR_CYCLE] Error added at CPU cycle 1135008201, next at 1140982700, pending count: 1
[DRAM_CYCLE_ERROR] Cycle-based error applied! address=0xc984167c0 additional_latency=173500 cycles
[ERROR_CYCLE] Error added at CPU cycle 1140982700, next at 1154083331, pending count: 1
[DRAM_CYCLE_ERROR] Cycle-based error applied! address=0xdf02aa920 additional_latency=173500 cycles
Heartbeat CPU 0 instructions: 390000071 cycles: 1149441906 heartbeat IPC: 0.3385 cumulative IPC: 0.3393 (Simulation time: 01 hr 46 min 26 sec)
[ERROR_CYCLE] Error added at CPU cycle 1154083332, next at 1155066855, pending count: 1
[DRAM_CYCLE_ERROR] Cycle-based error applied! address=0x2c0e6e390 additional_latency=173500 cycles
[ERROR_CYCLE] Error added at CPU cycle 1155066856, next at 1164180982, pending count: 1
[DRAM_CYCLE_ERROR] Cycle-based error applied! address=0x980031c88 additional_latency=173500 cycles
[ERROR_CYCLE] Error added at CPU cycle 1164180982, next at 1170052729, pending count: 1
[DRAM_CYCLE_ERROR] Cycle-based error applied! address=0x5714b14d0 additional_latency=173500 cycles
[ERROR_CYCLE] Error added at CPU cycle 1170052730, next at 1201159550, pending count: 1
[DRAM_CYCLE_ERROR] Cycle-based error applied! address=0x56b502588 additional_latency=173500 cycles
Heartbeat CPU 0 instructions: 400000074 cycles: 1178948571 heartbeat IPC: 0.3389 cumulative IPC: 0.3393 (Simulation time: 01 hr 49 min 24 sec)
[ERROR_CYCLE] Error added at CPU cycle 1201159551, next at 1219803754, pending count: 1
[DRAM_CYCLE_ERROR] Cycle-based error applied! address=0x1c111c6c8 additional_latency=173500 cycles
Heartbeat CPU 0 instructions: 410000076 cycles: 1208448651 heartbeat IPC: 0.339 cumulative IPC: 0.3393 (Simulation time: 01 hr 52 min 21 sec)
[ERROR_CYCLE] Error added at CPU cycle 1219803754, next at 1222032553, pending count: 1
[DRAM_CYCLE_ERROR] Cycle-based error applied! address=0x6f53c3450 additional_latency=173500 cycles
[ERROR_CYCLE] Error added at CPU cycle 1222032554, next at 1224789878, pending count: 1
[DRAM_CYCLE_ERROR] Cycle-based error applied! address=0xc3ff7e748 additional_latency=173500 cycles
[ERROR_CYCLE] Error added at CPU cycle 1224789879, next at 1231478862, pending count: 1
[DRAM_CYCLE_ERROR] Cycle-based error applied! address=0x4fef2860 additional_latency=173500 cycles
[ERROR_CYCLE] Error added at CPU cycle 1231478862, next at 1231912145, pending count: 1
[DRAM_CYCLE_ERROR] Cycle-based error applied! address=0x542381748 additional_latency=173500 cycles
[ERROR_CYCLE] Error added at CPU cycle 1231912145, next at 1236268432, pending count: 1
[DRAM_CYCLE_ERROR] Cycle-based error applied! address=0xe858e0208 additional_latency=173500 cycles
[ERROR_CYCLE] Error added at CPU cycle 1236268432, next at 1250618753, pending count: 1
[DRAM_CYCLE_ERROR] Cycle-based error applied! address=0x4baab1500 additional_latency=173500 cycles
Heartbeat CPU 0 instructions: 420000076 cycles: 1237982514 heartbeat IPC: 0.3386 cumulative IPC: 0.3393 (Simulation time: 01 hr 55 min 10 sec)
[ERROR_CYCLE] Error added at CPU cycle 1250618753, next at 1293864347, pending count: 1
[DRAM_CYCLE_ERROR] Cycle-based error applied! address=0x9a2b6a698 additional_latency=173500 cycles
Heartbeat CPU 0 instructions: 430000076 cycles: 1267505378 heartbeat IPC: 0.3387 cumulative IPC: 0.3392 (Simulation time: 01 hr 57 min 58 sec)
[ERROR_CYCLE] Error added at CPU cycle 1293864347, next at 1304881196, pending count: 1
[DRAM_CYCLE_ERROR] Cycle-based error applied! address=0x97291fa00 additional_latency=173500 cycles
Heartbeat CPU 0 instructions: 440000080 cycles: 1296994199 heartbeat IPC: 0.3391 cumulative IPC: 0.3392 (Simulation time: 02 hr 00 min 50 sec)
[ERROR_CYCLE] Error added at CPU cycle 1304881197, next at 1314838771, pending count: 1
[DRAM_CYCLE_ERROR] Cycle-based error applied! address=0x8c93a6c78 additional_latency=173500 cycles
[ERROR_CYCLE] Error added at CPU cycle 1314838771, next at 1321326019, pending count: 1
[DRAM_CYCLE_ERROR] Cycle-based error applied! address=0xe5a125d8 additional_latency=173500 cycles
[ERROR_CYCLE] Error added at CPU cycle 1321326020, next at 1334779567, pending count: 1
[DRAM_CYCLE_ERROR] Cycle-based error applied! address=0x590efa200 additional_latency=173500 cycles
Heartbeat CPU 0 instructions: 450000081 cycles: 1326459018 heartbeat IPC: 0.3394 cumulative IPC: 0.3392 (Simulation time: 02 hr 03 min 43 sec)
[ERROR_CYCLE] Error added at CPU cycle 1334779568, next at 1341662842, pending count: 1
[DRAM_CYCLE_ERROR] Cycle-based error applied! address=0xaa97ba960 additional_latency=173500 cycles
[ERROR_CYCLE] Error added at CPU cycle 1341662842, next at 1341958013, pending count: 1
[DRAM_CYCLE_ERROR] Cycle-based error applied! address=0xd1b5f14c0 additional_latency=173500 cycles
[ERROR_CYCLE] Error added at CPU cycle 1341958014, next at 1347444921, pending count: 1
[DRAM_CYCLE_ERROR] Cycle-based error applied! address=0x1d8cc2810 additional_latency=173500 cycles
[ERROR_CYCLE] Error added at CPU cycle 1347444921, next at 1348889686, pending count: 1
[DRAM_CYCLE_ERROR] Cycle-based error applied! address=0x34aa26400 additional_latency=173500 cycles
[ERROR_CYCLE] Error added at CPU cycle 1348889686, next at 1370368934, pending count: 1
[DRAM_CYCLE_ERROR] Cycle-based error applied! address=0x2befb40c0 additional_latency=173500 cycles
Heartbeat CPU 0 instructions: 460000083 cycles: 1355855926 heartbeat IPC: 0.3402 cumulative IPC: 0.3393 (Simulation time: 02 hr 06 min 37 sec)
[ERROR_CYCLE] Error added at CPU cycle 1370368934, next at 1377657432, pending count: 1
[DRAM_CYCLE_ERROR] Cycle-based error applied! address=0x9fc6f34c8 additional_latency=173500 cycles
[ERROR_CYCLE] Error added at CPU cycle 1377657432, next at 1418042020, pending count: 1
[DRAM_CYCLE_ERROR] Cycle-based error applied! address=0xa0135d640 additional_latency=173500 cycles
Heartbeat CPU 0 instructions: 470000085 cycles: 1385187689 heartbeat IPC: 0.3409 cumulative IPC: 0.3393 (Simulation time: 02 hr 09 min 31 sec)
Heartbeat CPU 0 instructions: 480000086 cycles: 1414560769 heartbeat IPC: 0.3404 cumulative IPC: 0.3393 (Simulation time: 02 hr 12 min 27 sec)
[ERROR_CYCLE] Error added at CPU cycle 1418042020, next at 1428774744, pending count: 1
[DRAM_CYCLE_ERROR] Cycle-based error applied! address=0x193bed210 additional_latency=173500 cycles
[ERROR_CYCLE] Error added at CPU cycle 1428774745, next at 1430659638, pending count: 1
[DRAM_CYCLE_ERROR] Cycle-based error applied! address=0xa95999000 additional_latency=173500 cycles
[ERROR_CYCLE] Error added at CPU cycle 1430659639, next at 1434805602, pending count: 1
[DRAM_CYCLE_ERROR] Cycle-based error applied! address=0xd04eae720 additional_latency=173500 cycles
[ERROR_CYCLE] Error added at CPU cycle 1434805602, next at 1439910027, pending count: 1
[DRAM_CYCLE_ERROR] Cycle-based error applied! address=0xe56899150 additional_latency=173500 cycles
[ERROR_CYCLE] Error added at CPU cycle 1439910028, next at 1455265502, pending count: 1
[DRAM_CYCLE_ERROR] Cycle-based error applied! address=0x17ee4a000 additional_latency=173500 cycles
Heartbeat CPU 0 instructions: 490000086 cycles: 1443901278 heartbeat IPC: 0.3408 cumulative IPC: 0.3394 (Simulation time: 02 hr 15 min 23 sec)
[ERROR_CYCLE] Error added at CPU cycle 1455265502, next at 1456081149, pending count: 1
[DRAM_CYCLE_ERROR] Cycle-based error applied! address=0x24fc00218 additional_latency=173500 cycles
[ERROR_CYCLE] Error added at CPU cycle 1456081149, next at 1459633187, pending count: 1
[DRAM_CYCLE_ERROR] Cycle-based error applied! address=0x14acfa890 additional_latency=173500 cycles
[ERROR_CYCLE] Error added at CPU cycle 1459633187, next at 1470585164, pending count: 1
[DRAM_CYCLE_ERROR] Cycle-based error applied! address=0x1fb9baa60 additional_latency=173500 cycles
[ERROR_CYCLE] Error added at CPU cycle 1470585164, next at 1472949657, pending count: 1
[DRAM_CYCLE_ERROR] Cycle-based error applied! address=0x542adc790 additional_latency=173500 cycles
[ERROR_CYCLE] Error added at CPU cycle 1472949657, next at 1483173147, pending count: 1
[DRAM_CYCLE_ERROR] Cycle-based error applied! address=0xde2d7ba68 additional_latency=173500 cycles
Heartbeat CPU 0 instructions: 500000086 cycles: 1473366557 heartbeat IPC: 0.3394 cumulative IPC: 0.3394 (Simulation time: 02 hr 18 min 20 sec)
[ERROR_CYCLE] Error added at CPU cycle 1483173148, next at 1484511175, pending count: 1
[DRAM_CYCLE_ERROR] Cycle-based error applied! address=0x34755b250 additional_latency=173500 cycles
[ERROR_CYCLE] Error added at CPU cycle 1484511175, next at 1492326095, pending count: 1
[DRAM_CYCLE_ERROR] Cycle-based error applied! address=0x6ecc9bd18 additional_latency=173500 cycles
[ERROR_CYCLE] Error added at CPU cycle 1492326095, next at 1498403147, pending count: 1
[DRAM_CYCLE_ERROR] Cycle-based error applied! address=0x3fd9e1150 additional_latency=173500 cycles
[ERROR_CYCLE] Error added at CPU cycle 1498403147, next at 1500174205, pending count: 1
[DRAM_CYCLE_ERROR] Cycle-based error applied! address=0x485d841c8 additional_latency=173500 cycles
[ERROR_CYCLE] Error added at CPU cycle 1500174206, next at 1504681962, pending count: 1
[DRAM_CYCLE_ERROR] Cycle-based error applied! address=0x52d957e48 additional_latency=173500 cycles
Heartbeat CPU 0 instructions: 510000087 cycles: 1502807758 heartbeat IPC: 0.3397 cumulative IPC: 0.3394 (Simulation time: 02 hr 20 min 53 sec)
[ERROR_CYCLE] Error added at CPU cycle 1504681962, next at 1508176422, pending count: 1
[DRAM_CYCLE_ERROR] Cycle-based error applied! address=0x342d7400 additional_latency=173500 cycles
[ERROR_CYCLE] Error added at CPU cycle 1508176422, next at 1510980618, pending count: 1
[DRAM_CYCLE_ERROR] Cycle-based error applied! address=0x6f4f72108 additional_latency=173500 cycles
[ERROR_CYCLE] Error added at CPU cycle 1510980618, next at 1540506590, pending count: 1
[DRAM_CYCLE_ERROR] Cycle-based error applied! address=0x227b7fb00 additional_latency=173500 cycles
Heartbeat CPU 0 instructions: 520000087 cycles: 1532143157 heartbeat IPC: 0.3409 cumulative IPC: 0.3394 (Simulation time: 02 hr 23 min 16 sec)
[ERROR_CYCLE] Error added at CPU cycle 1540506591, next at 1545633908, pending count: 1
[DRAM_CYCLE_ERROR] Cycle-based error applied! address=0xed97d0ad0 additional_latency=173500 cycles
[ERROR_CYCLE] Error added at CPU cycle 1545633909, next at 1555382131, pending count: 1
[DRAM_CYCLE_ERROR] Cycle-based error applied! address=0x78f51e6d0 additional_latency=173500 cycles
[ERROR_CYCLE] Error added at CPU cycle 1555382132, next at 1559379921, pending count: 1
[DRAM_CYCLE_ERROR] Cycle-based error applied! address=0xe2e4c2fc8 additional_latency=173500 cycles
[ERROR_CYCLE] Error added at CPU cycle 1559379922, next at 1568250473, pending count: 1
[DRAM_CYCLE_ERROR] Cycle-based error applied! address=0x5a7fdb690 additional_latency=173500 cycles
Heartbeat CPU 0 instructions: 530000091 cycles: 1561514841 heartbeat IPC: 0.3405 cumulative IPC: 0.3394 (Simulation time: 02 hr 26 min 14 sec)
[ERROR_CYCLE] Error added at CPU cycle 1568250473, next at 1568397086, pending count: 1
[DRAM_CYCLE_ERROR] Cycle-based error applied! address=0x3e404f818 additional_latency=173500 cycles
[ERROR_CYCLE] Error added at CPU cycle 1568397086, next at 1571204618, pending count: 1
[DRAM_CYCLE_ERROR] Cycle-based error applied! address=0x64fe27210 additional_latency=173500 cycles
[ERROR_CYCLE] Error added at CPU cycle 1571204618, next at 1572401785, pending count: 1
[DRAM_CYCLE_ERROR] Cycle-based error applied! address=0x9dc5c3ef8 additional_latency=173500 cycles
[ERROR_CYCLE] Error added at CPU cycle 1572401785, next at 1585569552, pending count: 1
[DRAM_CYCLE_ERROR] Cycle-based error applied! address=0x4f1e5f088 additional_latency=173500 cycles
[ERROR_CYCLE] Error added at CPU cycle 1585569553, next at 1586429627, pending count: 1
[DRAM_CYCLE_ERROR] Cycle-based error applied! address=0x7faaefa50 additional_latency=173500 cycles
[ERROR_CYCLE] Error added at CPU cycle 1586429628, next at 1598198580, pending count: 1
[DRAM_CYCLE_ERROR] Cycle-based error applied! address=0xdf56fa880 additional_latency=173500 cycles
Heartbeat CPU 0 instructions: 540000093 cycles: 1591075473 heartbeat IPC: 0.3383 cumulative IPC: 0.3394 (Simulation time: 02 hr 28 min 59 sec)
[ERROR_CYCLE] Error added at CPU cycle 1598198580, next at 1609933064, pending count: 1
[DRAM_CYCLE_ERROR] Cycle-based error applied! address=0x2b35fad80 additional_latency=173500 cycles
[ERROR_CYCLE] Error added at CPU cycle 1609933064, next at 1625877684, pending count: 1
[DRAM_CYCLE_ERROR] Cycle-based error applied! address=0xefe98ed90 additional_latency=173500 cycles
Heartbeat CPU 0 instructions: 550000093 cycles: 1620562363 heartbeat IPC: 0.3391 cumulative IPC: 0.3394 (Simulation time: 02 hr 31 min 50 sec)
[ERROR_CYCLE] Error added at CPU cycle 1625877685, next at 1636789861, pending count: 1
[DRAM_CYCLE_ERROR] Cycle-based error applied! address=0x47807efb0 additional_latency=173500 cycles
[ERROR_CYCLE] Error added at CPU cycle 1636789862, next at 1644796500, pending count: 1
[DRAM_CYCLE_ERROR] Cycle-based error applied! address=0x9b478f240 additional_latency=173500 cycles
[ERROR_CYCLE] Error added at CPU cycle 1644796501, next at 1651860450, pending count: 1
[DRAM_CYCLE_ERROR] Cycle-based error applied! address=0x316f79f18 additional_latency=173500 cycles
Heartbeat CPU 0 instructions: 560000095 cycles: 1650056756 heartbeat IPC: 0.339 cumulative IPC: 0.3394 (Simulation time: 02 hr 34 min 21 sec)
[ERROR_CYCLE] Error added at CPU cycle 1651860451, next at 1653809977, pending count: 1
[DRAM_CYCLE_ERROR] Cycle-based error applied! address=0xfb9df6fd0 additional_latency=173500 cycles
[ERROR_CYCLE] Error added at CPU cycle 1653809978, next at 1657379418, pending count: 1
[DRAM_CYCLE_ERROR] Cycle-based error applied! address=0x14c1e0148 additional_latency=173500 cycles
[ERROR_CYCLE] Error added at CPU cycle 1657379418, next at 1658264083, pending count: 1
[DRAM_CYCLE_ERROR] Cycle-based error applied! address=0x6ef2cb580 additional_latency=173500 cycles
[ERROR_CYCLE] Error added at CPU cycle 1658264083, next at 1665882359, pending count: 1
[DRAM_CYCLE_ERROR] Cycle-based error applied! address=0xb69299ac0 additional_latency=173500 cycles
[ERROR_CYCLE] Error added at CPU cycle 1665882360, next at 1676059798, pending count: 1
[DRAM_CYCLE_ERROR] Cycle-based error applied! address=0xfa1970f00 additional_latency=173500 cycles
[ERROR_CYCLE] Error added at CPU cycle 1676059798, next at 1681837268, pending count: 1
[DRAM_CYCLE_ERROR] Cycle-based error applied! address=0xa333515c0 additional_latency=173500 cycles
Heartbeat CPU 0 instructions: 570000095 cycles: 1679473597 heartbeat IPC: 0.3399 cumulative IPC: 0.3394 (Simulation time: 02 hr 37 min 18 sec)
[ERROR_CYCLE] Error added at CPU cycle 1681837269, next at 1682449489, pending count: 1
[DRAM_CYCLE_ERROR] Cycle-based error applied! address=0x50a242158 additional_latency=173500 cycles
[ERROR_CYCLE] Error added at CPU cycle 1682449490, next at 1684531699, pending count: 1
[DRAM_CYCLE_ERROR] Cycle-based error applied! address=0x3b17fa320 additional_latency=173500 cycles
[ERROR_CYCLE] Error added at CPU cycle 1684531699, next at 1689632708, pending count: 1
[DRAM_CYCLE_ERROR] Cycle-based error applied! address=0x300b11310 additional_latency=173500 cycles
[ERROR_CYCLE] Error added at CPU cycle 1689632708, next at 1698666429, pending count: 1
[DRAM_CYCLE_ERROR] Cycle-based error applied! address=0xa56270300 additional_latency=173500 cycles
[ERROR_CYCLE] Error added at CPU cycle 1698666429, next at 1712907950, pending count: 1
[DRAM_CYCLE_ERROR] Cycle-based error applied! address=0xeef72ec98 additional_latency=173500 cycles
Heartbeat CPU 0 instructions: 580000099 cycles: 1708923828 heartbeat IPC: 0.3396 cumulative IPC: 0.3394 (Simulation time: 02 hr 40 min 17 sec)
[ERROR_CYCLE] Error added at CPU cycle 1712907950, next at 1723767518, pending count: 1
[DRAM_CYCLE_ERROR] Cycle-based error applied! address=0x6472b4ad8 additional_latency=173500 cycles
[ERROR_CYCLE] Error added at CPU cycle 1723767518, next at 1724455640, pending count: 1
[DRAM_CYCLE_ERROR] Cycle-based error applied! address=0xac95d6f48 additional_latency=173500 cycles
[ERROR_CYCLE] Error added at CPU cycle 1724455640, next at 1732720291, pending count: 1
[DRAM_CYCLE_ERROR] Cycle-based error applied! address=0x84d9f75d0 additional_latency=173500 cycles
[ERROR_CYCLE] Error added at CPU cycle 1732720291, next at 1732872069, pending count: 1
[DRAM_CYCLE_ERROR] Cycle-based error applied! address=0xe64cd1858 additional_latency=173500 cycles
[ERROR_CYCLE] Error added at CPU cycle 1732872069, next at 1761065331, pending count: 1
[DRAM_CYCLE_ERROR] Cycle-based error applied! address=0x78b88250 additional_latency=173500 cycles
Heartbeat CPU 0 instructions: 590000102 cycles: 1738366601 heartbeat IPC: 0.3396 cumulative IPC: 0.3394 (Simulation time: 02 hr 43 min 11 sec)
[ERROR_CYCLE] Error added at CPU cycle 1761065331, next at 1793147943, pending count: 1
[DRAM_CYCLE_ERROR] Cycle-based error applied! address=0x321225900 additional_latency=173500 cycles
Heartbeat CPU 0 instructions: 600000104 cycles: 1767813287 heartbeat IPC: 0.3396 cumulative IPC: 0.3394 (Simulation time: 02 hr 46 min 08 sec)
[ERROR_CYCLE] Error added at CPU cycle 1793147943, next at 1793813373, pending count: 1
[DRAM_CYCLE_ERROR] Cycle-based error applied! address=0xea3690ec0 additional_latency=173500 cycles
[ERROR_CYCLE] Error added at CPU cycle 1793813374, next at 1797803186, pending count: 1
[DRAM_CYCLE_ERROR] Cycle-based error applied! address=0xffea0fc98 additional_latency=173500 cycles
Heartbeat CPU 0 instructions: 610000105 cycles: 1797310030 heartbeat IPC: 0.339 cumulative IPC: 0.3394 (Simulation time: 02 hr 49 min 06 sec)
[ERROR_CYCLE] Error added at CPU cycle 1797803186, next at 1799966554, pending count: 1
[DRAM_CYCLE_ERROR] Cycle-based error applied! address=0xa15f90c50 additional_latency=173500 cycles
[ERROR_CYCLE] Error added at CPU cycle 1799966554, next at 1816349209, pending count: 1
[DRAM_CYCLE_ERROR] Cycle-based error applied! address=0x5da47d978 additional_latency=173500 cycles
[ERROR_CYCLE] Error added at CPU cycle 1816349210, next at 1825528779, pending count: 1
[DRAM_CYCLE_ERROR] Cycle-based error applied! address=0xdf2f3fd20 additional_latency=173500 cycles
[ERROR_CYCLE] Error added at CPU cycle 1825528779, next at 1834768449, pending count: 1
[DRAM_CYCLE_ERROR] Cycle-based error applied! address=0x94c0a7888 additional_latency=173500 cycles
Heartbeat CPU 0 instructions: 620000107 cycles: 1831119992 heartbeat IPC: 0.2958 cumulative IPC: 0.3386 (Simulation time: 02 hr 52 min 25 sec)
[ERROR_CYCLE] Error added at CPU cycle 1834768449, next at 1844525260, pending count: 1
[DRAM_CYCLE_ERROR] Cycle-based error applied! address=0xebdcea650 additional_latency=173500 cycles
[ERROR_CYCLE] Error added at CPU cycle 1844525260, next at 1850641546, pending count: 1
[DRAM_CYCLE_ERROR] Cycle-based error applied! address=0x72b58c798 additional_latency=173500 cycles
[ERROR_CYCLE] Error added at CPU cycle 1850641546, next at 1889060908, pending count: 1
[DRAM_CYCLE_ERROR] Cycle-based error applied! address=0xb33b547d8 additional_latency=173500 cycles
Heartbeat CPU 0 instructions: 630000107 cycles: 1863457776 heartbeat IPC: 0.3092 cumulative IPC: 0.3381 (Simulation time: 02 hr 55 min 35 sec)
[ERROR_CYCLE] Error added at CPU cycle 1889060908, next at 1893058439, pending count: 1
[DRAM_CYCLE_ERROR] Cycle-based error applied! address=0x80f99e990 additional_latency=173500 cycles
[ERROR_CYCLE] Error added at CPU cycle 1893058439, next at 1893848597, pending count: 1
[DRAM_CYCLE_ERROR] Cycle-based error applied! address=0xb5c624e88 additional_latency=173500 cycles
[ERROR_CYCLE] Error added at CPU cycle 1893848597, next at 1896618500, pending count: 1
[DRAM_CYCLE_ERROR] Cycle-based error applied! address=0xcb5245e10 additional_latency=173500 cycles
Heartbeat CPU 0 instructions: 640000107 cycles: 1893897562 heartbeat IPC: 0.3285 cumulative IPC: 0.3379 (Simulation time: 02 hr 58 min 04 sec)
[ERROR_CYCLE] Error added at CPU cycle 1896618500, next at 1899563940, pending count: 1
[DRAM_CYCLE_ERROR] Cycle-based error applied! address=0xa2f828200 additional_latency=173500 cycles
[ERROR_CYCLE] Error added at CPU cycle 1899563940, next at 1916523007, pending count: 1
[DRAM_CYCLE_ERROR] Cycle-based error applied! address=0x1592f3a08 additional_latency=173500 cycles
[ERROR_CYCLE] Error added at CPU cycle 1916523007, next at 1919993062, pending count: 1
[DRAM_CYCLE_ERROR] Cycle-based error applied! address=0x3c9602e88 additional_latency=173500 cycles
[ERROR_CYCLE] Error added at CPU cycle 1919993063, next at 1953397181, pending count: 1
[DRAM_CYCLE_ERROR] Cycle-based error applied! address=0xb2fec6b88 additional_latency=173500 cycles
Heartbeat CPU 0 instructions: 650000107 cycles: 1924960237 heartbeat IPC: 0.3219 cumulative IPC: 0.3377 (Simulation time: 03 hr 00 min 59 sec)
[ERROR_CYCLE] Error added at CPU cycle 1953397182, next at 1957960083, pending count: 1
[DRAM_CYCLE_ERROR] Cycle-based error applied! address=0xa7169e988 additional_latency=173500 cycles
Heartbeat CPU 0 instructions: 660000108 cycles: 1954823713 heartbeat IPC: 0.3349 cumulative IPC: 0.3376 (Simulation time: 03 hr 03 min 28 sec)
[ERROR_CYCLE] Error added at CPU cycle 1957960083, next at 1964413148, pending count: 1
[DRAM_CYCLE_ERROR] Cycle-based error applied! address=0x907756608 additional_latency=173500 cycles
[ERROR_CYCLE] Error added at CPU cycle 1964413148, next at 1975694798, pending count: 1
[DRAM_CYCLE_ERROR] Cycle-based error applied! address=0x17b425008 additional_latency=173500 cycles
[ERROR_CYCLE] Error added at CPU cycle 1975694799, next at 1978590678, pending count: 1
[DRAM_CYCLE_ERROR] Cycle-based error applied! address=0x248989308 additional_latency=173500 cycles
[ERROR_CYCLE] Error added at CPU cycle 1978590678, next at 1999903695, pending count: 1
[DRAM_CYCLE_ERROR] Cycle-based error applied! address=0x75e71008 additional_latency=173500 cycles
Heartbeat CPU 0 instructions: 670000109 cycles: 1984309891 heartbeat IPC: 0.3391 cumulative IPC: 0.3376 (Simulation time: 03 hr 06 min 26 sec)
[ERROR_CYCLE] Error added at CPU cycle 1999903696, next at 2039968677, pending count: 1
[DRAM_CYCLE_ERROR] Cycle-based error applied! address=0xc9f6fad18 additional_latency=173500 cycles
Heartbeat CPU 0 instructions: 680000110 cycles: 2013733916 heartbeat IPC: 0.3399 cumulative IPC: 0.3377 (Simulation time: 03 hr 09 min 18 sec)
[ERROR_CYCLE] Error added at CPU cycle 2039968677, next at 2041475847, pending count: 1
[DRAM_CYCLE_ERROR] Cycle-based error applied! address=0x7a53b4248 additional_latency=173500 cycles
[ERROR_CYCLE] Error added at CPU cycle 2041475847, next at 2047560792, pending count: 1
[DRAM_CYCLE_ERROR] Cycle-based error applied! address=0xd155c920 additional_latency=173500 cycles
Heartbeat CPU 0 instructions: 690000111 cycles: 2043057499 heartbeat IPC: 0.341 cumulative IPC: 0.3377 (Simulation time: 03 hr 12 min 08 sec)
[ERROR_CYCLE] Error added at CPU cycle 2047560792, next at 2057318185, pending count: 1
[DRAM_CYCLE_ERROR] Cycle-based error applied! address=0x3b00b2780 additional_latency=173500 cycles
[ERROR_CYCLE] Error added at CPU cycle 2057318185, next at 2060443789, pending count: 1
[DRAM_CYCLE_ERROR] Cycle-based error applied! address=0xcf8f01c30 additional_latency=173500 cycles
[ERROR_CYCLE] Error added at CPU cycle 2060443790, next at 2081336312, pending count: 1
[DRAM_CYCLE_ERROR] Cycle-based error applied! address=0x9f78b5248 additional_latency=173500 cycles
Heartbeat CPU 0 instructions: 700000115 cycles: 2072389333 heartbeat IPC: 0.3409 cumulative IPC: 0.3378 (Simulation time: 03 hr 14 min 46 sec)
[ERROR_CYCLE] Error added at CPU cycle 2081336313, next at 2086511136, pending count: 1
[DRAM_CYCLE_ERROR] Cycle-based error applied! address=0xfeefabd58 additional_latency=173500 cycles
[ERROR_CYCLE] Error added at CPU cycle 2086511137, next at 2122093809, pending count: 1
[DRAM_CYCLE_ERROR] Cycle-based error applied! address=0x951da0108 additional_latency=173500 cycles
Heartbeat CPU 0 instructions: 710000116 cycles: 2101714091 heartbeat IPC: 0.341 cumulative IPC: 0.3378 (Simulation time: 03 hr 17 min 42 sec)
[ERROR_CYCLE] Error added at CPU cycle 2122093810, next at 2127094108, pending count: 1
[DRAM_CYCLE_ERROR] Cycle-based error applied! address=0xe6e58f208 additional_latency=173500 cycles
[ERROR_CYCLE] Error added at CPU cycle 2127094108, next at 2135895343, pending count: 1
[DRAM_CYCLE_ERROR] Cycle-based error applied! address=0xcd1f501c8 additional_latency=173500 cycles
Heartbeat CPU 0 instructions: 720000117 cycles: 2131010103 heartbeat IPC: 0.3413 cumulative IPC: 0.3379 (Simulation time: 03 hr 20 min 34 sec)
[ERROR_CYCLE] Error added at CPU cycle 2135895344, next at 2136799738, pending count: 1
[DRAM_CYCLE_ERROR] Cycle-based error applied! address=0xca92ce40 additional_latency=173500 cycles
[ERROR_CYCLE] Error added at CPU cycle 2136799738, next at 2139453762, pending count: 1
[DRAM_CYCLE_ERROR] Cycle-based error applied! address=0xb6962e3d0 additional_latency=173500 cycles
[ERROR_CYCLE] Error added at CPU cycle 2139453763, next at 2143754350, pending count: 1
[DRAM_CYCLE_ERROR] Cycle-based error applied! address=0xe7a5dac8 additional_latency=173500 cycles
[ERROR_CYCLE] Error added at CPU cycle 2143754351, next at 2143833455, pending count: 1
[DRAM_CYCLE_ERROR] Cycle-based error applied! address=0x87321fe80 additional_latency=173500 cycles
[ERROR_CYCLE] Error added at CPU cycle 2143833456, next at 2170169196, pending count: 1
[DRAM_CYCLE_ERROR] Cycle-based error applied! address=0x3083820c8 additional_latency=173500 cycles
Heartbeat CPU 0 instructions: 730000120 cycles: 2160477852 heartbeat IPC: 0.3394 cumulative IPC: 0.3379 (Simulation time: 03 hr 22 min 52 sec)
[ERROR_CYCLE] Error added at CPU cycle 2170169196, next at 2170565878, pending count: 1
[DRAM_CYCLE_ERROR] Cycle-based error applied! address=0x442280aa0 additional_latency=173500 cycles
[ERROR_CYCLE] Error added at CPU cycle 2170565879, next at 2195034269, pending count: 1
[DRAM_CYCLE_ERROR] Cycle-based error applied! address=0xf36fcf10 additional_latency=173500 cycles
Heartbeat CPU 0 instructions: 740000121 cycles: 2189956948 heartbeat IPC: 0.3392 cumulative IPC: 0.3379 (Simulation time: 03 hr 25 min 50 sec)
[ERROR_CYCLE] Error added at CPU cycle 2195034270, next at 2204436534, pending count: 1
[DRAM_CYCLE_ERROR] Cycle-based error applied! address=0x9380796d0 additional_latency=173500 cycles
[ERROR_CYCLE] Error added at CPU cycle 2204436534, next at 2217211204, pending count: 1
[DRAM_CYCLE_ERROR] Cycle-based error applied! address=0x530f023d0 additional_latency=173500 cycles
[ERROR_CYCLE] Error added at CPU cycle 2217211205, next at 2223054796, pending count: 1
[DRAM_CYCLE_ERROR] Cycle-based error applied! address=0x1c6e92850 additional_latency=173500 cycles
Heartbeat CPU 0 instructions: 750000122 cycles: 2219410550 heartbeat IPC: 0.3395 cumulative IPC: 0.3379 (Simulation time: 03 hr 28 min 48 sec)
[ERROR_CYCLE] Error added at CPU cycle 2223054797, next at 2228544198, pending count: 1
[DRAM_CYCLE_ERROR] Cycle-based error applied! address=0xc8a4a62c8 additional_latency=173500 cycles
[ERROR_CYCLE] Error added at CPU cycle 2228544198, next at 2232019815, pending count: 1
[DRAM_CYCLE_ERROR] Cycle-based error applied! address=0x273f517a0 additional_latency=173500 cycles
[ERROR_CYCLE] Error added at CPU cycle 2232019815, next at 2235515925, pending count: 1
[DRAM_CYCLE_ERROR] Cycle-based error applied! address=0xc24cc8488 additional_latency=173500 cycles
[ERROR_CYCLE] Error added at CPU cycle 2235515925, next at 2237647010, pending count: 1
[DRAM_CYCLE_ERROR] Cycle-based error applied! address=0x3bbb1020 additional_latency=173500 cycles
[ERROR_CYCLE] Error added at CPU cycle 2237647010, next at 2248080448, pending count: 1
[DRAM_CYCLE_ERROR] Cycle-based error applied! address=0xfc6d462d8 additional_latency=173500 cycles
[ERROR_CYCLE] Error added at CPU cycle 2248080448, next at 2268555961, pending count: 1
[DRAM_CYCLE_ERROR] Cycle-based error applied! address=0xbaf8fed08 additional_latency=173500 cycles
Heartbeat CPU 0 instructions: 760000122 cycles: 2248935373 heartbeat IPC: 0.3387 cumulative IPC: 0.3379 (Simulation time: 03 hr 31 min 47 sec)
[ERROR_CYCLE] Error added at CPU cycle 2268555961, next at 2288482074, pending count: 1
[DRAM_CYCLE_ERROR] Cycle-based error applied! address=0xc25232208 additional_latency=173500 cycles
Heartbeat CPU 0 instructions: 770000122 cycles: 2278448802 heartbeat IPC: 0.3388 cumulative IPC: 0.3379 (Simulation time: 03 hr 34 min 34 sec)
[ERROR_CYCLE] Error added at CPU cycle 2288482074, next at 2294298920, pending count: 1
[DRAM_CYCLE_ERROR] Cycle-based error applied! address=0xe88716190 additional_latency=173500 cycles
[ERROR_CYCLE] Error added at CPU cycle 2294298920, next at 2295073929, pending count: 1
[DRAM_CYCLE_ERROR] Cycle-based error applied! address=0xb8c904aa0 additional_latency=173500 cycles
[ERROR_CYCLE] Error added at CPU cycle 2295073930, next at 2296867031, pending count: 1
[DRAM_CYCLE_ERROR] Cycle-based error applied! address=0xbf3aa05e0 additional_latency=173500 cycles
[ERROR_CYCLE] Error added at CPU cycle 2296867031, next at 2305759519, pending count: 1
[DRAM_CYCLE_ERROR] Cycle-based error applied! address=0x9b4e81990 additional_latency=173500 cycles
[ERROR_CYCLE] Error added at CPU cycle 2305759519, next at 2317589146, pending count: 1
[DRAM_CYCLE_ERROR] Cycle-based error applied! address=0x4bcf113c0 additional_latency=173500 cycles
Heartbeat CPU 0 instructions: 780000124 cycles: 2307889249 heartbeat IPC: 0.3397 cumulative IPC: 0.338 (Simulation time: 03 hr 37 min 33 sec)
[ERROR_CYCLE] Error added at CPU cycle 2317589146, next at 2319340389, pending count: 1
[DRAM_CYCLE_ERROR] Cycle-based error applied! address=0x90c807dc0 additional_latency=173500 cycles
[ERROR_CYCLE] Error added at CPU cycle 2319340390, next at 2321630499, pending count: 1
[DRAM_CYCLE_ERROR] Cycle-based error applied! address=0xac86c3c50 additional_latency=173500 cycles
[ERROR_CYCLE] Error added at CPU cycle 2321630499, next at 2328230742, pending count: 1
[DRAM_CYCLE_ERROR] Cycle-based error applied! address=0xa9034b008 additional_latency=173500 cycles
[ERROR_CYCLE] Error added at CPU cycle 2328230742, next at 2330492435, pending count: 1
[DRAM_CYCLE_ERROR] Cycle-based error applied! address=0xa0c2e8d40 additional_latency=173500 cycles
[ERROR_CYCLE] Error added at CPU cycle 2330492436, next at 2331166908, pending count: 1
[DRAM_CYCLE_ERROR] Cycle-based error applied! address=0xd735b2b10 additional_latency=173500 cycles
[ERROR_CYCLE] Error added at CPU cycle 2331166908, next at 2332314393, pending count: 1
[DRAM_CYCLE_ERROR] Cycle-based error applied! address=0xd684cc0 additional_latency=173500 cycles
[ERROR_CYCLE] Error added at CPU cycle 2332314393, next at 2334063851, pending count: 1
[DRAM_CYCLE_ERROR] Cycle-based error applied! address=0x41ec0d580 additional_latency=173500 cycles
[ERROR_CYCLE] Error added at CPU cycle 2334063851, next at 2375625705, pending count: 1
[DRAM_CYCLE_ERROR] Cycle-based error applied! address=0xb4d059050 additional_latency=173500 cycles
Heartbeat CPU 0 instructions: 790000127 cycles: 2337222576 heartbeat IPC: 0.3409 cumulative IPC: 0.338 (Simulation time: 03 hr 40 min 31 sec)
Heartbeat CPU 0 instructions: 800000128 cycles: 2366689543 heartbeat IPC: 0.3394 cumulative IPC: 0.338 (Simulation time: 03 hr 43 min 22 sec)
[ERROR_CYCLE] Error added at CPU cycle 2375625705, next at 2388203853, pending count: 1
[DRAM_CYCLE_ERROR] Cycle-based error applied! address=0xb59606958 additional_latency=173500 cycles
[ERROR_CYCLE] Error added at CPU cycle 2388203853, next at 2394260406, pending count: 1
[DRAM_CYCLE_ERROR] Cycle-based error applied! address=0xec961cbc0 additional_latency=173500 cycles
[ERROR_CYCLE] Error added at CPU cycle 2394260407, next at 2419140556, pending count: 1
[DRAM_CYCLE_ERROR] Cycle-based error applied! address=0x98b80b988 additional_latency=173500 cycles
Heartbeat CPU 0 instructions: 810000128 cycles: 2396171060 heartbeat IPC: 0.3392 cumulative IPC: 0.338 (Simulation time: 03 hr 46 min 15 sec)
[ERROR_CYCLE] Error added at CPU cycle 2419140557, next at 2424145521, pending count: 1
[DRAM_CYCLE_ERROR] Cycle-based error applied! address=0x43902cfc0 additional_latency=173500 cycles
[ERROR_CYCLE] Error added at CPU cycle 2424145521, next at 2429301214, pending count: 1
[DRAM_CYCLE_ERROR] Cycle-based error applied! address=0x9faae3bc8 additional_latency=173500 cycles
Heartbeat CPU 0 instructions: 820000128 cycles: 2425684855 heartbeat IPC: 0.3388 cumulative IPC: 0.338 (Simulation time: 03 hr 48 min 46 sec)
[ERROR_CYCLE] Error added at CPU cycle 2429301214, next at 2462176563, pending count: 1
[DRAM_CYCLE_ERROR] Cycle-based error applied! address=0x4b00cb490 additional_latency=173500 cycles
Heartbeat CPU 0 instructions: 830000128 cycles: 2455171041 heartbeat IPC: 0.3391 cumulative IPC: 0.3381 (Simulation time: 03 hr 51 min 12 sec)
[ERROR_CYCLE] Error added at CPU cycle 2462176564, next at 2471115500, pending count: 1
[DRAM_CYCLE_ERROR] Cycle-based error applied! address=0xcb97a9040 additional_latency=173500 cycles
[ERROR_CYCLE] Error added at CPU cycle 2471115500, next at 2482235696, pending count: 1
[DRAM_CYCLE_ERROR] Cycle-based error applied! address=0x516bc70a0 additional_latency=173500 cycles
[ERROR_CYCLE] Error added at CPU cycle 2482235696, next at 2484445689, pending count: 1
[DRAM_CYCLE_ERROR] Cycle-based error applied! address=0xc9687b080 additional_latency=173500 cycles
[ERROR_CYCLE] Error added at CPU cycle 2484445689, next at 2487826583, pending count: 1
[DRAM_CYCLE_ERROR] Cycle-based error applied! address=0x2a7382a60 additional_latency=173500 cycles
Heartbeat CPU 0 instructions: 840000128 cycles: 2484611914 heartbeat IPC: 0.3397 cumulative IPC: 0.3381 (Simulation time: 03 hr 53 min 53 sec)
[ERROR_CYCLE] Error added at CPU cycle 2487826583, next at 2492127373, pending count: 1
[DRAM_CYCLE_ERROR] Cycle-based error applied! address=0x72f1a6d20 additional_latency=173500 cycles
[ERROR_CYCLE] Error added at CPU cycle 2492127374, next at 2505689272, pending count: 1
[DRAM_CYCLE_ERROR] Cycle-based error applied! address=0xe5931f388 additional_latency=173500 cycles
[ERROR_CYCLE] Error added at CPU cycle 2505689272, next at 2515529207, pending count: 1
[DRAM_CYCLE_ERROR] Cycle-based error applied! address=0x6c99b6840 additional_latency=173500 cycles
Heartbeat CPU 0 instructions: 850000131 cycles: 2514070397 heartbeat IPC: 0.3395 cumulative IPC: 0.3381 (Simulation time: 03 hr 56 min 53 sec)
[ERROR_CYCLE] Error added at CPU cycle 2515529208, next at 2520692507, pending count: 1
[DRAM_CYCLE_ERROR] Cycle-based error applied! address=0x471e0cd88 additional_latency=173500 cycles
[ERROR_CYCLE] Error added at CPU cycle 2520692507, next at 2526977663, pending count: 1
[DRAM_CYCLE_ERROR] Cycle-based error applied! address=0x9d3e8e190 additional_latency=173500 cycles
[ERROR_CYCLE] Error added at CPU cycle 2526977664, next at 2534787706, pending count: 1
[DRAM_CYCLE_ERROR] Cycle-based error applied! address=0xbee7c84d8 additional_latency=173500 cycles
[ERROR_CYCLE] Error added at CPU cycle 2534787706, next at 2539634993, pending count: 1
[DRAM_CYCLE_ERROR] Cycle-based error applied! address=0x5734386d0 additional_latency=173500 cycles
[ERROR_CYCLE] Error added at CPU cycle 2539634993, next at 2541357327, pending count: 1
[DRAM_CYCLE_ERROR] Cycle-based error applied! address=0x8c56f1498 additional_latency=173500 cycles
[ERROR_CYCLE] Error added at CPU cycle 2541357328, next at 2563015622, pending count: 1
[DRAM_CYCLE_ERROR] Cycle-based error applied! address=0x6f586058 additional_latency=173500 cycles
Heartbeat CPU 0 instructions: 860000134 cycles: 2543344881 heartbeat IPC: 0.3416 cumulative IPC: 0.3381 (Simulation time: 03 hr 59 min 43 sec)
[ERROR_CYCLE] Error added at CPU cycle 2563015623, next at 2574248413, pending count: 1
[DRAM_CYCLE_ERROR] Cycle-based error applied! address=0x31fa16288 additional_latency=173500 cycles
Heartbeat CPU 0 instructions: 870000134 cycles: 2572647119 heartbeat IPC: 0.3413 cumulative IPC: 0.3382 (Simulation time: 04 hr 01 min 53 sec)
[ERROR_CYCLE] Error added at CPU cycle 2574248413, next at 2584536777, pending count: 1
[DRAM_CYCLE_ERROR] Cycle-based error applied! address=0xe24b92688 additional_latency=173500 cycles
[ERROR_CYCLE] Error added at CPU cycle 2584536777, next at 2633667804, pending count: 1
[DRAM_CYCLE_ERROR] Cycle-based error applied! address=0x73b402bc0 additional_latency=173500 cycles
Heartbeat CPU 0 instructions: 880000136 cycles: 2601920327 heartbeat IPC: 0.3416 cumulative IPC: 0.3382 (Simulation time: 04 hr 04 min 27 sec)
Heartbeat CPU 0 instructions: 890000137 cycles: 2631245000 heartbeat IPC: 0.341 cumulative IPC: 0.3382 (Simulation time: 04 hr 07 min 01 sec)
[ERROR_CYCLE] Error added at CPU cycle 2633667805, next at 2637894515, pending count: 1
[DRAM_CYCLE_ERROR] Cycle-based error applied! address=0xdbbf1dd90 additional_latency=173500 cycles
[ERROR_CYCLE] Error added at CPU cycle 2637894516, next at 2648211880, pending count: 1
[DRAM_CYCLE_ERROR] Cycle-based error applied! address=0x70c645ee0 additional_latency=173500 cycles
[ERROR_CYCLE] Error added at CPU cycle 2648211880, next at 2649012483, pending count: 1
[DRAM_CYCLE_ERROR] Cycle-based error applied! address=0xdab13380 additional_latency=173500 cycles
[ERROR_CYCLE] Error added at CPU cycle 2649012484, next at 2655650192, pending count: 1
[DRAM_CYCLE_ERROR] Cycle-based error applied! address=0xa9fc5fe50 additional_latency=173500 cycles
[ERROR_CYCLE] Error added at CPU cycle 2655650192, next at 2663525915, pending count: 1
[DRAM_CYCLE_ERROR] Cycle-based error applied! address=0x16e451e48 additional_latency=173500 cycles
Heartbeat CPU 0 instructions: 900000137 cycles: 2660628474 heartbeat IPC: 0.3403 cumulative IPC: 0.3383 (Simulation time: 04 hr 09 min 54 sec)
[ERROR_CYCLE] Error added at CPU cycle 2663525915, next at 2686778622, pending count: 1
[DRAM_CYCLE_ERROR] Cycle-based error applied! address=0x64d7de820 additional_latency=173500 cycles
[ERROR_CYCLE] Error added at CPU cycle 2686778623, next at 2706990306, pending count: 1
[DRAM_CYCLE_ERROR] Cycle-based error applied! address=0xa345ea558 additional_latency=173500 cycles
Heartbeat CPU 0 instructions: 910000140 cycles: 2689995582 heartbeat IPC: 0.3405 cumulative IPC: 0.3383 (Simulation time: 04 hr 12 min 41 sec)
[ERROR_CYCLE] Error added at CPU cycle 2706990306, next at 2707500157, pending count: 1
[DRAM_CYCLE_ERROR] Cycle-based error applied! address=0x96e0b6f50 additional_latency=173500 cycles
[ERROR_CYCLE] Error added at CPU cycle 2707500157, next at 2711785951, pending count: 1
[DRAM_CYCLE_ERROR] Cycle-based error applied! address=0x63c256d48 additional_latency=173500 cycles
[ERROR_CYCLE] Error added at CPU cycle 2711785952, next at 2722419252, pending count: 1
[DRAM_CYCLE_ERROR] Cycle-based error applied! address=0x36afab360 additional_latency=173500 cycles
Heartbeat CPU 0 instructions: 920000140 cycles: 2719361377 heartbeat IPC: 0.3405 cumulative IPC: 0.3383 (Simulation time: 04 hr 15 min 27 sec)
[ERROR_CYCLE] Error added at CPU cycle 2722419253, next at 2734191801, pending count: 1
[DRAM_CYCLE_ERROR] Cycle-based error applied! address=0x5e9c66008 additional_latency=173500 cycles
[ERROR_CYCLE] Error added at CPU cycle 2734191802, next at 2762580882, pending count: 1
[DRAM_CYCLE_ERROR] Cycle-based error applied! address=0xff4719310 additional_latency=173500 cycles
Heartbeat CPU 0 instructions: 930000140 cycles: 2748738388 heartbeat IPC: 0.3404 cumulative IPC: 0.3383 (Simulation time: 04 hr 17 min 53 sec)
[ERROR_CYCLE] Error added at CPU cycle 2762580882, next at 2768610152, pending count: 1
[DRAM_CYCLE_ERROR] Cycle-based error applied! address=0x6294ad400 additional_latency=173500 cycles
[ERROR_CYCLE] Error added at CPU cycle 2768610153, next at 2784603218, pending count: 1
[DRAM_CYCLE_ERROR] Cycle-based error applied! address=0x33bf8c2c8 additional_latency=173500 cycles
Heartbeat CPU 0 instructions: 940000144 cycles: 2778116513 heartbeat IPC: 0.3404 cumulative IPC: 0.3384 (Simulation time: 04 hr 20 min 23 sec)
[ERROR_CYCLE] Error added at CPU cycle 2784603218, next at 2791831024, pending count: 1
[DRAM_CYCLE_ERROR] Cycle-based error applied! address=0x4e3a99a10 additional_latency=173500 cycles
[ERROR_CYCLE] Error added at CPU cycle 2791831025, next at 2801792805, pending count: 1
[DRAM_CYCLE_ERROR] Cycle-based error applied! address=0x559181f20 additional_latency=173500 cycles
[ERROR_CYCLE] Error added at CPU cycle 2801792805, next at 2802263784, pending count: 1
[DRAM_CYCLE_ERROR] Cycle-based error applied! address=0x1ebf37de0 additional_latency=173500 cycles
[ERROR_CYCLE] Error added at CPU cycle 2802263784, next at 2805327961, pending count: 1
[DRAM_CYCLE_ERROR] Cycle-based error applied! address=0x55dea8ac0 additional_latency=173500 cycles
[ERROR_CYCLE] Error added at CPU cycle 2805327962, next at 2808931246, pending count: 1
[DRAM_CYCLE_ERROR] Cycle-based error applied! address=0x91de23f00 additional_latency=173500 cycles
Heartbeat CPU 0 instructions: 950000147 cycles: 2807541591 heartbeat IPC: 0.3398 cumulative IPC: 0.3384 (Simulation time: 04 hr 22 min 32 sec)
[ERROR_CYCLE] Error added at CPU cycle 2808931247, next at 2816309239, pending count: 1
[DRAM_CYCLE_ERROR] Cycle-based error applied! address=0xe558633c8 additional_latency=173500 cycles
[ERROR_CYCLE] Error added at CPU cycle 2816309240, next at 2826601536, pending count: 1
[DRAM_CYCLE_ERROR] Cycle-based error applied! address=0x49650f1c8 additional_latency=173500 cycles
[ERROR_CYCLE] Error added at CPU cycle 2826601536, next at 2860916053, pending count: 1
[DRAM_CYCLE_ERROR] Cycle-based error applied! address=0xb551f4cd0 additional_latency=173500 cycles
Heartbeat CPU 0 instructions: 960000147 cycles: 2836925772 heartbeat IPC: 0.3403 cumulative IPC: 0.3384 (Simulation time: 04 hr 24 min 34 sec)
[ERROR_CYCLE] Error added at CPU cycle 2860916053, next at 2870223242, pending count: 1
[DRAM_CYCLE_ERROR] Cycle-based error applied! address=0x5f6086490 additional_latency=173500 cycles
Heartbeat CPU 0 instructions: 970000149 cycles: 2866311245 heartbeat IPC: 0.3403 cumulative IPC: 0.3384 (Simulation time: 04 hr 27 min 33 sec)
[ERROR_CYCLE] Error added at CPU cycle 2870223243, next at 2884087618, pending count: 1
[DRAM_CYCLE_ERROR] Cycle-based error applied! address=0xfd1874dc0 additional_latency=173500 cycles
[ERROR_CYCLE] Error added at CPU cycle 2884087618, next at 2892827392, pending count: 1
[DRAM_CYCLE_ERROR] Cycle-based error applied! address=0xcc147d188 additional_latency=173500 cycles
[ERROR_CYCLE] Error added at CPU cycle 2892827392, next at 2899902752, pending count: 1
[DRAM_CYCLE_ERROR] Cycle-based error applied! address=0x72b64bb08 additional_latency=173500 cycles
Heartbeat CPU 0 instructions: 980000150 cycles: 2895710593 heartbeat IPC: 0.3401 cumulative IPC: 0.3384 (Simulation time: 04 hr 30 min 31 sec)
[ERROR_CYCLE] Error added at CPU cycle 2899902753, next at 2921677388, pending count: 1
[DRAM_CYCLE_ERROR] Cycle-based error applied! address=0x7ca0fc988 additional_latency=173500 cycles
[ERROR_CYCLE] Error added at CPU cycle 2921677388, next at 2926276412, pending count: 1
[DRAM_CYCLE_ERROR] Cycle-based error applied! address=0xab2a140c8 additional_latency=173500 cycles
Heartbeat CPU 0 instructions: 990000150 cycles: 2925077759 heartbeat IPC: 0.3405 cumulative IPC: 0.3385 (Simulation time: 04 hr 32 min 56 sec)
[ERROR_CYCLE] Error added at CPU cycle 2926276412, next at 2942166062, pending count: 1
[DRAM_CYCLE_ERROR] Cycle-based error applied! address=0xcde7a5060 additional_latency=173500 cycles
[ERROR_CYCLE] Error added at CPU cycle 2942166063, next at 2942802865, pending count: 1
[DRAM_CYCLE_ERROR] Cycle-based error applied! address=0xda69713a0 additional_latency=173500 cycles
[ERROR_CYCLE] Error added at CPU cycle 2942802866, next at 2957660694, pending count: 1
[DRAM_CYCLE_ERROR] Cycle-based error applied! address=0x5f12081e0 additional_latency=173500 cycles
Heartbeat CPU 0 instructions: 1000000152 cycles: 2954491149 heartbeat IPC: 0.34 cumulative IPC: 0.3385 (Simulation time: 04 hr 35 min 33 sec)
[ERROR_CYCLE] Error added at CPU cycle 2957660694, next at 2973123696, pending count: 1
[DRAM_CYCLE_ERROR] Cycle-based error applied! address=0xae21879c0 additional_latency=173500 cycles
[ERROR_CYCLE] Error added at CPU cycle 2973123697, next at 2986952310, pending count: 1
[DRAM_CYCLE_ERROR] Cycle-based error applied! address=0x58136f550 additional_latency=173500 cycles
Heartbeat CPU 0 instructions: 1010000153 cycles: 2983820920 heartbeat IPC: 0.341 cumulative IPC: 0.3385 (Simulation time: 04 hr 38 min 30 sec)
[ERROR_CYCLE] Error added at CPU cycle 2986952310, next at 3024457243, pending count: 1
[DRAM_CYCLE_ERROR] Cycle-based error applied! address=0x48fa19680 additional_latency=173500 cycles
Heartbeat CPU 0 instructions: 1020000155 cycles: 3013127175 heartbeat IPC: 0.3412 cumulative IPC: 0.3385 (Simulation time: 04 hr 41 min 21 sec)
[ERROR_CYCLE] Error added at CPU cycle 3024457243, next at 3025131631, pending count: 1
[DRAM_CYCLE_ERROR] Cycle-based error applied! address=0xc6ab7ed98 additional_latency=173500 cycles
[ERROR_CYCLE] Error added at CPU cycle 3025131632, next at 3039063732, pending count: 1
[DRAM_CYCLE_ERROR] Cycle-based error applied! address=0xe37901548 additional_latency=173500 cycles
[ERROR_CYCLE] Error added at CPU cycle 3039063732, next at 3042156612, pending count: 1
[DRAM_CYCLE_ERROR] Cycle-based error applied! address=0xec6f3b590 additional_latency=173500 cycles
[ERROR_CYCLE] Error added at CPU cycle 3042156612, next at 3049153556, pending count: 1
[DRAM_CYCLE_ERROR] Cycle-based error applied! address=0xc876c0840 additional_latency=173500 cycles
Heartbeat CPU 0 instructions: 1030000155 cycles: 3042574131 heartbeat IPC: 0.3396 cumulative IPC: 0.3385 (Simulation time: 04 hr 43 min 19 sec)
[ERROR_CYCLE] Error added at CPU cycle 3049153557, next at 3071479979, pending count: 1
[DRAM_CYCLE_ERROR] Cycle-based error applied! address=0x893b59d18 additional_latency=173500 cycles
[ERROR_CYCLE] Error added at CPU cycle 3071479979, next at 3075438839, pending count: 1
[DRAM_CYCLE_ERROR] Cycle-based error applied! address=0xe3cd02280 additional_latency=173500 cycles
Heartbeat CPU 0 instructions: 1040000157 cycles: 3071952567 heartbeat IPC: 0.3404 cumulative IPC: 0.3385 (Simulation time: 04 hr 45 min 32 sec)
[ERROR_CYCLE] Error added at CPU cycle 3075438840, next at 3101604216, pending count: 1
[DRAM_CYCLE_ERROR] Cycle-based error applied! address=0x2b1fb5080 additional_latency=173500 cycles
Heartbeat CPU 0 instructions: 1050000160 cycles: 3101293545 heartbeat IPC: 0.3408 cumulative IPC: 0.3386 (Simulation time: 04 hr 48 min 30 sec)
[ERROR_CYCLE] Error added at CPU cycle 3101604217, next at 3105234572, pending count: 1
[DRAM_CYCLE_ERROR] Cycle-based error applied! address=0x77f4318d8 additional_latency=173500 cycles
[ERROR_CYCLE] Error added at CPU cycle 3105234572, next at 3120731691, pending count: 1
[DRAM_CYCLE_ERROR] Cycle-based error applied! address=0xadb9b3260 additional_latency=173500 cycles
[ERROR_CYCLE] Error added at CPU cycle 3120731692, next at 3148717972, pending count: 1
[DRAM_CYCLE_ERROR] Cycle-based error applied! address=0x213899b00 additional_latency=173500 cycles
Heartbeat CPU 0 instructions: 1060000161 cycles: 3130665928 heartbeat IPC: 0.3405 cumulative IPC: 0.3386 (Simulation time: 04 hr 51 min 25 sec)
[ERROR_CYCLE] Error added at CPU cycle 3148717972, next at 3149188062, pending count: 1
[DRAM_CYCLE_ERROR] Cycle-based error applied! address=0x7042bc608 additional_latency=173500 cycles
[ERROR_CYCLE] Error added at CPU cycle 3149188062, next at 3162239438, pending count: 1
[DRAM_CYCLE_ERROR] Cycle-based error applied! address=0x5340fad00 additional_latency=173500 cycles
Heartbeat CPU 0 instructions: 1070000162 cycles: 3160022597 heartbeat IPC: 0.3406 cumulative IPC: 0.3386 (Simulation time: 04 hr 54 min 23 sec)
[ERROR_CYCLE] Error added at CPU cycle 3162239438, next at 3169530421, pending count: 1
[DRAM_CYCLE_ERROR] Cycle-based error applied! address=0x51e88a4c0 additional_latency=173500 cycles
[ERROR_CYCLE] Error added at CPU cycle 3169530422, next at 3171491275, pending count: 1
[DRAM_CYCLE_ERROR] Cycle-based error applied! address=0xe47c536c0 additional_latency=173500 cycles
[ERROR_CYCLE] Error added at CPU cycle 3171491275, next at 3174258426, pending count: 1
[DRAM_CYCLE_ERROR] Cycle-based error applied! address=0x64a5965a0 additional_latency=173500 cycles
[ERROR_CYCLE] Error added at CPU cycle 3174258427, next at 3181740600, pending count: 1
[DRAM_CYCLE_ERROR] Cycle-based error applied! address=0x8fc6652c0 additional_latency=173500 cycles
[ERROR_CYCLE] Error added at CPU cycle 3181740600, next at 3184842257, pending count: 1
[DRAM_CYCLE_ERROR] Cycle-based error applied! address=0xdd3fe4430 additional_latency=173500 cycles
[ERROR_CYCLE] Error added at CPU cycle 3184842257, next at 3192260021, pending count: 1
[DRAM_CYCLE_ERROR] Cycle-based error applied! address=0x1b6c96240 additional_latency=173500 cycles
Heartbeat CPU 0 instructions: 1080000163 cycles: 3189404515 heartbeat IPC: 0.3403 cumulative IPC: 0.3386 (Simulation time: 04 hr 57 min 15 sec)
[ERROR_CYCLE] Error added at CPU cycle 3192260022, next at 3197491641, pending count: 1
[DRAM_CYCLE_ERROR] Cycle-based error applied! address=0x8ab200708 additional_latency=173500 cycles
[ERROR_CYCLE] Error added at CPU cycle 3197491641, next at 3199192862, pending count: 1
[DRAM_CYCLE_ERROR] Cycle-based error applied! address=0x9cdbb8f80 additional_latency=173500 cycles
[ERROR_CYCLE] Error added at CPU cycle 3199192863, next at 3207021728, pending count: 1
[DRAM_CYCLE_ERROR] Cycle-based error applied! address=0xe24463b60 additional_latency=173500 cycles
[ERROR_CYCLE] Error added at CPU cycle 3207021728, next at 3236344921, pending count: 1
[DRAM_CYCLE_ERROR] Cycle-based error applied! address=0xa7ae95898 additional_latency=173500 cycles
Heartbeat CPU 0 instructions: 1090000163 cycles: 3218800372 heartbeat IPC: 0.3402 cumulative IPC: 0.3386 (Simulation time: 04 hr 59 min 35 sec)
[ERROR_CYCLE] Error added at CPU cycle 3236344921, next at 3242347323, pending count: 1
[DRAM_CYCLE_ERROR] Cycle-based error applied! address=0xc262ff5a0 additional_latency=173500 cycles
[ERROR_CYCLE] Error added at CPU cycle 3242347323, next at 3257930057, pending count: 1
[DRAM_CYCLE_ERROR] Cycle-based error applied! address=0xb0ea6008 additional_latency=173500 cycles
Heartbeat CPU 0 instructions: 1100000164 cycles: 3248197542 heartbeat IPC: 0.3402 cumulative IPC: 0.3386 (Simulation time: 05 hr 02 min 00 sec)
[ERROR_CYCLE] Error added at CPU cycle 3257930058, next at 3263380049, pending count: 1
[DRAM_CYCLE_ERROR] Cycle-based error applied! address=0x759025000 additional_latency=173500 cycles
[...]
[ERROR_CYCLE] Error added at CPU cycle 5273348261, next at 5278403503, pending count: 1
[DRAM_CYCLE_ERROR] Cycle-based error applied! address=0xbcf207740 additional_latency=173500 cycles
[ERROR_CYCLE] Error added at CPU cycle 5278403503, next at 5279168617, pending count: 1
[DRAM_CYCLE_ERROR] Cycle-based error applied! address=0x5ed47f190 additional_latency=173500 cycles
[ERROR_CYCLE] Error added at CPU cycle 5279168617, next at 5285172712, pending count: 1
[DRAM_CYCLE_ERROR] Cycle-based error applied! address=0x1e6a66948 additional_latency=173500 cycles
Heartbeat CPU 0 instructions: 1800000252 cycles: 5282865883 heartbeat IPC: 0.3524 cumulative IPC: 0.3407 (Simulation time: 08 hr 15 min 15 sec)
[ERROR_CYCLE] Error added at CPU cycle 5285172713, next at 5291704888, pending count: 1
[DRAM_CYCLE_ERROR] Cycle-based error applied! address=0xfab220840 additional_latency=173500 cycles
[ERROR_CYCLE] Error added at CPU cycle 5291704888, next at 5304701321, pending count: 1
[DRAM_CYCLE_ERROR] Cycle-based error applied! address=0x671553100 additional_latency=173500 cycles
[ERROR_CYCLE] Error added at CPU cycle 5304701321, next at 5315927219, pending count: 1
[DRAM_CYCLE_ERROR] Cycle-based error applied! address=0xc825559d0 additional_latency=173500 cycles
Heartbeat CPU 0 instructions: 1810000253 cycles: 5311176823 heartbeat IPC: 0.3532 cumulative IPC: 0.3408 (Simulation time: 08 hr 17 min 54 sec)
[ERROR_CYCLE] Error added at CPU cycle 5315927219, next at 5329231279, pending count: 1
[DRAM_CYCLE_ERROR] Cycle-based error applied! address=0x4773e6a60 additional_latency=173500 cycles
[ERROR_CYCLE] Error added at CPU cycle 5329231280, next at 5371444883, pending count: 1
[DRAM_CYCLE_ERROR] Cycle-based error applied! address=0xf2d7fc008 additional_latency=173500 cycles
Heartbeat CPU 0 instructions: 1820000255 cycles: 5339467699 heartbeat IPC: 0.3535 cumulative IPC: 0.3409 (Simulation time: 08 hr 20 min 30 sec)
Heartbeat CPU 0 instructions: 1830000257 cycles: 5367768046 heartbeat IPC: 0.3534 cumulative IPC: 0.3409 (Simulation time: 08 hr 23 min 21 sec)
[ERROR_CYCLE] Error added at CPU cycle 5371444883, next at 5393783179, pending count: 1
[DRAM_CYCLE_ERROR] Cycle-based error applied! address=0x55587d3a0 additional_latency=173500 cycles
[ERROR_CYCLE] Error added at CPU cycle 5393783180, next at 5396506524, pending count: 1
[DRAM_CYCLE_ERROR] Cycle-based error applied! address=0x135b7b7c0 additional_latency=173500 cycles
Heartbeat CPU 0 instructions: 1840000259 cycles: 5396092100 heartbeat IPC: 0.3531 cumulative IPC: 0.341 (Simulation time: 08 hr 26 min 12 sec)
[ERROR_CYCLE] Error added at CPU cycle 5396506524, next at 5408670725, pending count: 1
[DRAM_CYCLE_ERROR] Cycle-based error applied! address=0xd60b173c0 additional_latency=173500 cycles
[ERROR_CYCLE] Error added at CPU cycle 5408670725, next at 5420521780, pending count: 1
[DRAM_CYCLE_ERROR] Cycle-based error applied! address=0xddc4aab10 additional_latency=173500 cycles
[ERROR_CYCLE] Error added at CPU cycle 5420521781, next at 5425624671, pending count: 1
[DRAM_CYCLE_ERROR] Cycle-based error applied! address=0x3b543a9c8 additional_latency=173500 cycles
Heartbeat CPU 0 instructions: 1850000259 cycles: 5424402139 heartbeat IPC: 0.3532 cumulative IPC: 0.3411 (Simulation time: 08 hr 29 min 02 sec)
[ERROR_CYCLE] Error added at CPU cycle 5425624672, next at 5437819774, pending count: 1
[DRAM_CYCLE_ERROR] Cycle-based error applied! address=0xd2b0b7090 additional_latency=173500 cycles
[ERROR_CYCLE] Error added at CPU cycle 5437819775, next at 5443916750, pending count: 1
[DRAM_CYCLE_ERROR] Cycle-based error applied! address=0x5ca2c5b88 additional_latency=173500 cycles
[ERROR_CYCLE] Error added at CPU cycle 5443916751, next at 5445924147, pending count: 1
[DRAM_CYCLE_ERROR] Cycle-based error applied! address=0xb1fe46d00 additional_latency=173500 cycles
[ERROR_CYCLE] Error added at CPU cycle 5445924147, next at 5449149040, pending count: 1
[DRAM_CYCLE_ERROR] Cycle-based error applied! address=0x5994947c8 additional_latency=173500 cycles
[ERROR_CYCLE] Error added at CPU cycle 5449149041, next at 5464102586, pending count: 1
[DRAM_CYCLE_ERROR] Cycle-based error applied! address=0xd7070ed10 additional_latency=173500 cycles
Heartbeat CPU 0 instructions: 1860000262 cycles: 5452745137 heartbeat IPC: 0.3528 cumulative IPC: 0.3411 (Simulation time: 08 hr 31 min 53 sec)
[ERROR_CYCLE] Error added at CPU cycle 5464102587, next at 5477724603, pending count: 1
[DRAM_CYCLE_ERROR] Cycle-based error applied! address=0xa586d64c0 additional_latency=173500 cycles
[ERROR_CYCLE] Error added at CPU cycle 5477724603, next at 5503187131, pending count: 1
[DRAM_CYCLE_ERROR] Cycle-based error applied! address=0xd07b12048 additional_latency=173500 cycles
Heartbeat CPU 0 instructions: 1870000263 cycles: 5481030179 heartbeat IPC: 0.3535 cumulative IPC: 0.3412 (Simulation time: 08 hr 34 min 44 sec)
[ERROR_CYCLE] Error added at CPU cycle 5503187131, next at 5507748661, pending count: 1
[DRAM_CYCLE_ERROR] Cycle-based error applied! address=0x4f807b340 additional_latency=173500 cycles
[ERROR_CYCLE] Error added at CPU cycle 5507748661, next at 5517230758, pending count: 1
[DRAM_CYCLE_ERROR] Cycle-based error applied! address=0x5d4845010 additional_latency=173500 cycles
Heartbeat CPU 0 instructions: 1880000264 cycles: 5509346665 heartbeat IPC: 0.3532 cumulative IPC: 0.3412 (Simulation time: 08 hr 37 min 34 sec)
[ERROR_CYCLE] Error added at CPU cycle 5517230759, next at 5517716072, pending count: 1
[DRAM_CYCLE_ERROR] Cycle-based error applied! address=0x32cfb1118 additional_latency=173500 cycles
[ERROR_CYCLE] Error added at CPU cycle 5517716072, next at 5546432313, pending count: 1
[DRAM_CYCLE_ERROR] Cycle-based error applied! address=0xc9e0d1108 additional_latency=173500 cycles
Heartbeat CPU 0 instructions: 1890000267 cycles: 5537653202 heartbeat IPC: 0.3533 cumulative IPC: 0.3413 (Simulation time: 08 hr 40 min 13 sec)
[ERROR_CYCLE] Error added at CPU cycle 5546432313, next at 5551309693, pending count: 1
[DRAM_CYCLE_ERROR] Cycle-based error applied! address=0x64831a420 additional_latency=173500 cycles
[ERROR_CYCLE] Error added at CPU cycle 5551309693, next at 5551907922, pending count: 1
[DRAM_CYCLE_ERROR] Cycle-based error applied! address=0x7d14cd9d8 additional_latency=173500 cycles
[ERROR_CYCLE] Error added at CPU cycle 5551907923, next at 5552567897, pending count: 1
[DRAM_CYCLE_ERROR] Cycle-based error applied! address=0xab72d6a98 additional_latency=173500 cycles
[ERROR_CYCLE] Error added at CPU cycle 5552567897, next at 5553852757, pending count: 1
[DRAM_CYCLE_ERROR] Cycle-based error applied! address=0xe1a051340 additional_latency=173500 cycles
[ERROR_CYCLE] Error added at CPU cycle 5553852758, next at 5588283915, pending count: 1
[DRAM_CYCLE_ERROR] Cycle-based error applied! address=0xd19cf87d0 additional_latency=173500 cycles
Heartbeat CPU 0 instructions: 1900000271 cycles: 5565941415 heartbeat IPC: 0.3535 cumulative IPC: 0.3414 (Simulation time: 08 hr 43 min 04 sec)
[ERROR_CYCLE] Error added at CPU cycle 5588283915, next at 5604641865, pending count: 1
[DRAM_CYCLE_ERROR] Cycle-based error applied! address=0xd5ead3210 additional_latency=173500 cycles
Heartbeat CPU 0 instructions: 1910000274 cycles: 5594260200 heartbeat IPC: 0.3531 cumulative IPC: 0.3414 (Simulation time: 08 hr 45 min 22 sec)
[ERROR_CYCLE] Error added at CPU cycle 5604641865, next at 5610739673, pending count: 1
[DRAM_CYCLE_ERROR] Cycle-based error applied! address=0x3e1bf460 additional_latency=173500 cycles
[ERROR_CYCLE] Error added at CPU cycle 5610739673, next at 5617470111, pending count: 1
[DRAM_CYCLE_ERROR] Cycle-based error applied! address=0x405a2e740 additional_latency=173500 cycles
[ERROR_CYCLE] Error added at CPU cycle 5617470112, next at 5621813251, pending count: 1
[DRAM_CYCLE_ERROR] Cycle-based error applied! address=0x273b433a0 additional_latency=173500 cycles
[ERROR_CYCLE] Error added at CPU cycle 5621813252, next at 5623053059, pending count: 1
[DRAM_CYCLE_ERROR] Cycle-based error applied! address=0xfc1f80e10 additional_latency=173500 cycles
Heartbeat CPU 0 instructions: 1920000278 cycles: 5622590692 heartbeat IPC: 0.353 cumulative IPC: 0.3415 (Simulation time: 08 hr 47 min 40 sec)
[ERROR_CYCLE] Error added at CPU cycle 5623053060, next at 5644301037, pending count: 1
[DRAM_CYCLE_ERROR] Cycle-based error applied! address=0x436887e80 additional_latency=173500 cycles
[ERROR_CYCLE] Error added at CPU cycle 5644301037, next at 5652009857, pending count: 1
[DRAM_CYCLE_ERROR] Cycle-based error applied! address=0xe680001c8 additional_latency=173500 cycles
Heartbeat CPU 0 instructions: 1930000280 cycles: 5650915977 heartbeat IPC: 0.353 cumulative IPC: 0.3415 (Simulation time: 08 hr 49 min 56 sec)
[ERROR_CYCLE] Error added at CPU cycle 5652009858, next at 5662014367, pending count: 1
[DRAM_CYCLE_ERROR] Cycle-based error applied! address=0x963f3ea90 additional_latency=173500 cycles
[ERROR_CYCLE] Error added at CPU cycle 5662014367, next at 5673344457, pending count: 1
[DRAM_CYCLE_ERROR] Cycle-based error applied! address=0x4ea3cd9d8 additional_latency=173500 cycles
[ERROR_CYCLE] Error added at CPU cycle 5673344458, next at 5693280537, pending count: 1
[DRAM_CYCLE_ERROR] Cycle-based error applied! address=0xecb3f5e20 additional_latency=173500 cycles
Heartbeat CPU 0 instructions: 1940000280 cycles: 5679282283 heartbeat IPC: 0.3525 cumulative IPC: 0.3416 (Simulation time: 08 hr 52 min 15 sec)
[ERROR_CYCLE] Error added at CPU cycle 5693280537, next at 5694886913, pending count: 1
[DRAM_CYCLE_ERROR] Cycle-based error applied! address=0xb19be50c0 additional_latency=173500 cycles
[ERROR_CYCLE] Error added at CPU cycle 5694886913, next at 5696315252, pending count: 1
[DRAM_CYCLE_ERROR] Cycle-based error applied! address=0x9bbb57cc8 additional_latency=173500 cycles
[ERROR_CYCLE] Error added at CPU cycle 5696315252, next at 5702290302, pending count: 1
[DRAM_CYCLE_ERROR] Cycle-based error applied! address=0xca6a6ec0 additional_latency=173500 cycles
[ERROR_CYCLE] Error added at CPU cycle 5702290302, next at 5705762493, pending count: 1
[DRAM_CYCLE_ERROR] Cycle-based error applied! address=0x93cfcf2c8 additional_latency=173500 cycles
[ERROR_CYCLE] Error added at CPU cycle 5705762493, next at 5711294929, pending count: 1
[DRAM_CYCLE_ERROR] Cycle-based error applied! address=0x71e8c5f40 additional_latency=173500 cycles
Heartbeat CPU 0 instructions: 1950000281 cycles: 5707596728 heartbeat IPC: 0.3532 cumulative IPC: 0.3416 (Simulation time: 08 hr 54 min 38 sec)
[ERROR_CYCLE] Error added at CPU cycle 5711294930, next at 5719599125, pending count: 1
[DRAM_CYCLE_ERROR] Cycle-based error applied! address=0x86e14df50 additional_latency=173500 cycles
[ERROR_CYCLE] Error added at CPU cycle 5719599125, next at 5747326287, pending count: 1
[DRAM_CYCLE_ERROR] Cycle-based error applied! address=0x3f52682c8 additional_latency=173500 cycles
Heartbeat CPU 0 instructions: 1960000284 cycles: 5735943222 heartbeat IPC: 0.3528 cumulative IPC: 0.3417 (Simulation time: 08 hr 57 min 00 sec)
[ERROR_CYCLE] Error added at CPU cycle 5747326287, next at 5789020650, pending count: 1
[DRAM_CYCLE_ERROR] Cycle-based error applied! address=0x90a806b00 additional_latency=173500 cycles
Heartbeat CPU 0 instructions: 1970000284 cycles: 5764281960 heartbeat IPC: 0.3529 cumulative IPC: 0.3418 (Simulation time: 08 hr 59 min 34 sec)
[ERROR_CYCLE] Error added at CPU cycle 5789020651, next at 5800607437, pending count: 1
[DRAM_CYCLE_ERROR] Cycle-based error applied! address=0xdd84f9fc8 additional_latency=173500 cycles
Heartbeat CPU 0 instructions: 1980000285 cycles: 5792594550 heartbeat IPC: 0.3532 cumulative IPC: 0.3418 (Simulation time: 09 hr 01 min 56 sec)
[ERROR_CYCLE] Error added at CPU cycle 5800607438, next at 5819429474, pending count: 1
[DRAM_CYCLE_ERROR] Cycle-based error applied! address=0xb3b8bc780 additional_latency=173500 cycles
[ERROR_CYCLE] Error added at CPU cycle 5819429474, next at 5822880937, pending count: 1
[DRAM_CYCLE_ERROR] Cycle-based error applied! address=0x4fbf40af0 additional_latency=173500 cycles
Heartbeat CPU 0 instructions: 1990000285 cycles: 5820890558 heartbeat IPC: 0.3534 cumulative IPC: 0.3419 (Simulation time: 09 hr 04 min 25 sec)
[ERROR_CYCLE] Error added at CPU cycle 5822880938, next at 5826915367, pending count: 1
[DRAM_CYCLE_ERROR] Cycle-based error applied! address=0x171880e90 additional_latency=173500 cycles
[ERROR_CYCLE] Error added at CPU cycle 5826915367, next at 5827183128, pending count: 1
[DRAM_CYCLE_ERROR] Cycle-based error applied! address=0x51d6d5bc0 additional_latency=173500 cycles
[ERROR_CYCLE] Error added at CPU cycle 5827183128, next at 5845250736, pending count: 1
[DRAM_CYCLE_ERROR] Cycle-based error applied! address=0x454117110 additional_latency=173500 cycles
[ERROR_CYCLE] Error added at CPU cycle 5845250736, next at 5846018198, pending count: 1
[DRAM_CYCLE_ERROR] Cycle-based error applied! address=0xca002340 additional_latency=173500 cycles
[ERROR_CYCLE] Error added at CPU cycle 5846018199, next at 5870641790, pending count: 1
[DRAM_CYCLE_ERROR] Cycle-based error applied! address=0x7b075fb80 additional_latency=173500 cycles

=== ERROR PAGE STATISTICS ===
Mode: CYCLE
Error Cycle Interval: 10000000 CPU cycles
Total Error Accesses: 598
==============================
Simulation finished CPU 0 instructions: 1999999981 cycles: 5849136433 cumulative IPC: 0.3419 (Simulation time: 09 hr 07 min 15 sec)
Simulation complete CPU 0 instructions: 1999999981 cycles: 5849136433 cumulative IPC: 0.3419 (Simulation time: 09 hr 07 min 15 sec)

ChampSim completed all CPUs

=== Simulation ===
CPU 0 runs test_traces/602.gcc_s-1850B.champsimtrace.xz

Region of Interest Statistics

CPU 0 cumulative IPC: 0.3419 instructions: 1999999981 cycles: 5849136433
CPU 0 Branch Prediction Accuracy: 92.26% MPKI: 19.84 Average ROB Occupancy at Mispredict: 28.45
Branch type MPKI
BRANCH_DIRECT_JUMP: 0.0104
BRANCH_INDIRECT: 0
BRANCH_CONDITIONAL: 19.83
BRANCH_DIRECT_CALL: 8.5e-06
BRANCH_INDIRECT_CALL: 0
BRANCH_RETURN: 7e-06

cpu0->cpu0_STLB TOTAL        ACCESS:     748412 HIT:     106521 MISS:     641891 MSHR_MERGE:          0
cpu0->cpu0_STLB LOAD         ACCESS:     748412 HIT:     106521 MISS:     641891 MSHR_MERGE:          0
cpu0->cpu0_STLB RFO          ACCESS:          0 HIT:          0 MISS:          0 MSHR_MERGE:          0
cpu0->cpu0_STLB PREFETCH     ACCESS:          0 HIT:          0 MISS:          0 MSHR_MERGE:          0
cpu0->cpu0_STLB WRITE        ACCESS:          0 HIT:          0 MISS:          0 MSHR_MERGE:          0
cpu0->cpu0_STLB TRANSLATION  ACCESS:          0 HIT:          0 MISS:          0 MSHR_MERGE:          0
cpu0->cpu0_STLB PREFETCH REQUESTED:          0 ISSUED:          0 USEFUL:          0 USELESS:          0
cpu0->cpu0_STLB AVERAGE MISS LATENCY: 468.1 cycles
cpu0->cpu0_L2C TOTAL        ACCESS:   48249088 HIT:   12595721 MISS:   35653367 MSHR_MERGE:          0
cpu0->cpu0_L2C LOAD         ACCESS:   48104368 HIT:   12467883 MISS:   35636485 MSHR_MERGE:          0
cpu0->cpu0_L2C RFO          ACCESS:      16942 HIT:        108 MISS:      16834 MSHR_MERGE:          0
cpu0->cpu0_L2C PREFETCH     ACCESS:          0 HIT:          0 MISS:          0 MSHR_MERGE:          0
cpu0->cpu0_L2C WRITE        ACCESS:     127778 HIT:     127730 MISS:         48 MSHR_MERGE:          0
cpu0->cpu0_L2C TRANSLATION  ACCESS:          0 HIT:          0 MISS:          0 MSHR_MERGE:          0
cpu0->cpu0_L2C PREFETCH REQUESTED:          0 ISSUED:          0 USEFUL:          0 USELESS:          0
cpu0->cpu0_L2C AVERAGE MISS LATENCY: 103.8 cycles
cpu0->cpu0_L1I TOTAL        ACCESS:      78753 HIT:      78693 MISS:         60 MSHR_MERGE:          3
cpu0->cpu0_L1I LOAD         ACCESS:      78753 HIT:      78693 MISS:         60 MSHR_MERGE:          3
cpu0->cpu0_L1I RFO          ACCESS:          0 HIT:          0 MISS:          0 MSHR_MERGE:          0
cpu0->cpu0_L1I PREFETCH     ACCESS:          0 HIT:          0 MISS:          0 MSHR_MERGE:          0
cpu0->cpu0_L1I WRITE        ACCESS:          0 HIT:          0 MISS:          0 MSHR_MERGE:          0
cpu0->cpu0_L1I TRANSLATION  ACCESS:          0 HIT:          0 MISS:          0 MSHR_MERGE:          0
cpu0->cpu0_L1I PREFETCH REQUESTED:          0 ISSUED:          0 USEFUL:          0 USELESS:          0
cpu0->cpu0_L1I AVERAGE MISS LATENCY: 113.2 cycles
cpu0->cpu0_L1D TOTAL        ACCESS:  605677872 HIT:  522293906 MISS:   83383966 MSHR_MERGE:   35262713
cpu0->cpu0_L1D LOAD         ACCESS:  433055300 HIT:  349688739 MISS:   83366561 MSHR_MERGE:   35262250
cpu0->cpu0_L1D RFO          ACCESS:          0 HIT:          0 MISS:          0 MSHR_MERGE:          0
cpu0->cpu0_L1D PREFETCH     ACCESS:          0 HIT:          0 MISS:          0 MSHR_MERGE:          0
cpu0->cpu0_L1D WRITE        ACCESS:  172622572 HIT:  172605167 MISS:      17405 MSHR_MERGE:        463
cpu0->cpu0_L1D TRANSLATION  ACCESS:          0 HIT:          0 MISS:          0 MSHR_MERGE:          0
cpu0->cpu0_L1D PREFETCH REQUESTED:          0 ISSUED:          0 USEFUL:          0 USELESS:          0
cpu0->cpu0_L1D AVERAGE MISS LATENCY: 85.68 cycles
cpu0->cpu0_ITLB TOTAL        ACCESS:      74061 HIT:      74052 MISS:          9 MSHR_MERGE:          3
cpu0->cpu0_ITLB LOAD         ACCESS:      74061 HIT:      74052 MISS:          9 MSHR_MERGE:          3
cpu0->cpu0_ITLB RFO          ACCESS:          0 HIT:          0 MISS:          0 MSHR_MERGE:          0
cpu0->cpu0_ITLB PREFETCH     ACCESS:          0 HIT:          0 MISS:          0 MSHR_MERGE:          0
cpu0->cpu0_ITLB WRITE        ACCESS:          0 HIT:          0 MISS:          0 MSHR_MERGE:          0
cpu0->cpu0_ITLB TRANSLATION  ACCESS:          0 HIT:          0 MISS:          0 MSHR_MERGE:          0
cpu0->cpu0_ITLB PREFETCH REQUESTED:          0 ISSUED:          0 USEFUL:          0 USELESS:          0
cpu0->cpu0_ITLB AVERAGE MISS LATENCY: 778.7 cycles
cpu0->cpu0_DTLB TOTAL        ACCESS:  552104661 HIT:  550734313 MISS:    1370348 MSHR_MERGE:     621942
cpu0->cpu0_DTLB LOAD         ACCESS:  552104661 HIT:  550734313 MISS:    1370348 MSHR_MERGE:     621942
cpu0->cpu0_DTLB RFO          ACCESS:          0 HIT:          0 MISS:          0 MSHR_MERGE:          0
cpu0->cpu0_DTLB PREFETCH     ACCESS:          0 HIT:          0 MISS:          0 MSHR_MERGE:          0
cpu0->cpu0_DTLB WRITE        ACCESS:          0 HIT:          0 MISS:          0 MSHR_MERGE:          0
cpu0->cpu0_DTLB TRANSLATION  ACCESS:          0 HIT:          0 MISS:          0 MSHR_MERGE:          0
cpu0->cpu0_DTLB PREFETCH REQUESTED:          0 ISSUED:          0 USEFUL:          0 USELESS:          0
cpu0->cpu0_DTLB AVERAGE MISS LATENCY: 407.3 cycles
cpu0->LLC TOTAL        ACCESS:   35703491 HIT:     114542 MISS:   35588949 MSHR_MERGE:          0
cpu0->LLC LOAD         ACCESS:   35636485 HIT:      64636 MISS:   35571849 MSHR_MERGE:          0
cpu0->LLC RFO          ACCESS:      16834 HIT:         68 MISS:      16766 MSHR_MERGE:          0
cpu0->LLC PREFETCH     ACCESS:          0 HIT:          0 MISS:          0 MSHR_MERGE:          0
cpu0->LLC WRITE        ACCESS:      50172 HIT:      49838 MISS:        334 MSHR_MERGE:          0
cpu0->LLC TRANSLATION  ACCESS:          0 HIT:          0 MISS:          0 MSHR_MERGE:          0
cpu0->LLC PREFETCH REQUESTED:          0 ISSUED:          0 USEFUL:          0 USELESS:          0
cpu0->LLC AVERAGE MISS LATENCY: 88 cycles

DRAM Statistics

Channel 0 RQ ROW_BUFFER_HIT:       7326
  ROW_BUFFER_MISS:   18435138
  AVG DBUS CONGESTED CYCLE: 11.68
Channel 0 WQ ROW_BUFFER_HIT:       2839
  ROW_BUFFER_MISS:      22280
  FULL:          0
Channel 0 REFRESHES ISSUED:     487396

Channel 1 RQ ROW_BUFFER_HIT:       8012
  ROW_BUFFER_MISS:   18437234
  AVG DBUS CONGESTED CYCLE: 11.74
Channel 1 WQ ROW_BUFFER_HIT:       2796
  ROW_BUFFER_MISS:      22206
  FULL:          0
Channel 1 REFRESHES ISSUED:     487396
