[VMEM] WARNING: physical memory size is smaller than virtual memory size.

*** ChampSim Multicore Out-of-Order Simulator ***
Warmup Instructions: 0
Simulation Instructions: 9223372036854775807
Number of CPUs: 1
Page size: 4096

Off-chip DRAM Size: 64 GiB Channels: 2 Width: 32-bit Data Rate: 4807 MT/s
[ERROR_PAGE_MANAGER] Error latency: 173500 
[ERROR_PAGE_MANAGER] Random seed: 54321 (fixed for preload reproducibility)
[ERROR_PAGE_MANAGER] Cycle-based error modeling enabled
[ERROR_PAGE_MANAGER] Errors per interval: 1
[ERROR_PAGE_MANAGER] Error cycle interval: 10000000 cycles

=== ERROR PAGE STATISTICS ===
Mode: CYCLE
Error Cycle Interval: 10000000 CPU cycles
Total Error Accesses: 0
==============================
Warmup finished CPU 0 instructions: 0 cycles: 1 cumulative IPC: 0 (Simulation time: 00 hr 00 min 01 sec)
Warmup complete CPU 0 instructions: 0 cycles: 1 cumulative IPC: 0 (Simulation time: 00 hr 00 min 01 sec)
[ERROR_CYCLE] Error added at CPU cycle 7127805, next at 9153305, pending count: 1
[DRAM_CYCLE_ERROR] Cycle-based error applied! address=0xa55938808 additional_latency=173500 cycles
[ERROR_CYCLE] Error added at CPU cycle 9153306, next at 25696063, pending count: 1
[DRAM_CYCLE_ERROR] Cycle-based error applied! address=0x92d0a48c0 additional_latency=173500 cycles
Heartbeat CPU 0 instructions: 10000004 cycles: 10031477 heartbeat IPC: 0.9969 cumulative IPC: 0.9969 (Simulation time: 00 hr 01 min 28 sec)
Heartbeat CPU 0 instructions: 20000005 cycles: 22539630 heartbeat IPC: 0.7995 cumulative IPC: 0.8873 (Simulation time: 00 hr 03 min 11 sec)
[ERROR_CYCLE] Error added at CPU cycle 25696063, next at 53467688, pending count: 1
[DRAM_CYCLE_ERROR] Cycle-based error applied! address=0x3eec77898 additional_latency=173500 cycles
Heartbeat CPU 0 instructions: 30000009 cycles: 37270068 heartbeat IPC: 0.6789 cumulative IPC: 0.8049 (Simulation time: 00 hr 04 min 57 sec)
Heartbeat CPU 0 instructions: 40000010 cycles: 48634229 heartbeat IPC: 0.88 cumulative IPC: 0.8225 (Simulation time: 00 hr 06 min 09 sec)
[ERROR_CYCLE] Error added at CPU cycle 53467689, next at 53768224, pending count: 1
[DRAM_CYCLE_ERROR] Cycle-based error applied! address=0xc5d690608 additional_latency=173500 cycles
[ERROR_CYCLE] Error added at CPU cycle 53768224, next at 69138641, pending count: 1
[DRAM_CYCLE_ERROR] Cycle-based error applied! address=0x51dcea418 additional_latency=173500 cycles
Heartbeat CPU 0 instructions: 50000010 cycles: 58937783 heartbeat IPC: 0.9705 cumulative IPC: 0.8484 (Simulation time: 00 hr 07 min 20 sec)
Heartbeat CPU 0 instructions: 60000014 cycles: 68628540 heartbeat IPC: 1.032 cumulative IPC: 0.8743 (Simulation time: 00 hr 08 min 22 sec)
[ERROR_CYCLE] Error added at CPU cycle 69138642, next at 70928443, pending count: 1
[DRAM_CYCLE_ERROR] Cycle-based error applied! address=0xe4a1193e0 additional_latency=173500 cycles
[ERROR_CYCLE] Error added at CPU cycle 70928444, next at 76617422, pending count: 1
[DRAM_CYCLE_ERROR] Cycle-based error applied! address=0x666e4fd08 additional_latency=173500 cycles
[ERROR_CYCLE] Error added at CPU cycle 76617422, next at 85156860, pending count: 1
[DRAM_CYCLE_ERROR] Cycle-based error applied! address=0x64c1d9ac2 additional_latency=173500 cycles
Heartbeat CPU 0 instructions: 70000014 cycles: 78018693 heartbeat IPC: 1.065 cumulative IPC: 0.8972 (Simulation time: 00 hr 09 min 41 sec)
[ERROR_CYCLE] Error added at CPU cycle 85156860, next at 87603375, pending count: 1
[DRAM_CYCLE_ERROR] Cycle-based error applied! address=0x8d75e6cc0 additional_latency=173500 cycles
Heartbeat CPU 0 instructions: 80000014 cycles: 85942877 heartbeat IPC: 1.262 cumulative IPC: 0.9309 (Simulation time: 00 hr 10 min 52 sec)
[ERROR_CYCLE] Error added at CPU cycle 87603376, next at 105362955, pending count: 1
[DRAM_CYCLE_ERROR] Cycle-based error applied! address=0x6618296b0 additional_latency=173500 cycles
Heartbeat CPU 0 instructions: 90000015 cycles: 93961496 heartbeat IPC: 1.247 cumulative IPC: 0.9578 (Simulation time: 00 hr 12 min 04 sec)
Heartbeat CPU 0 instructions: 100000015 cycles: 104073152 heartbeat IPC: 0.989 cumulative IPC: 0.9609 (Simulation time: 00 hr 13 min 25 sec)
[ERROR_CYCLE] Error added at CPU cycle 105362955, next at 108923137, pending count: 1
[DRAM_CYCLE_ERROR] Cycle-based error applied! address=0xfd3ff61f8 additional_latency=173500 cycles
[ERROR_CYCLE] Error added at CPU cycle 108923137, next at 113398998, pending count: 1
[DRAM_CYCLE_ERROR] Cycle-based error applied! address=0xe3efd67c8 additional_latency=173500 cycles
[ERROR_CYCLE] Error added at CPU cycle 113398999, next at 133751835, pending count: 1
[DRAM_CYCLE_ERROR] Cycle-based error applied! address=0xdec5175a8 additional_latency=173500 cycles
Heartbeat CPU 0 instructions: 110000018 cycles: 118808950 heartbeat IPC: 0.6786 cumulative IPC: 0.9259 (Simulation time: 00 hr 15 min 15 sec)
Heartbeat CPU 0 instructions: 120000020 cycles: 129982839 heartbeat IPC: 0.8949 cumulative IPC: 0.9232 (Simulation time: 00 hr 16 min 49 sec)
[ERROR_CYCLE] Error added at CPU cycle 133751835, next at 133874359, pending count: 1
[DRAM_CYCLE_ERROR] Cycle-based error applied! address=0xb47f73908 additional_latency=173500 cycles
[ERROR_CYCLE] Error added at CPU cycle 133874359, next at 145123863, pending count: 1
[DRAM_CYCLE_ERROR] Cycle-based error applied! address=0xa90e1de78 additional_latency=173500 cycles
Heartbeat CPU 0 instructions: 130000020 cycles: 140201871 heartbeat IPC: 0.9786 cumulative IPC: 0.9272 (Simulation time: 00 hr 18 min 16 sec)
[ERROR_CYCLE] Error added at CPU cycle 145123863, next at 151687113, pending count: 1
[DRAM_CYCLE_ERROR] Cycle-based error applied! address=0x54a196f38 additional_latency=173500 cycles
Heartbeat CPU 0 instructions: 140000021 cycles: 149881255 heartbeat IPC: 1.033 cumulative IPC: 0.9341 (Simulation time: 00 hr 19 min 39 sec)
[ERROR_CYCLE] Error added at CPU cycle 151687113, next at 189526482, pending count: 1
[DRAM_CYCLE_ERROR] Cycle-based error applied! address=0x339d6100 additional_latency=173500 cycles
Heartbeat CPU 0 instructions: 150000022 cycles: 158527883 heartbeat IPC: 1.157 cumulative IPC: 0.9462 (Simulation time: 00 hr 20 min 55 sec)
Heartbeat CPU 0 instructions: 160000024 cycles: 166643845 heartbeat IPC: 1.232 cumulative IPC: 0.9601 (Simulation time: 00 hr 22 min 10 sec)
Heartbeat CPU 0 instructions: 170000027 cycles: 177290261 heartbeat IPC: 0.9393 cumulative IPC: 0.9589 (Simulation time: 00 hr 23 min 40 sec)
[ERROR_CYCLE] Error added at CPU cycle 189526483, next at 191895927, pending count: 1
[DRAM_CYCLE_ERROR] Cycle-based error applied! address=0x620acf390 additional_latency=173500 cycles
Heartbeat CPU 0 instructions: 180000031 cycles: 191187014 heartbeat IPC: 0.7196 cumulative IPC: 0.9415 (Simulation time: 00 hr 25 min 33 sec)
[ERROR_CYCLE] Error added at CPU cycle 191895927, next at 194297025, pending count: 1
[DRAM_CYCLE_ERROR] Cycle-based error applied! address=0x6040c7a08 additional_latency=173500 cycles
[ERROR_CYCLE] Error added at CPU cycle 194297026, next at 223119032, pending count: 1
[DRAM_CYCLE_ERROR] Cycle-based error applied! address=0xfea41f908 additional_latency=173500 cycles
Heartbeat CPU 0 instructions: 190000035 cycles: 201939833 heartbeat IPC: 0.93 cumulative IPC: 0.9409 (Simulation time: 00 hr 27 min 03 sec)
Heartbeat CPU 0 instructions: 200000037 cycles: 211930431 heartbeat IPC: 1.001 cumulative IPC: 0.9437 (Simulation time: 00 hr 28 min 29 sec)
[ERROR_CYCLE] Error added at CPU cycle 223119032, next at 227066706, pending count: 1
[DRAM_CYCLE_ERROR] Cycle-based error applied! address=0xd82217be0 additional_latency=173500 cycles
Heartbeat CPU 0 instructions: 210000041 cycles: 225739482 heartbeat IPC: 0.7242 cumulative IPC: 0.9303 (Simulation time: 00 hr 30 min 22 sec)
[ERROR_CYCLE] Error added at CPU cycle 227066706, next at 269846489, pending count: 1
[DRAM_CYCLE_ERROR] Cycle-based error applied! address=0x11232a7e0 additional_latency=173500 cycles
Heartbeat CPU 0 instructions: 220000041 cycles: 236777756 heartbeat IPC: 0.9059 cumulative IPC: 0.9291 (Simulation time: 00 hr 31 min 55 sec)
Heartbeat CPU 0 instructions: 230000042 cycles: 247078785 heartbeat IPC: 0.9708 cumulative IPC: 0.9309 (Simulation time: 00 hr 33 min 21 sec)
Heartbeat CPU 0 instructions: 240000046 cycles: 256902057 heartbeat IPC: 1.018 cumulative IPC: 0.9342 (Simulation time: 00 hr 34 min 44 sec)
Heartbeat CPU 0 instructions: 250000047 cycles: 266364975 heartbeat IPC: 1.057 cumulative IPC: 0.9386 (Simulation time: 00 hr 36 min 05 sec)
[ERROR_CYCLE] Error added at CPU cycle 269846490, next at 275597170, pending count: 1
[DRAM_CYCLE_ERROR] Cycle-based error applied! address=0x94edcb640 additional_latency=173500 cycles
Heartbeat CPU 0 instructions: 260000047 cycles: 275559920 heartbeat IPC: 1.088 cumulative IPC: 0.9435 (Simulation time: 00 hr 37 min 25 sec)
[ERROR_CYCLE] Error added at CPU cycle 275597171, next at 309231635, pending count: 1
[DRAM_CYCLE_ERROR] Cycle-based error applied! address=0x92d9cc698 additional_latency=173500 cycles
Heartbeat CPU 0 instructions: 270000047 cycles: 284491780 heartbeat IPC: 1.12 cumulative IPC: 0.9491 (Simulation time: 00 hr 38 min 40 sec)
Heartbeat CPU 0 instructions: 280000048 cycles: 293293790 heartbeat IPC: 1.136 cumulative IPC: 0.9547 (Simulation time: 00 hr 39 min 55 sec)
Heartbeat CPU 0 instructions: 290000052 cycles: 300440643 heartbeat IPC: 1.399 cumulative IPC: 0.9652 (Simulation time: 00 hr 41 min 00 sec)
Heartbeat CPU 0 instructions: 300000053 cycles: 306924484 heartbeat IPC: 1.542 cumulative IPC: 0.9774 (Simulation time: 00 hr 42 min 01 sec)
[ERROR_CYCLE] Error added at CPU cycle 309231636, next at 312214761, pending count: 1
[DRAM_CYCLE_ERROR] Cycle-based error applied! address=0xd9986af38 additional_latency=173500 cycles
[ERROR_CYCLE] Error added at CPU cycle 312214762, next at 326484517, pending count: 1
[DRAM_CYCLE_ERROR] Cycle-based error applied! address=0x81c48c6b8 additional_latency=173500 cycles
Heartbeat CPU 0 instructions: 310000056 cycles: 313835765 heartbeat IPC: 1.447 cumulative IPC: 0.9878 (Simulation time: 00 hr 43 min 06 sec)
Heartbeat CPU 0 instructions: 320000058 cycles: 321409488 heartbeat IPC: 1.32 cumulative IPC: 0.9956 (Simulation time: 00 hr 44 min 15 sec)
[ERROR_CYCLE] Error added at CPU cycle 326484517, next at 328619258, pending count: 1
[DRAM_CYCLE_ERROR] Cycle-based error applied! address=0xe4a1193c8 additional_latency=173500 cycles
[ERROR_CYCLE] Error added at CPU cycle 328619258, next at 331945338, pending count: 1
[DRAM_CYCLE_ERROR] Cycle-based error applied! address=0xbf5f842a8 additional_latency=173500 cycles
Heartbeat CPU 0 instructions: 330000058 cycles: 329834788 heartbeat IPC: 1.187 cumulative IPC: 1.001 (Simulation time: 00 hr 45 min 29 sec)
[ERROR_CYCLE] Error added at CPU cycle 331945339, next at 346622017, pending count: 1
[DRAM_CYCLE_ERROR] Cycle-based error applied! address=0xbc6f7c790 additional_latency=173500 cycles
Heartbeat CPU 0 instructions: 340000062 cycles: 339360285 heartbeat IPC: 1.05 cumulative IPC: 1.002 (Simulation time: 00 hr 46 min 47 sec)
[ERROR_CYCLE] Error added at CPU cycle 346622017, next at 346704171, pending count: 1
[DRAM_CYCLE_ERROR] Cycle-based error applied! address=0x3ca939f50 additional_latency=173500 cycles
[ERROR_CYCLE] Error added at CPU cycle 346704171, next at 351055557, pending count: 1
[DRAM_CYCLE_ERROR] Cycle-based error applied! address=0xc4be25358 additional_latency=173500 cycles
Heartbeat CPU 0 instructions: 350000066 cycles: 350841320 heartbeat IPC: 0.871 cumulative IPC: 0.9976 (Simulation time: 00 hr 47 min 59 sec)
[ERROR_CYCLE] Error added at CPU cycle 351055557, next at 353715518, pending count: 1
[DRAM_CYCLE_ERROR] Cycle-based error applied! address=0x2b72714a0 additional_latency=173500 cycles
[ERROR_CYCLE] Error added at CPU cycle 353715518, next at 358578569, pending count: 1
[DRAM_CYCLE_ERROR] Cycle-based error applied! address=0x3759ab5e0 additional_latency=173500 cycles
[ERROR_CYCLE] Error added at CPU cycle 358578569, next at 359734081, pending count: 1
[DRAM_CYCLE_ERROR] Cycle-based error applied! address=0xe5b81f4d8 additional_latency=173500 cycles
[ERROR_CYCLE] Error added at CPU cycle 359734081, next at 364965560, pending count: 1
[DRAM_CYCLE_ERROR] Cycle-based error applied! address=0xc68e599e8 additional_latency=173500 cycles
[ERROR_CYCLE] Error added at CPU cycle 364965560, next at 370163876, pending count: 1
[DRAM_CYCLE_ERROR] Cycle-based error applied! address=0x1c6df6b20 additional_latency=173500 cycles
Heartbeat CPU 0 instructions: 360000069 cycles: 365715398 heartbeat IPC: 0.6723 cumulative IPC: 0.9844 (Simulation time: 00 hr 49 min 55 sec)
[ERROR_CYCLE] Error added at CPU cycle 370163876, next at 384861686, pending count: 1
[DRAM_CYCLE_ERROR] Cycle-based error applied! address=0xd2960bb90 additional_latency=173500 cycles
Heartbeat CPU 0 instructions: 370000073 cycles: 376925604 heartbeat IPC: 0.892 cumulative IPC: 0.9816 (Simulation time: 00 hr 51 min 29 sec)
[ERROR_CYCLE] Error added at CPU cycle 384861686, next at 403305050, pending count: 1
[DRAM_CYCLE_ERROR] Cycle-based error applied! address=0x1ea4e0248 additional_latency=173500 cycles
Heartbeat CPU 0 instructions: 380000077 cycles: 389300382 heartbeat IPC: 0.8081 cumulative IPC: 0.9761 (Simulation time: 00 hr 52 min 48 sec)
Heartbeat CPU 0 instructions: 390000077 cycles: 399970236 heartbeat IPC: 0.9372 cumulative IPC: 0.9751 (Simulation time: 00 hr 54 min 15 sec)
[ERROR_CYCLE] Error added at CPU cycle 403305051, next at 408299099, pending count: 1
[DRAM_CYCLE_ERROR] Cycle-based error applied! address=0x5a6c857b8 additional_latency=173500 cycles
[ERROR_CYCLE] Error added at CPU cycle 408299099, next at 414578861, pending count: 1
[DRAM_CYCLE_ERROR] Cycle-based error applied! address=0x4a59bdb60 additional_latency=173500 cycles
Heartbeat CPU 0 instructions: 400000079 cycles: 409882322 heartbeat IPC: 1.009 cumulative IPC: 0.9759 (Simulation time: 00 hr 55 min 38 sec)
[ERROR_CYCLE] Error added at CPU cycle 414578862, next at 415677269, pending count: 1
[DRAM_CYCLE_ERROR] Cycle-based error applied! address=0x589040b00 additional_latency=173500 cycles
[ERROR_CYCLE] Error added at CPU cycle 415677270, next at 417793974, pending count: 1
[DRAM_CYCLE_ERROR] Cycle-based error applied! address=0xe6d43710 additional_latency=173500 cycles
[ERROR_CYCLE] Error added at CPU cycle 417793975, next at 428962166, pending count: 1
[DRAM_CYCLE_ERROR] Cycle-based error applied! address=0xaf2af6678 additional_latency=173500 cycles
Heartbeat CPU 0 instructions: 410000083 cycles: 419376904 heartbeat IPC: 1.053 cumulative IPC: 0.9776 (Simulation time: 00 hr 56 min 59 sec)
Heartbeat CPU 0 instructions: 420000083 cycles: 428406952 heartbeat IPC: 1.107 cumulative IPC: 0.9804 (Simulation time: 00 hr 58 min 17 sec)
[ERROR_CYCLE] Error added at CPU cycle 428962167, next at 435398726, pending count: 1
[DRAM_CYCLE_ERROR] Cycle-based error applied! address=0xffb8b3308 additional_latency=173500 cycles
[ERROR_CYCLE] Error added at CPU cycle 435398727, next at 451570558, pending count: 1
[DRAM_CYCLE_ERROR] Cycle-based error applied! address=0xc22766710 additional_latency=173500 cycles
Heartbeat CPU 0 instructions: 430000086 cycles: 435688205 heartbeat IPC: 1.373 cumulative IPC: 0.9869 (Simulation time: 00 hr 59 min 19 sec)
Heartbeat CPU 0 instructions: 440000090 cycles: 444050030 heartbeat IPC: 1.196 cumulative IPC: 0.9909 (Simulation time: 01 hr 00 min 08 sec)
[ERROR_CYCLE] Error added at CPU cycle 451570559, next at 454416191, pending count: 1
[DRAM_CYCLE_ERROR] Cycle-based error applied! address=0xee31c5fa0 additional_latency=173500 cycles
[ERROR_CYCLE] Error added at CPU cycle 454416192, next at 467943289, pending count: 1
[DRAM_CYCLE_ERROR] Cycle-based error applied! address=0x6c694b408 additional_latency=173500 cycles
Heartbeat CPU 0 instructions: 450000090 cycles: 454816533 heartbeat IPC: 0.9288 cumulative IPC: 0.9894 (Simulation time: 01 hr 01 min 07 sec)
[ERROR_CYCLE] Error added at CPU cycle 467943289, next at 479150351, pending count: 1
[DRAM_CYCLE_ERROR] Cycle-based error applied! address=0xc74903808 additional_latency=173500 cycles
Heartbeat CPU 0 instructions: 460000094 cycles: 468590675 heartbeat IPC: 0.726 cumulative IPC: 0.9817 (Simulation time: 01 hr 02 min 45 sec)
[ERROR_CYCLE] Error added at CPU cycle 479150352, next at 489818806, pending count: 1
[DRAM_CYCLE_ERROR] Cycle-based error applied! address=0x1579ea440 additional_latency=173500 cycles
Heartbeat CPU 0 instructions: 470000095 cycles: 480344874 heartbeat IPC: 0.8508 cumulative IPC: 0.9785 (Simulation time: 01 hr 04 min 27 sec)
[ERROR_CYCLE] Error added at CPU cycle 489818807, next at 492199391, pending count: 1
[DRAM_CYCLE_ERROR] Cycle-based error applied! address=0x9c7c85b40 additional_latency=173500 cycles
Heartbeat CPU 0 instructions: 480000096 cycles: 491274408 heartbeat IPC: 0.915 cumulative IPC: 0.9771 (Simulation time: 01 hr 06 min 03 sec)
[ERROR_CYCLE] Error added at CPU cycle 492199392, next at 501105066, pending count: 1
[DRAM_CYCLE_ERROR] Cycle-based error applied! address=0x6618296b0 additional_latency=173500 cycles
[ERROR_CYCLE] Error added at CPU cycle 501105067, next at 516413942, pending count: 1
[DRAM_CYCLE_ERROR] Cycle-based error applied! address=0x6893dfeb0 additional_latency=173500 cycles
Heartbeat CPU 0 instructions: 490000100 cycles: 501439905 heartbeat IPC: 0.9837 cumulative IPC: 0.9772 (Simulation time: 01 hr 07 min 32 sec)
Heartbeat CPU 0 instructions: 500000100 cycles: 511277768 heartbeat IPC: 1.016 cumulative IPC: 0.9779 (Simulation time: 01 hr 08 min 58 sec)
[ERROR_CYCLE] Error added at CPU cycle 516413943, next at 523258148, pending count: 1
[DRAM_CYCLE_ERROR] Cycle-based error applied! address=0x2a8d37300 additional_latency=173500 cycles
Heartbeat CPU 0 instructions: 510000103 cycles: 520700531 heartbeat IPC: 1.061 cumulative IPC: 0.9794 (Simulation time: 01 hr 10 min 22 sec)
[ERROR_CYCLE] Error added at CPU cycle 523258148, next at 524320531, pending count: 1
[DRAM_CYCLE_ERROR] Cycle-based error applied! address=0x1f5be390 additional_latency=173500 cycles
[ERROR_CYCLE] Error added at CPU cycle 524320531, next at 545421303, pending count: 1
[DRAM_CYCLE_ERROR] Cycle-based error applied! address=0x394085090 additional_latency=173500 cycles
Heartbeat CPU 0 instructions: 520000103 cycles: 529830725 heartbeat IPC: 1.095 cumulative IPC: 0.9814 (Simulation time: 01 hr 11 min 32 sec)
Heartbeat CPU 0 instructions: 530000103 cycles: 538703186 heartbeat IPC: 1.127 cumulative IPC: 0.9838 (Simulation time: 01 hr 12 min 46 sec)
[ERROR_CYCLE] Error added at CPU cycle 545421304, next at 555011553, pending count: 1
[DRAM_CYCLE_ERROR] Cycle-based error applied! address=0x43c141130 additional_latency=173500 cycles
Heartbeat CPU 0 instructions: 540000105 cycles: 547425293 heartbeat IPC: 1.147 cumulative IPC: 0.9864 (Simulation time: 01 hr 13 min 48 sec)
[ERROR_CYCLE] Error added at CPU cycle 555011553, next at 566707107, pending count: 1
[DRAM_CYCLE_ERROR] Cycle-based error applied! address=0xe549f0b40 additional_latency=173500 cycles
Heartbeat CPU 0 instructions: 550000107 cycles: 555943457 heartbeat IPC: 1.174 cumulative IPC: 0.9893 (Simulation time: 01 hr 14 min 52 sec)
Heartbeat CPU 0 instructions: 560000108 cycles: 564294963 heartbeat IPC: 1.197 cumulative IPC: 0.9924 (Simulation time: 01 hr 15 min 45 sec)
[ERROR_CYCLE] Error added at CPU cycle 566707107, next at 602334490, pending count: 1
[DRAM_CYCLE_ERROR] Cycle-based error applied! address=0x198b3f0c0 additional_latency=173500 cycles
Heartbeat CPU 0 instructions: 570000108 cycles: 572553087 heartbeat IPC: 1.211 cumulative IPC: 0.9955 (Simulation time: 01 hr 16 min 52 sec)
Heartbeat CPU 0 instructions: 580000111 cycles: 580679524 heartbeat IPC: 1.231 cumulative IPC: 0.9988 (Simulation time: 01 hr 18 min 07 sec)
Heartbeat CPU 0 instructions: 590000111 cycles: 588703229 heartbeat IPC: 1.246 cumulative IPC: 1.002 (Simulation time: 01 hr 19 min 21 sec)
Heartbeat CPU 0 instructions: 600000114 cycles: 596584735 heartbeat IPC: 1.269 cumulative IPC: 1.006 (Simulation time: 01 hr 20 min 34 sec)
[ERROR_CYCLE] Error added at CPU cycle 602334490, next at 607801697, pending count: 1
[DRAM_CYCLE_ERROR] Cycle-based error applied! address=0xe6d43678 additional_latency=173500 cycles
Heartbeat CPU 0 instructions: 610000114 cycles: 604326367 heartbeat IPC: 1.292 cumulative IPC: 1.009 (Simulation time: 01 hr 21 min 46 sec)
[ERROR_CYCLE] Error added at CPU cycle 607801697, next at 608543542, pending count: 1
[DRAM_CYCLE_ERROR] Cycle-based error applied! address=0x8d75e62c0 additional_latency=173500 cycles
[ERROR_CYCLE] Error added at CPU cycle 608543543, next at 610655090, pending count: 1
[DRAM_CYCLE_ERROR] Cycle-based error applied! address=0x1861d1898 additional_latency=173500 cycles
[ERROR_CYCLE] Error added at CPU cycle 610655091, next at 613219349, pending count: 1
[DRAM_CYCLE_ERROR] Cycle-based error applied! address=0x41f1e0b38 additional_latency=173500 cycles
Heartbeat CPU 0 instructions: 620000116 cycles: 611970287 heartbeat IPC: 1.308 cumulative IPC: 1.013 (Simulation time: 01 hr 22 min 58 sec)
[ERROR_CYCLE] Error added at CPU cycle 613219350, next at 613730924, pending count: 1
[DRAM_CYCLE_ERROR] Cycle-based error applied! address=0x52b5f63f0 additional_latency=173500 cycles
[ERROR_CYCLE] Error added at CPU cycle 613730925, next at 615686536, pending count: 1
[DRAM_CYCLE_ERROR] Cycle-based error applied! address=0xb64217098 additional_latency=173500 cycles
[ERROR_CYCLE] Error added at CPU cycle 615686536, next at 623830395, pending count: 1
[DRAM_CYCLE_ERROR] Cycle-based error applied! address=0x85347b010 additional_latency=173500 cycles
Heartbeat CPU 0 instructions: 630000116 cycles: 619526317 heartbeat IPC: 1.323 cumulative IPC: 1.017 (Simulation time: 01 hr 24 min 09 sec)
[ERROR_CYCLE] Error added at CPU cycle 623830395, next at 655504590, pending count: 1
[DRAM_CYCLE_ERROR] Cycle-based error applied! address=0x1f5be390 additional_latency=173500 cycles
Heartbeat CPU 0 instructions: 640000116 cycles: 626888015 heartbeat IPC: 1.358 cumulative IPC: 1.021 (Simulation time: 01 hr 25 min 15 sec)
Heartbeat CPU 0 instructions: 650000116 cycles: 634158509 heartbeat IPC: 1.375 cumulative IPC: 1.025 (Simulation time: 01 hr 26 min 15 sec)
Heartbeat CPU 0 instructions: 660000117 cycles: 639664651 heartbeat IPC: 1.816 cumulative IPC: 1.032 (Simulation time: 01 hr 26 min 57 sec)
Heartbeat CPU 0 instructions: 670000117 cycles: 644940089 heartbeat IPC: 1.896 cumulative IPC: 1.039 (Simulation time: 01 hr 27 min 44 sec)
Heartbeat CPU 0 instructions: 680000117 cycles: 650366450 heartbeat IPC: 1.843 cumulative IPC: 1.046 (Simulation time: 01 hr 28 min 30 sec)
[ERROR_CYCLE] Error added at CPU cycle 655504590, next at 685296427, pending count: 1
[DRAM_CYCLE_ERROR] Cycle-based error applied! address=0x8c17fe7f0 additional_latency=173500 cycles
Heartbeat CPU 0 instructions: 690000120 cycles: 655899591 heartbeat IPC: 1.807 cumulative IPC: 1.052 (Simulation time: 01 hr 29 min 13 sec)
Heartbeat CPU 0 instructions: 700000120 cycles: 661638593 heartbeat IPC: 1.742 cumulative IPC: 1.058 (Simulation time: 01 hr 30 min 06 sec)
Heartbeat CPU 0 instructions: 710000123 cycles: 667508323 heartbeat IPC: 1.704 cumulative IPC: 1.064 (Simulation time: 01 hr 31 min 03 sec)
Heartbeat CPU 0 instructions: 720000123 cycles: 673449241 heartbeat IPC: 1.683 cumulative IPC: 1.069 (Simulation time: 01 hr 31 min 51 sec)
Heartbeat CPU 0 instructions: 730000125 cycles: 679628010 heartbeat IPC: 1.618 cumulative IPC: 1.074 (Simulation time: 01 hr 32 min 51 sec)
[ERROR_CYCLE] Error added at CPU cycle 685296428, next at 692067362, pending count: 1
[DRAM_CYCLE_ERROR] Cycle-based error applied! address=0x6a7ff3e0 additional_latency=173500 cycles
Heartbeat CPU 0 instructions: 740000126 cycles: 685896026 heartbeat IPC: 1.595 cumulative IPC: 1.079 (Simulation time: 01 hr 33 min 52 sec)
[ERROR_CYCLE] Error added at CPU cycle 692067362, next at 693560863, pending count: 1
[DRAM_CYCLE_ERROR] Cycle-based error applied! address=0xb4ada1ab0 additional_latency=173500 cycles
Heartbeat CPU 0 instructions: 750000127 cycles: 692420951 heartbeat IPC: 1.533 cumulative IPC: 1.083 (Simulation time: 01 hr 34 min 54 sec)
[ERROR_CYCLE] Error added at CPU cycle 693560864, next at 696567615, pending count: 1
[DRAM_CYCLE_ERROR] Cycle-based error applied! address=0xa35ea62c8 additional_latency=173500 cycles
[ERROR_CYCLE] Error added at CPU cycle 696567615, next at 705122761, pending count: 1
[DRAM_CYCLE_ERROR] Cycle-based error applied! address=0xf857f3318 additional_latency=173500 cycles
Heartbeat CPU 0 instructions: 760000130 cycles: 699024020 heartbeat IPC: 1.514 cumulative IPC: 1.087 (Simulation time: 01 hr 35 min 57 sec)
[ERROR_CYCLE] Error added at CPU cycle 705122762, next at 747545945, pending count: 1
[DRAM_CYCLE_ERROR] Cycle-based error applied! address=0x6a7ff3e0 additional_latency=173500 cycles
Heartbeat CPU 0 instructions: 770000130 cycles: 706019558 heartbeat IPC: 1.429 cumulative IPC: 1.091 (Simulation time: 01 hr 36 min 55 sec)
Heartbeat CPU 0 instructions: 780000130 cycles: 713072661 heartbeat IPC: 1.418 cumulative IPC: 1.094 (Simulation time: 01 hr 38 min 01 sec)
Heartbeat CPU 0 instructions: 790000132 cycles: 720370810 heartbeat IPC: 1.37 cumulative IPC: 1.097 (Simulation time: 01 hr 39 min 08 sec)
Heartbeat CPU 0 instructions: 800000133 cycles: 727944463 heartbeat IPC: 1.32 cumulative IPC: 1.099 (Simulation time: 01 hr 40 min 17 sec)
Heartbeat CPU 0 instructions: 810000137 cycles: 735812771 heartbeat IPC: 1.271 cumulative IPC: 1.101 (Simulation time: 01 hr 41 min 26 sec)
Heartbeat CPU 0 instructions: 820000138 cycles: 744328849 heartbeat IPC: 1.174 cumulative IPC: 1.102 (Simulation time: 01 hr 42 min 40 sec)
[ERROR_CYCLE] Error added at CPU cycle 747545946, next at 748669179, pending count: 1
[DRAM_CYCLE_ERROR] Cycle-based error applied! address=0xc4d67dab0 additional_latency=173500 cycles
[ERROR_CYCLE] Error added at CPU cycle 748669179, next at 755019492, pending count: 1
[DRAM_CYCLE_ERROR] Cycle-based error applied! address=0x1583297e0 additional_latency=173500 cycles
Heartbeat CPU 0 instructions: 830000138 cycles: 752931815 heartbeat IPC: 1.162 cumulative IPC: 1.102 (Simulation time: 01 hr 43 min 55 sec)
[ERROR_CYCLE] Error added at CPU cycle 755019492, next at 755497083, pending count: 1
[DRAM_CYCLE_ERROR] Cycle-based error applied! address=0xa6daa3e0 additional_latency=173500 cycles
[ERROR_CYCLE] Error added at CPU cycle 755497084, next at 758773095, pending count: 1
[DRAM_CYCLE_ERROR] Cycle-based error applied! address=0xc28d41fc8 additional_latency=173500 cycles
[ERROR_CYCLE] Error added at CPU cycle 758773095, next at 767932446, pending count: 1
[DRAM_CYCLE_ERROR] Cycle-based error applied! address=0x857f73d48 additional_latency=173500 cycles
Heartbeat CPU 0 instructions: 840000139 cycles: 762162304 heartbeat IPC: 1.083 cumulative IPC: 1.102 (Simulation time: 01 hr 45 min 14 sec)
[ERROR_CYCLE] Error added at CPU cycle 767932447, next at 768052303, pending count: 1
[DRAM_CYCLE_ERROR] Cycle-based error applied! address=0x60c4211c8 additional_latency=173500 cycles
[ERROR_CYCLE] Error added at CPU cycle 768052303, next at 768100071, pending count: 1
[DRAM_CYCLE_ERROR] Cycle-based error applied! address=0x79fbc9100 additional_latency=173500 cycles
[ERROR_CYCLE] Error added at CPU cycle 768100072, next at 768264987, pending count: 1
[DRAM_CYCLE_ERROR] Cycle-based error applied! address=0x3ab9b70d8 additional_latency=173500 cycles
[ERROR_CYCLE] Error added at CPU cycle 768264987, next at 773476830, pending count: 1
[DRAM_CYCLE_ERROR] Cycle-based error applied! address=0x4ab4f36b0 additional_latency=173500 cycles
Heartbeat CPU 0 instructions: 850000142 cycles: 771997149 heartbeat IPC: 1.017 cumulative IPC: 1.101 (Simulation time: 01 hr 46 min 37 sec)
[ERROR_CYCLE] Error added at CPU cycle 773476830, next at 775408797, pending count: 1
[DRAM_CYCLE_ERROR] Cycle-based error applied! address=0xdc29328a0 additional_latency=173500 cycles
[ERROR_CYCLE] Error added at CPU cycle 775408797, next at 776477567, pending count: 1
[DRAM_CYCLE_ERROR] Cycle-based error applied! address=0xfdde6c710 additional_latency=173500 cycles
[ERROR_CYCLE] Error added at CPU cycle 776477568, next at 782055313, pending count: 1
[DRAM_CYCLE_ERROR] Cycle-based error applied! address=0xb21be0390 additional_latency=173500 cycles
[ERROR_CYCLE] Error added at CPU cycle 782055314, next at 793366198, pending count: 1
[DRAM_CYCLE_ERROR] Cycle-based error applied! address=0xc22766710 additional_latency=173500 cycles
Heartbeat CPU 0 instructions: 860000142 cycles: 782692595 heartbeat IPC: 0.935 cumulative IPC: 1.099 (Simulation time: 01 hr 48 min 04 sec)
[ERROR_CYCLE] Error added at CPU cycle 793366198, next at 800738627, pending count: 1
[DRAM_CYCLE_ERROR] Cycle-based error applied! address=0x9d8da7c50 additional_latency=173500 cycles
Heartbeat CPU 0 instructions: 870000143 cycles: 794304327 heartbeat IPC: 0.8612 cumulative IPC: 1.095 (Simulation time: 01 hr 49 min 33 sec)
[ERROR_CYCLE] Error added at CPU cycle 800738628, next at 804703481, pending count: 1
[DRAM_CYCLE_ERROR] Cycle-based error applied! address=0xd82217a78 additional_latency=173500 cycles
[ERROR_CYCLE] Error added at CPU cycle 804703481, next at 812634114, pending count: 1
[DRAM_CYCLE_ERROR] Cycle-based error applied! address=0xe6d43100 additional_latency=173500 cycles
Heartbeat CPU 0 instructions: 880000144 cycles: 807702154 heartbeat IPC: 0.7464 cumulative IPC: 1.09 (Simulation time: 01 hr 50 min 56 sec)
[ERROR_CYCLE] Error added at CPU cycle 812634115, next at 825252033, pending count: 1
[DRAM_CYCLE_ERROR] Cycle-based error applied! address=0xb0e780e50 additional_latency=173500 cycles
Heartbeat CPU 0 instructions: 890000146 cycles: 824006355 heartbeat IPC: 0.6133 cumulative IPC: 1.08 (Simulation time: 01 hr 52 min 53 sec)
[ERROR_CYCLE] Error added at CPU cycle 825252034, next at 830437472, pending count: 1
[DRAM_CYCLE_ERROR] Cycle-based error applied! address=0x43ea08de0 additional_latency=173500 cycles
[ERROR_CYCLE] Error added at CPU cycle 830437472, next at 838935145, pending count: 1
[DRAM_CYCLE_ERROR] Cycle-based error applied! address=0xa42a811a0 additional_latency=173500 cycles
Heartbeat CPU 0 instructions: 900000146 cycles: 838682192 heartbeat IPC: 0.6814 cumulative IPC: 1.073 (Simulation time: 01 hr 54 min 45 sec)
[ERROR_CYCLE] Error added at CPU cycle 838935145, next at 861804158, pending count: 1
[DRAM_CYCLE_ERROR] Cycle-based error applied! address=0x2ef3b2d08 additional_latency=173500 cycles
Heartbeat CPU 0 instructions: 910000146 cycles: 849487130 heartbeat IPC: 0.9255 cumulative IPC: 1.071 (Simulation time: 01 hr 56 min 14 sec)
[ERROR_CYCLE] Error added at CPU cycle 861804158, next at 864139244, pending count: 1
[DRAM_CYCLE_ERROR] Cycle-based error applied! address=0x697ca27e0 additional_latency=173500 cycles
Heartbeat CPU 0 instructions: 920000147 cycles: 863325307 heartbeat IPC: 0.7226 cumulative IPC: 1.066 (Simulation time: 01 hr 58 min 05 sec)
[ERROR_CYCLE] Error added at CPU cycle 864139244, next at 883044804, pending count: 1
[DRAM_CYCLE_ERROR] Cycle-based error applied! address=0xc5d6907e0 additional_latency=173500 cycles
Heartbeat CPU 0 instructions: 930000148 cycles: 874535848 heartbeat IPC: 0.892 cumulative IPC: 1.063 (Simulation time: 01 hr 59 min 28 sec)
[ERROR_CYCLE] Error added at CPU cycle 883044804, next at 885467139, pending count: 1
[DRAM_CYCLE_ERROR] Cycle-based error applied! address=0xf9f526fc0 additional_latency=173500 cycles
Heartbeat CPU 0 instructions: 940000148 cycles: 884827333 heartbeat IPC: 0.9717 cumulative IPC: 1.062 (Simulation time: 02 hr 00 min 53 sec)
[ERROR_CYCLE] Error added at CPU cycle 885467140, next at 887176065, pending count: 1
[DRAM_CYCLE_ERROR] Cycle-based error applied! address=0x3eec77898 additional_latency=173500 cycles
[ERROR_CYCLE] Error added at CPU cycle 887176065, next at 891433294, pending count: 1
[DRAM_CYCLE_ERROR] Cycle-based error applied! address=0x11232a7e0 additional_latency=173500 cycles
[ERROR_CYCLE] Error added at CPU cycle 891433294, next at 910142062, pending count: 1
[DRAM_CYCLE_ERROR] Cycle-based error applied! address=0x92d0a4e78 additional_latency=173500 cycles
Heartbeat CPU 0 instructions: 950000151 cycles: 894499353 heartbeat IPC: 1.034 cumulative IPC: 1.062 (Simulation time: 02 hr 02 min 13 sec)
Heartbeat CPU 0 instructions: 960000151 cycles: 903814233 heartbeat IPC: 1.074 cumulative IPC: 1.062 (Simulation time: 02 hr 03 min 15 sec)
[ERROR_CYCLE] Error added at CPU cycle 910142062, next at 912455925, pending count: 1
[DRAM_CYCLE_ERROR] Cycle-based error applied! address=0xe77904bf0 additional_latency=173500 cycles
Heartbeat CPU 0 instructions: 970000152 cycles: 911844993 heartbeat IPC: 1.245 cumulative IPC: 1.064 (Simulation time: 02 hr 04 min 10 sec)
[ERROR_CYCLE] Error added at CPU cycle 912455925, next at 920452495, pending count: 1
[DRAM_CYCLE_ERROR] Cycle-based error applied! address=0x60e0a9eb0 additional_latency=173500 cycles
Heartbeat CPU 0 instructions: 980000156 cycles: 919380815 heartbeat IPC: 1.327 cumulative IPC: 1.066 (Simulation time: 02 hr 05 min 10 sec)
[ERROR_CYCLE] Error added at CPU cycle 920452495, next at 925358975, pending count: 1
[DRAM_CYCLE_ERROR] Cycle-based error applied! address=0x4d9df95e0 additional_latency=173500 cycles
[ERROR_CYCLE] Error added at CPU cycle 925358976, next at 928208581, pending count: 1
[DRAM_CYCLE_ERROR] Cycle-based error applied! address=0xb3982ce0 additional_latency=173500 cycles
[ERROR_CYCLE] Error added at CPU cycle 928208581, next at 935551244, pending count: 1
[DRAM_CYCLE_ERROR] Cycle-based error applied! address=0xa0d9d26a8 additional_latency=173500 cycles
Heartbeat CPU 0 instructions: 990000157 cycles: 928481409 heartbeat IPC: 1.099 cumulative IPC: 1.066 (Simulation time: 02 hr 06 min 27 sec)
[ERROR_CYCLE] Error added at CPU cycle 935551244, next at 940277711, pending count: 1
[DRAM_CYCLE_ERROR] Cycle-based error applied! address=0xf1f8b7f68 additional_latency=173500 cycles
[ERROR_CYCLE] Error added at CPU cycle 940277711, next at 941361915, pending count: 1
[DRAM_CYCLE_ERROR] Cycle-based error applied! address=0xec8df0d38 additional_latency=173500 cycles
Heartbeat CPU 0 instructions: 1000000157 cycles: 940530950 heartbeat IPC: 0.8299 cumulative IPC: 1.063 (Simulation time: 02 hr 07 min 43 sec)
[ERROR_CYCLE] Error added at CPU cycle 941361915, next at 944131710, pending count: 1
[DRAM_CYCLE_ERROR] Cycle-based error applied! address=0x76778ad78 additional_latency=173500 cycles
[ERROR_CYCLE] Error added at CPU cycle 944131710, next at 965831250, pending count: 1
[DRAM_CYCLE_ERROR] Cycle-based error applied! address=0x253d1f028 additional_latency=173500 cycles
Heartbeat CPU 0 instructions: 1010000157 cycles: 954915886 heartbeat IPC: 0.6952 cumulative IPC: 1.058 (Simulation time: 02 hr 09 min 27 sec)
[ERROR_CYCLE] Error added at CPU cycle 965831250, next at 978230112, pending count: 1
[DRAM_CYCLE_ERROR] Cycle-based error applied! address=0x4ab4f3108 additional_latency=173500 cycles
Heartbeat CPU 0 instructions: 1020000158 cycles: 966053053 heartbeat IPC: 0.8979 cumulative IPC: 1.056 (Simulation time: 02 hr 10 min 53 sec)
[ERROR_CYCLE] Error added at CPU cycle 978230113, next at 995345989, pending count: 1
[DRAM_CYCLE_ERROR] Cycle-based error applied! address=0xe4b91da78 additional_latency=173500 cycles
Heartbeat CPU 0 instructions: 1030000158 cycles: 979064272 heartbeat IPC: 0.7686 cumulative IPC: 1.052 (Simulation time: 02 hr 12 min 32 sec)
Heartbeat CPU 0 instructions: 1040000158 cycles: 990320766 heartbeat IPC: 0.8884 cumulative IPC: 1.05 (Simulation time: 02 hr 14 min 01 sec)
[ERROR_CYCLE] Error added at CPU cycle 995345989, next at 1001484614, pending count: 1
[DRAM_CYCLE_ERROR] Cycle-based error applied! address=0x1dbe5e78 additional_latency=173500 cycles
[ERROR_CYCLE] Error added at CPU cycle 1001484615, next at 1010972056, pending count: 1
[DRAM_CYCLE_ERROR] Cycle-based error applied! address=0xe122db2d8 additional_latency=173500 cycles
Heartbeat CPU 0 instructions: 1050000158 cycles: 1002891039 heartbeat IPC: 0.7955 cumulative IPC: 1.047 (Simulation time: 02 hr 15 min 38 sec)
[ERROR_CYCLE] Error added at CPU cycle 1010972057, next at 1013450836, pending count: 1
[DRAM_CYCLE_ERROR] Cycle-based error applied! address=0x9ed6cff10 additional_latency=173500 cycles
[ERROR_CYCLE] Error added at CPU cycle 1013450836, next at 1027850374, pending count: 1
[DRAM_CYCLE_ERROR] Cycle-based error applied! address=0x85974db90 additional_latency=173500 cycles
Heartbeat CPU 0 instructions: 1060000158 cycles: 1015301629 heartbeat IPC: 0.8058 cumulative IPC: 1.044 (Simulation time: 02 hr 17 min 17 sec)
Heartbeat CPU 0 instructions: 1070000158 cycles: 1025953548 heartbeat IPC: 0.9388 cumulative IPC: 1.043 (Simulation time: 02 hr 18 min 47 sec)
[ERROR_CYCLE] Error added at CPU cycle 1027850375, next at 1040360188, pending count: 1
[DRAM_CYCLE_ERROR] Cycle-based error applied! address=0x33cfff0c0 additional_latency=173500 cycles
Heartbeat CPU 0 instructions: 1080000160 cycles: 1035669742 heartbeat IPC: 1.029 cumulative IPC: 1.043 (Simulation time: 02 hr 20 min 12 sec)
[ERROR_CYCLE] Error added at CPU cycle 1040360189, next at 1048241966, pending count: 1
[DRAM_CYCLE_ERROR] Cycle-based error applied! address=0x76778acc0 additional_latency=173500 cycles
[ERROR_CYCLE] Error added at CPU cycle 1048241966, next at 1057607729, pending count: 1
[DRAM_CYCLE_ERROR] Cycle-based error applied! address=0x5c910e2c0 additional_latency=173500 cycles
Heartbeat CPU 0 instructions: 1090000160 cycles: 1048419399 heartbeat IPC: 0.7843 cumulative IPC: 1.04 (Simulation time: 02 hr 21 min 48 sec)
[ERROR_CYCLE] Error added at CPU cycle 1057607729, next at 1078039556, pending count: 1
[DRAM_CYCLE_ERROR] Cycle-based error applied! address=0x9504b0450 additional_latency=173500 cycles
Heartbeat CPU 0 instructions: 1100000160 cycles: 1060759435 heartbeat IPC: 0.8104 cumulative IPC: 1.037 (Simulation time: 02 hr 23 min 25 sec)
Heartbeat CPU 0 instructions: 1110000160 cycles: 1073268707 heartbeat IPC: 0.7994 cumulative IPC: 1.034 (Simulation time: 02 hr 25 min 09 sec)
[ERROR_CYCLE] Error added at CPU cycle 1078039557, next at 1093227895, pending count: 1
[DRAM_CYCLE_ERROR] Cycle-based error applied! address=0xa7fc6a480 additional_latency=173500 cycles
Heartbeat CPU 0 instructions: 1120000160 cycles: 1084102109 heartbeat IPC: 0.9231 cumulative IPC: 1.033 (Simulation time: 02 hr 26 min 35 sec)
[ERROR_CYCLE] Error added at CPU cycle 1093227895, next at 1095375545, pending count: 1
[DRAM_CYCLE_ERROR] Cycle-based error applied! address=0xbd50e4a98 additional_latency=173500 cycles
Heartbeat CPU 0 instructions: 1130000164 cycles: 1094186814 heartbeat IPC: 0.9916 cumulative IPC: 1.033 (Simulation time: 02 hr 28 min 02 sec)
[ERROR_CYCLE] Error added at CPU cycle 1095375545, next at 1101804530, pending count: 1
[DRAM_CYCLE_ERROR] Cycle-based error applied! address=0x4ab4f3108 additional_latency=173500 cycles
[ERROR_CYCLE] Error added at CPU cycle 1101804530, next at 1107079687, pending count: 1
[DRAM_CYCLE_ERROR] Cycle-based error applied! address=0x4ab4f3108 additional_latency=173500 cycles
Heartbeat CPU 0 instructions: 1140000164 cycles: 1103131812 heartbeat IPC: 1.118 cumulative IPC: 1.033 (Simulation time: 02 hr 29 min 22 sec)
[ERROR_CYCLE] Error added at CPU cycle 1107079687, next at 1115318803, pending count: 1
[DRAM_CYCLE_ERROR] Cycle-based error applied! address=0x11232a7e0 additional_latency=173500 cycles
Heartbeat CPU 0 instructions: 1150000164 cycles: 1112551763 heartbeat IPC: 1.062 cumulative IPC: 1.034 (Simulation time: 02 hr 30 min 46 sec)
[ERROR_CYCLE] Error added at CPU cycle 1115318803, next at 1135008200, pending count: 1
[DRAM_CYCLE_ERROR] Cycle-based error applied! address=0x55e7f4f38 additional_latency=173500 cycles
Heartbeat CPU 0 instructions: 1160000166 cycles: 1126003608 heartbeat IPC: 0.7434 cumulative IPC: 1.03 (Simulation time: 02 hr 32 min 39 sec)
[ERROR_CYCLE] Error added at CPU cycle 1135008201, next at 1140982700, pending count: 1
[DRAM_CYCLE_ERROR] Cycle-based error applied! address=0x1579ea440 additional_latency=173500 cycles
Heartbeat CPU 0 instructions: 1170000168 cycles: 1136857426 heartbeat IPC: 0.9213 cumulative IPC: 1.029 (Simulation time: 02 hr 34 min 12 sec)
[ERROR_CYCLE] Error added at CPU cycle 1140982700, next at 1154083331, pending count: 1
[DRAM_CYCLE_ERROR] Cycle-based error applied! address=0x5c910e2b0 additional_latency=173500 cycles
Heartbeat CPU 0 instructions: 1180000172 cycles: 1146947994 heartbeat IPC: 0.991 cumulative IPC: 1.029 (Simulation time: 02 hr 35 min 39 sec)
[ERROR_CYCLE] Error added at CPU cycle 1154083332, next at 1155066855, pending count: 1
[DRAM_CYCLE_ERROR] Cycle-based error applied! address=0xdc8ff3f50 additional_latency=173500 cycles
[ERROR_CYCLE] Error added at CPU cycle 1155066856, next at 1164180982, pending count: 1
[DRAM_CYCLE_ERROR] Cycle-based error applied! address=0xbbf323eb0 additional_latency=173500 cycles
Heartbeat CPU 0 instructions: 1190000173 cycles: 1156354248 heartbeat IPC: 1.063 cumulative IPC: 1.029 (Simulation time: 02 hr 37 min 03 sec)
[ERROR_CYCLE] Error added at CPU cycle 1164180982, next at 1170052729, pending count: 1
[DRAM_CYCLE_ERROR] Cycle-based error applied! address=0x22c335898 additional_latency=173500 cycles
Heartbeat CPU 0 instructions: 1200000177 cycles: 1169915051 heartbeat IPC: 0.7374 cumulative IPC: 1.026 (Simulation time: 02 hr 38 min 31 sec)
[ERROR_CYCLE] Error added at CPU cycle 1170052730, next at 1201159550, pending count: 1
[DRAM_CYCLE_ERROR] Cycle-based error applied! address=0x9b6011d90 additional_latency=173500 cycles
Heartbeat CPU 0 instructions: 1210000181 cycles: 1182439982 heartbeat IPC: 0.7984 cumulative IPC: 1.023 (Simulation time: 02 hr 39 min 54 sec)
Heartbeat CPU 0 instructions: 1220000181 cycles: 1194964459 heartbeat IPC: 0.7984 cumulative IPC: 1.021 (Simulation time: 02 hr 41 min 20 sec)
[ERROR_CYCLE] Error added at CPU cycle 1201159551, next at 1219803754, pending count: 1
[DRAM_CYCLE_ERROR] Cycle-based error applied! address=0xbe5605f28 additional_latency=173500 cycles
Heartbeat CPU 0 instructions: 1230000184 cycles: 1205664831 heartbeat IPC: 0.9345 cumulative IPC: 1.02 (Simulation time: 02 hr 42 min 26 sec)
Heartbeat CPU 0 instructions: 1240000187 cycles: 1218255120 heartbeat IPC: 0.7943 cumulative IPC: 1.018 (Simulation time: 02 hr 43 min 52 sec)
[ERROR_CYCLE] Error added at CPU cycle 1219803754, next at 1222032553, pending count: 1
[DRAM_CYCLE_ERROR] Cycle-based error applied! address=0x987d7ca78 additional_latency=173500 cycles
[ERROR_CYCLE] Error added at CPU cycle 1222032554, next at 1224789878, pending count: 1
[DRAM_CYCLE_ERROR] Cycle-based error applied! address=0x6a260fb38 additional_latency=173500 cycles
[ERROR_CYCLE] Error added at CPU cycle 1224789879, next at 1231478862, pending count: 1
[DRAM_CYCLE_ERROR] Cycle-based error applied! address=0x41263bd10 additional_latency=173500 cycles
Heartbeat CPU 0 instructions: 1250000190 cycles: 1230729252 heartbeat IPC: 0.8017 cumulative IPC: 1.016 (Simulation time: 02 hr 45 min 33 sec)
[ERROR_CYCLE] Error added at CPU cycle 1231478862, next at 1231912145, pending count: 1
[DRAM_CYCLE_ERROR] Cycle-based error applied! address=0x497083ff0 additional_latency=173500 cycles
[ERROR_CYCLE] Error added at CPU cycle 1231912145, next at 1236268432, pending count: 1
[DRAM_CYCLE_ERROR] Cycle-based error applied! address=0xc5d6907e0 additional_latency=173500 cycles
[ERROR_CYCLE] Error added at CPU cycle 1236268432, next at 1250618753, pending count: 1
[DRAM_CYCLE_ERROR] Cycle-based error applied! address=0xd0ee95468 additional_latency=173500 cycles
Heartbeat CPU 0 instructions: 1260000191 cycles: 1243044929 heartbeat IPC: 0.812 cumulative IPC: 1.014 (Simulation time: 02 hr 47 min 18 sec)
[ERROR_CYCLE] Error added at CPU cycle 1250618753, next at 1293864347, pending count: 1
[DRAM_CYCLE_ERROR] Cycle-based error applied! address=0x30d4a0002 additional_latency=173500 cycles
Heartbeat CPU 0 instructions: 1270000191 cycles: 1253598135 heartbeat IPC: 0.9476 cumulative IPC: 1.013 (Simulation time: 02 hr 48 min 49 sec)
Heartbeat CPU 0 instructions: 1280000193 cycles: 1263476333 heartbeat IPC: 1.012 cumulative IPC: 1.013 (Simulation time: 02 hr 50 min 15 sec)
Heartbeat CPU 0 instructions: 1290000197 cycles: 1272953593 heartbeat IPC: 1.055 cumulative IPC: 1.013 (Simulation time: 02 hr 51 min 39 sec)
Heartbeat CPU 0 instructions: 1300000197 cycles: 1280566615 heartbeat IPC: 1.314 cumulative IPC: 1.015 (Simulation time: 02 hr 52 min 51 sec)
Heartbeat CPU 0 instructions: 1310000201 cycles: 1289209994 heartbeat IPC: 1.157 cumulative IPC: 1.016 (Simulation time: 02 hr 54 min 10 sec)
[ERROR_CYCLE] Error added at CPU cycle 1293864347, next at 1304881196, pending count: 1
[DRAM_CYCLE_ERROR] Cycle-based error applied! address=0x2981ac728 additional_latency=173500 cycles
Heartbeat CPU 0 instructions: 1320000202 cycles: 1301489977 heartbeat IPC: 0.8143 cumulative IPC: 1.014 (Simulation time: 02 hr 55 min 53 sec)
[ERROR_CYCLE] Error added at CPU cycle 1304881197, next at 1314838771, pending count: 1
[DRAM_CYCLE_ERROR] Cycle-based error applied! address=0x2fd37d098 additional_latency=173500 cycles
Heartbeat CPU 0 instructions: 1330000202 cycles: 1313974882 heartbeat IPC: 0.801 cumulative IPC: 1.012 (Simulation time: 02 hr 57 min 39 sec)
[ERROR_CYCLE] Error added at CPU cycle 1314838771, next at 1321326019, pending count: 1
[DRAM_CYCLE_ERROR] Cycle-based error applied! address=0x9ed6cff10 additional_latency=173500 cycles
[ERROR_CYCLE] Error added at CPU cycle 1321326020, next at 1334779567, pending count: 1
[DRAM_CYCLE_ERROR] Cycle-based error applied! address=0xf0386ce40 additional_latency=173500 cycles
Heartbeat CPU 0 instructions: 1340000202 cycles: 1324419556 heartbeat IPC: 0.9574 cumulative IPC: 1.012 (Simulation time: 02 hr 59 min 09 sec)
Heartbeat CPU 0 instructions: 1350000203 cycles: 1334218864 heartbeat IPC: 1.02 cumulative IPC: 1.012 (Simulation time: 03 hr 00 min 35 sec)
[ERROR_CYCLE] Error added at CPU cycle 1334779568, next at 1341662842, pending count: 1
[DRAM_CYCLE_ERROR] Cycle-based error applied! address=0x27e434b38 additional_latency=173500 cycles
[ERROR_CYCLE] Error added at CPU cycle 1341662842, next at 1341958013, pending count: 1
[DRAM_CYCLE_ERROR] Cycle-based error applied! address=0x6cdd96600 additional_latency=173500 cycles
[ERROR_CYCLE] Error added at CPU cycle 1341958014, next at 1347444921, pending count: 1
[DRAM_CYCLE_ERROR] Cycle-based error applied! address=0xe4a1193e0 additional_latency=173500 cycles
Heartbeat CPU 0 instructions: 1360000204 cycles: 1343563564 heartbeat IPC: 1.07 cumulative IPC: 1.012 (Simulation time: 03 hr 01 min 58 sec)
[ERROR_CYCLE] Error added at CPU cycle 1347444921, next at 1348889686, pending count: 1
[DRAM_CYCLE_ERROR] Cycle-based error applied! address=0x2d7929108 additional_latency=173500 cycles
[ERROR_CYCLE] Error added at CPU cycle 1348889686, next at 1370368934, pending count: 1
[DRAM_CYCLE_ERROR] Cycle-based error applied! address=0xb64217d08 additional_latency=173500 cycles
Heartbeat CPU 0 instructions: 1370000205 cycles: 1351646990 heartbeat IPC: 1.237 cumulative IPC: 1.014 (Simulation time: 03 hr 03 min 13 sec)
Heartbeat CPU 0 instructions: 1380000206 cycles: 1359251846 heartbeat IPC: 1.315 cumulative IPC: 1.015 (Simulation time: 03 hr 04 min 26 sec)
Heartbeat CPU 0 instructions: 1390000210 cycles: 1368658433 heartbeat IPC: 1.063 cumulative IPC: 1.016 (Simulation time: 03 hr 05 min 50 sec)
[ERROR_CYCLE] Error added at CPU cycle 1370368934, next at 1377657432, pending count: 1
[DRAM_CYCLE_ERROR] Cycle-based error applied! address=0x991f6e642 additional_latency=173500 cycles
[ERROR_CYCLE] Error added at CPU cycle 1377657432, next at 1418042020, pending count: 1
[DRAM_CYCLE_ERROR] Cycle-based error applied! address=0xf75354978 additional_latency=173500 cycles
Heartbeat CPU 0 instructions: 1400000210 cycles: 1382239089 heartbeat IPC: 0.7363 cumulative IPC: 1.013 (Simulation time: 03 hr 07 min 42 sec)
Heartbeat CPU 0 instructions: 1410000214 cycles: 1393494062 heartbeat IPC: 0.8885 cumulative IPC: 1.012 (Simulation time: 03 hr 09 min 19 sec)
Heartbeat CPU 0 instructions: 1420000215 cycles: 1403783891 heartbeat IPC: 0.9718 cumulative IPC: 1.012 (Simulation time: 03 hr 10 min 47 sec)
Heartbeat CPU 0 instructions: 1430000218 cycles: 1413463871 heartbeat IPC: 1.033 cumulative IPC: 1.012 (Simulation time: 03 hr 12 min 08 sec)
[ERROR_CYCLE] Error added at CPU cycle 1418042020, next at 1428774744, pending count: 1
[DRAM_CYCLE_ERROR] Cycle-based error applied! address=0xa5b8deb80 additional_latency=173500 cycles
Heartbeat CPU 0 instructions: 1440000219 cycles: 1422777107 heartbeat IPC: 1.074 cumulative IPC: 1.012 (Simulation time: 03 hr 13 min 31 sec)
[ERROR_CYCLE] Error added at CPU cycle 1428774745, next at 1430659638, pending count: 1
[DRAM_CYCLE_ERROR] Cycle-based error applied! address=0xc5d6907e0 additional_latency=173500 cycles
[ERROR_CYCLE] Error added at CPU cycle 1430659639, next at 1434805602, pending count: 1
[DRAM_CYCLE_ERROR] Cycle-based error applied! address=0x6f101b10 additional_latency=173500 cycles
Heartbeat CPU 0 instructions: 1450000219 cycles: 1431147285 heartbeat IPC: 1.195 cumulative IPC: 1.013 (Simulation time: 03 hr 14 min 47 sec)
[ERROR_CYCLE] Error added at CPU cycle 1434805602, next at 1439910027, pending count: 1
[DRAM_CYCLE_ERROR] Cycle-based error applied! address=0xd0ee95eb0 additional_latency=173500 cycles
Heartbeat CPU 0 instructions: 1460000222 cycles: 1438397066 heartbeat IPC: 1.379 cumulative IPC: 1.015 (Simulation time: 03 hr 15 min 55 sec)
[ERROR_CYCLE] Error added at CPU cycle 1439910028, next at 1455265502, pending count: 1
[DRAM_CYCLE_ERROR] Cycle-based error applied! address=0xe39407660 additional_latency=173500 cycles
Heartbeat CPU 0 instructions: 1470000225 cycles: 1446813780 heartbeat IPC: 1.188 cumulative IPC: 1.016 (Simulation time: 03 hr 17 min 12 sec)
[ERROR_CYCLE] Error added at CPU cycle 1455265502, next at 1456081149, pending count: 1
[DRAM_CYCLE_ERROR] Cycle-based error applied! address=0x3cf599d70 additional_latency=173500 cycles
[ERROR_CYCLE] Error added at CPU cycle 1456081149, next at 1459633187, pending count: 1
[DRAM_CYCLE_ERROR] Cycle-based error applied! address=0xbac83d278 additional_latency=173500 cycles
Heartbeat CPU 0 instructions: 1480000225 cycles: 1457245261 heartbeat IPC: 0.9586 cumulative IPC: 1.016 (Simulation time: 03 hr 18 min 42 sec)
[ERROR_CYCLE] Error added at CPU cycle 1459633187, next at 1470585164, pending count: 1
[DRAM_CYCLE_ERROR] Cycle-based error applied! address=0x9d7636c98 additional_latency=173500 cycles
[ERROR_CYCLE] Error added at CPU cycle 1470585164, next at 1472949657, pending count: 1
[DRAM_CYCLE_ERROR] Cycle-based error applied! address=0x9ed6cff10 additional_latency=173500 cycles
Heartbeat CPU 0 instructions: 1490000229 cycles: 1470822719 heartbeat IPC: 0.7365 cumulative IPC: 1.013 (Simulation time: 03 hr 20 min 34 sec)
[ERROR_CYCLE] Error added at CPU cycle 1472949657, next at 1483173147, pending count: 1
[DRAM_CYCLE_ERROR] Cycle-based error applied! address=0xaf50040a0 additional_latency=173500 cycles
[ERROR_CYCLE] Error added at CPU cycle 1483173148, next at 1484511175, pending count: 1
[DRAM_CYCLE_ERROR] Cycle-based error applied! address=0xa601e78 additional_latency=173500 cycles
Heartbeat CPU 0 instructions: 1500000229 cycles: 1484047099 heartbeat IPC: 0.7562 cumulative IPC: 1.011 (Simulation time: 03 hr 22 min 27 sec)
[ERROR_CYCLE] Error added at CPU cycle 1484511175, next at 1492326095, pending count: 1
[DRAM_CYCLE_ERROR] Cycle-based error applied! address=0xdf0395a80 additional_latency=173500 cycles
[ERROR_CYCLE] Error added at CPU cycle 1492326095, next at 1498403147, pending count: 1
[DRAM_CYCLE_ERROR] Cycle-based error applied! address=0xf218fef38 additional_latency=173500 cycles
Heartbeat CPU 0 instructions: 1510000232 cycles: 1496558290 heartbeat IPC: 0.7993 cumulative IPC: 1.009 (Simulation time: 03 hr 24 min 15 sec)
[ERROR_CYCLE] Error added at CPU cycle 1498403147, next at 1500174205, pending count: 1
[DRAM_CYCLE_ERROR] Cycle-based error applied! address=0x1f5be390 additional_latency=173500 cycles
[ERROR_CYCLE] Error added at CPU cycle 1500174206, next at 1504681962, pending count: 1
[DRAM_CYCLE_ERROR] Cycle-based error applied! address=0x6f101f38 additional_latency=173500 cycles
[ERROR_CYCLE] Error added at CPU cycle 1504681962, next at 1508176422, pending count: 1
[DRAM_CYCLE_ERROR] Cycle-based error applied! address=0x49f6772b0 additional_latency=173500 cycles
[ERROR_CYCLE] Error added at CPU cycle 1508176422, next at 1510980618, pending count: 1
[DRAM_CYCLE_ERROR] Cycle-based error applied! address=0xb86438550 additional_latency=173500 cycles
Heartbeat CPU 0 instructions: 1520000235 cycles: 1508836702 heartbeat IPC: 0.8144 cumulative IPC: 1.007 (Simulation time: 03 hr 26 min 00 sec)
[ERROR_CYCLE] Error added at CPU cycle 1510980618, next at 1540506590, pending count: 1
[DRAM_CYCLE_ERROR] Cycle-based error applied! address=0x497083b10 additional_latency=173500 cycles
Heartbeat CPU 0 instructions: 1530000235 cycles: 1521299826 heartbeat IPC: 0.8024 cumulative IPC: 1.006 (Simulation time: 03 hr 27 min 46 sec)
Heartbeat CPU 0 instructions: 1540000235 cycles: 1533679025 heartbeat IPC: 0.8078 cumulative IPC: 1.004 (Simulation time: 03 hr 29 min 33 sec)
[ERROR_CYCLE] Error added at CPU cycle 1540506591, next at 1545633908, pending count: 1
[DRAM_CYCLE_ERROR] Cycle-based error applied! address=0x5fd687898 additional_latency=173500 cycles
[ERROR_CYCLE] Error added at CPU cycle 1545633909, next at 1555382131, pending count: 1
[DRAM_CYCLE_ERROR] Cycle-based error applied! address=0x987d7c508 additional_latency=173500 cycles
Heartbeat CPU 0 instructions: 1550000235 cycles: 1545898458 heartbeat IPC: 0.8184 cumulative IPC: 1.003 (Simulation time: 03 hr 31 min 17 sec)
[ERROR_CYCLE] Error added at CPU cycle 1555382132, next at 1559379921, pending count: 1
[DRAM_CYCLE_ERROR] Cycle-based error applied! address=0x81d048968 additional_latency=173500 cycles
Heartbeat CPU 0 instructions: 1560000235 cycles: 1556455844 heartbeat IPC: 0.9472 cumulative IPC: 1.002 (Simulation time: 03 hr 32 min 46 sec)
[ERROR_CYCLE] Error added at CPU cycle 1559379922, next at 1568250473, pending count: 1
[DRAM_CYCLE_ERROR] Cycle-based error applied! address=0xbf5f843c8 additional_latency=173500 cycles
Heartbeat CPU 0 instructions: 1570000236 cycles: 1566316224 heartbeat IPC: 1.014 cumulative IPC: 1.002 (Simulation time: 03 hr 34 min 12 sec)
[ERROR_CYCLE] Error added at CPU cycle 1568250473, next at 1568397086, pending count: 1
[DRAM_CYCLE_ERROR] Cycle-based error applied! address=0x99b8cbf38 additional_latency=173500 cycles
[ERROR_CYCLE] Error added at CPU cycle 1568397086, next at 1571204618, pending count: 1
[DRAM_CYCLE_ERROR] Cycle-based error applied! address=0xd3c277840 additional_latency=173500 cycles
[ERROR_CYCLE] Error added at CPU cycle 1571204618, next at 1572401785, pending count: 1
[DRAM_CYCLE_ERROR] Cycle-based error applied! address=0x2532f5c80 additional_latency=173500 cycles
[ERROR_CYCLE] Error added at CPU cycle 1572401785, next at 1585569552, pending count: 1
[DRAM_CYCLE_ERROR] Cycle-based error applied! address=0x2caed2900 additional_latency=173500 cycles
Heartbeat CPU 0 instructions: 1580000236 cycles: 1575741976 heartbeat IPC: 1.061 cumulative IPC: 1.003 (Simulation time: 03 hr 35 min 35 sec)
Heartbeat CPU 0 instructions: 1590000236 cycles: 1584875995 heartbeat IPC: 1.095 cumulative IPC: 1.003 (Simulation time: 03 hr 36 min 56 sec)
[ERROR_CYCLE] Error added at CPU cycle 1585569553, next at 1586429627, pending count: 1
[DRAM_CYCLE_ERROR] Cycle-based error applied! address=0x2b7f34908 additional_latency=173500 cycles
[ERROR_CYCLE] Error added at CPU cycle 1586429628, next at 1598198580, pending count: 1
[DRAM_CYCLE_ERROR] Cycle-based error applied! address=0xc5d6907e0 additional_latency=173500 cycles
Heartbeat CPU 0 instructions: 1600000236 cycles: 1593585771 heartbeat IPC: 1.148 cumulative IPC: 1.004 (Simulation time: 03 hr 38 min 14 sec)
[ERROR_CYCLE] Error added at CPU cycle 1598198580, next at 1609933064, pending count: 1
[DRAM_CYCLE_ERROR] Cycle-based error applied! address=0xd82217be0 additional_latency=173500 cycles
Heartbeat CPU 0 instructions: 1610000239 cycles: 1600382092 heartbeat IPC: 1.471 cumulative IPC: 1.006 (Simulation time: 03 hr 39 min 21 sec)
Heartbeat CPU 0 instructions: 1620000240 cycles: 1607695136 heartbeat IPC: 1.367 cumulative IPC: 1.008 (Simulation time: 03 hr 40 min 31 sec)
[ERROR_CYCLE] Error added at CPU cycle 1609933064, next at 1625877684, pending count: 1
[DRAM_CYCLE_ERROR] Cycle-based error applied! address=0x375dfd848 additional_latency=173500 cycles
Heartbeat CPU 0 instructions: 1630000242 cycles: 1615946674 heartbeat IPC: 1.212 cumulative IPC: 1.009 (Simulation time: 03 hr 41 min 46 sec)
[ERROR_CYCLE] Error added at CPU cycle 1625877685, next at 1636789861, pending count: 1
[DRAM_CYCLE_ERROR] Cycle-based error applied! address=0xe6d43100 additional_latency=173500 cycles
Heartbeat CPU 0 instructions: 1640000242 cycles: 1625897998 heartbeat IPC: 1.005 cumulative IPC: 1.009 (Simulation time: 03 hr 43 min 05 sec)
[ERROR_CYCLE] Error added at CPU cycle 1636789862, next at 1644796500, pending count: 1
[DRAM_CYCLE_ERROR] Cycle-based error applied! address=0x6055b9fc8 additional_latency=173500 cycles
Heartbeat CPU 0 instructions: 1650000245 cycles: 1639807281 heartbeat IPC: 0.7189 cumulative IPC: 1.006 (Simulation time: 03 hr 44 min 37 sec)
[ERROR_CYCLE] Error added at CPU cycle 1644796501, next at 1651860450, pending count: 1
[DRAM_CYCLE_ERROR] Cycle-based error applied! address=0xb52099338 additional_latency=173500 cycles
[ERROR_CYCLE] Error added at CPU cycle 1651860451, next at 1653809977, pending count: 1
[DRAM_CYCLE_ERROR] Cycle-based error applied! address=0x6618296b0 additional_latency=173500 cycles
Heartbeat CPU 0 instructions: 1660000247 cycles: 1652898226 heartbeat IPC: 0.7639 cumulative IPC: 1.004 (Simulation time: 03 hr 45 min 58 sec)
[ERROR_CYCLE] Error added at CPU cycle 1653809978, next at 1657379418, pending count: 1
[DRAM_CYCLE_ERROR] Cycle-based error applied! address=0x4b857b678 additional_latency=173500 cycles
[ERROR_CYCLE] Error added at CPU cycle 1657379418, next at 1658264083, pending count: 1
[DRAM_CYCLE_ERROR] Cycle-based error applied! address=0xd2960bb10 additional_latency=173500 cycles
[ERROR_CYCLE] Error added at CPU cycle 1658264083, next at 1665882359, pending count: 1
[DRAM_CYCLE_ERROR] Cycle-based error applied! address=0xe77904bf0 additional_latency=173500 cycles
Heartbeat CPU 0 instructions: 1670000248 cycles: 1665339580 heartbeat IPC: 0.8038 cumulative IPC: 1.003 (Simulation time: 03 hr 47 min 12 sec)
[ERROR_CYCLE] Error added at CPU cycle 1665882360, next at 1676059798, pending count: 1
[DRAM_CYCLE_ERROR] Cycle-based error applied! address=0xf43216d88 additional_latency=173500 cycles
[ERROR_CYCLE] Error added at CPU cycle 1676059798, next at 1681837268, pending count: 1
[DRAM_CYCLE_ERROR] Cycle-based error applied! address=0x319efac78 additional_latency=173500 cycles
Heartbeat CPU 0 instructions: 1680000248 cycles: 1676266081 heartbeat IPC: 0.9152 cumulative IPC: 1.002 (Simulation time: 03 hr 48 min 16 sec)
[ERROR_CYCLE] Error added at CPU cycle 1681837269, next at 1682449489, pending count: 1
[DRAM_CYCLE_ERROR] Cycle-based error applied! address=0xf0897e9e8 additional_latency=173500 cycles
[ERROR_CYCLE] Error added at CPU cycle 1682449490, next at 1684531699, pending count: 1
[DRAM_CYCLE_ERROR] Cycle-based error applied! address=0xe3efd6fe0 additional_latency=173500 cycles
[ERROR_CYCLE] Error added at CPU cycle 1684531699, next at 1689632708, pending count: 1
[DRAM_CYCLE_ERROR] Cycle-based error applied! address=0x854075000 additional_latency=173500 cycles
Heartbeat CPU 0 instructions: 1690000248 cycles: 1686413826 heartbeat IPC: 0.9854 cumulative IPC: 1.002 (Simulation time: 03 hr 49 min 16 sec)
[ERROR_CYCLE] Error added at CPU cycle 1689632708, next at 1698666429, pending count: 1
[DRAM_CYCLE_ERROR] Cycle-based error applied! address=0x1dbe5c58 additional_latency=173500 cycles
Heartbeat CPU 0 instructions: 1700000250 cycles: 1696031964 heartbeat IPC: 1.04 cumulative IPC: 1.002 (Simulation time: 03 hr 50 min 26 sec)
[ERROR_CYCLE] Error added at CPU cycle 1698666429, next at 1712907950, pending count: 1
[DRAM_CYCLE_ERROR] Cycle-based error applied! address=0x8f1395058 additional_latency=173500 cycles
Heartbeat CPU 0 instructions: 1710000250 cycles: 1704290218 heartbeat IPC: 1.211 cumulative IPC: 1.003 (Simulation time: 03 hr 51 min 38 sec)
Heartbeat CPU 0 instructions: 1720000251 cycles: 1712298586 heartbeat IPC: 1.249 cumulative IPC: 1.004 (Simulation time: 03 hr 52 min 39 sec)
[ERROR_CYCLE] Error added at CPU cycle 1712907950, next at 1723767518, pending count: 1
[DRAM_CYCLE_ERROR] Cycle-based error applied! address=0xe60fc1920 additional_latency=173500 cycles
Heartbeat CPU 0 instructions: 1730000251 cycles: 1722941405 heartbeat IPC: 0.9396 cumulative IPC: 1.004 (Simulation time: 03 hr 54 min 08 sec)
[ERROR_CYCLE] Error added at CPU cycle 1723767518, next at 1724455640, pending count: 1
[DRAM_CYCLE_ERROR] Cycle-based error applied! address=0xb92bba8e8 additional_latency=173500 cycles
[ERROR_CYCLE] Error added at CPU cycle 1724455640, next at 1732720291, pending count: 1
[DRAM_CYCLE_ERROR] Cycle-based error applied! address=0x76778ad08 additional_latency=173500 cycles
[ERROR_CYCLE] Error added at CPU cycle 1732720291, next at 1732872069, pending count: 1
[DRAM_CYCLE_ERROR] Cycle-based error applied! address=0x2ef3b2a08 additional_latency=173500 cycles
[ERROR_CYCLE] Error added at CPU cycle 1732872069, next at 1761065331, pending count: 1
[DRAM_CYCLE_ERROR] Cycle-based error applied! address=0x10aa06678 additional_latency=173500 cycles
Heartbeat CPU 0 instructions: 1740000253 cycles: 1737663797 heartbeat IPC: 0.6792 cumulative IPC: 1.001 (Simulation time: 03 hr 56 min 08 sec)
Heartbeat CPU 0 instructions: 1750000256 cycles: 1748670222 heartbeat IPC: 0.9086 cumulative IPC: 1.001 (Simulation time: 03 hr 57 min 42 sec)
Heartbeat CPU 0 instructions: 1760000257 cycles: 1760131954 heartbeat IPC: 0.8725 cumulative IPC: 0.9999 (Simulation time: 03 hr 59 min 14 sec)
[ERROR_CYCLE] Error added at CPU cycle 1761065331, next at 1793147943, pending count: 1
[DRAM_CYCLE_ERROR] Cycle-based error applied! address=0x8fb6226f8 additional_latency=173500 cycles
Heartbeat CPU 0 instructions: 1770000258 cycles: 1772051276 heartbeat IPC: 0.839 cumulative IPC: 0.9988 (Simulation time: 04 hr 00 min 31 sec)
Heartbeat CPU 0 instructions: 1780000259 cycles: 1782850878 heartbeat IPC: 0.926 cumulative IPC: 0.9984 (Simulation time: 04 hr 01 min 45 sec)
Heartbeat CPU 0 instructions: 1790000259 cycles: 1792941665 heartbeat IPC: 0.991 cumulative IPC: 0.9984 (Simulation time: 04 hr 03 min 07 sec)
[ERROR_CYCLE] Error added at CPU cycle 1793147943, next at 1793813373, pending count: 1
[DRAM_CYCLE_ERROR] Cycle-based error applied! address=0xaf86ad6f8 additional_latency=173500 cycles
[ERROR_CYCLE] Error added at CPU cycle 1793813374, next at 1797803186, pending count: 1
[DRAM_CYCLE_ERROR] Cycle-based error applied! address=0xd815f8390 additional_latency=173500 cycles
[ERROR_CYCLE] Error added at CPU cycle 1797803186, next at 1799966554, pending count: 1
[DRAM_CYCLE_ERROR] Cycle-based error applied! address=0xb64217d08 additional_latency=173500 cycles
[ERROR_CYCLE] Error added at CPU cycle 1799966554, next at 1816349209, pending count: 1
[DRAM_CYCLE_ERROR] Cycle-based error applied! address=0x685582ac0 additional_latency=173500 cycles
Heartbeat CPU 0 instructions: 1800000262 cycles: 1802570475 heartbeat IPC: 1.039 cumulative IPC: 0.9986 (Simulation time: 04 hr 04 min 31 sec)
Heartbeat CPU 0 instructions: 1810000266 cycles: 1811845323 heartbeat IPC: 1.078 cumulative IPC: 0.999 (Simulation time: 04 hr 05 min 53 sec)
[ERROR_CYCLE] Error added at CPU cycle 1816349210, next at 1825528779, pending count: 1
[DRAM_CYCLE_ERROR] Cycle-based error applied! address=0xbce63fd40 additional_latency=173500 cycles
Heartbeat CPU 0 instructions: 1820000267 cycles: 1820884214 heartbeat IPC: 1.106 cumulative IPC: 0.9995 (Simulation time: 04 hr 07 min 14 sec)
[ERROR_CYCLE] Error added at CPU cycle 1825528779, next at 1834768449, pending count: 1
[DRAM_CYCLE_ERROR] Cycle-based error applied! address=0x6f101b10 additional_latency=173500 cycles
Heartbeat CPU 0 instructions: 1830000267 cycles: 1829608148 heartbeat IPC: 1.146 cumulative IPC: 1 (Simulation time: 04 hr 08 min 31 sec)
[ERROR_CYCLE] Error added at CPU cycle 1834768449, next at 1844525260, pending count: 1
[DRAM_CYCLE_ERROR] Cycle-based error applied! address=0x26985b7e0 additional_latency=173500 cycles
Heartbeat CPU 0 instructions: 1840000271 cycles: 1838198962 heartbeat IPC: 1.164 cumulative IPC: 1.001 (Simulation time: 04 hr 09 min 49 sec)
[ERROR_CYCLE] Error added at CPU cycle 1844525260, next at 1850641546, pending count: 1
[DRAM_CYCLE_ERROR] Cycle-based error applied! address=0xcbcea2be0 additional_latency=173500 cycles
Heartbeat CPU 0 instructions: 1850000272 cycles: 1846611336 heartbeat IPC: 1.189 cumulative IPC: 1.002 (Simulation time: 04 hr 11 min 05 sec)
[ERROR_CYCLE] Error added at CPU cycle 1850641546, next at 1889060908, pending count: 1
[DRAM_CYCLE_ERROR] Cycle-based error applied! address=0xf21b1a440 additional_latency=173500 cycles
Heartbeat CPU 0 instructions: 1860000273 cycles: 1854782907 heartbeat IPC: 1.224 cumulative IPC: 1.003 (Simulation time: 04 hr 12 min 19 sec)
Heartbeat CPU 0 instructions: 1870000274 cycles: 1862794020 heartbeat IPC: 1.248 cumulative IPC: 1.004 (Simulation time: 04 hr 13 min 33 sec)
Heartbeat CPU 0 instructions: 1880000274 cycles: 1870752324 heartbeat IPC: 1.257 cumulative IPC: 1.005 (Simulation time: 04 hr 14 min 48 sec)
Heartbeat CPU 0 instructions: 1890000274 cycles: 1876716260 heartbeat IPC: 1.677 cumulative IPC: 1.007 (Simulation time: 04 hr 15 min 49 sec)
Heartbeat CPU 0 instructions: 1900000274 cycles: 1882661080 heartbeat IPC: 1.682 cumulative IPC: 1.009 (Simulation time: 04 hr 16 min 49 sec)
Heartbeat CPU 0 instructions: 1910000274 cycles: 1888804369 heartbeat IPC: 1.628 cumulative IPC: 1.011 (Simulation time: 04 hr 17 min 51 sec)
[ERROR_CYCLE] Error added at CPU cycle 1889060908, next at 1893058439, pending count: 1
[DRAM_CYCLE_ERROR] Cycle-based error applied! address=0x748d836b0 additional_latency=173500 cycles
[ERROR_CYCLE] Error added at CPU cycle 1893058439, next at 1893848597, pending count: 1
[DRAM_CYCLE_ERROR] Cycle-based error applied! address=0x3505b42d0 additional_latency=173500 cycles
[ERROR_CYCLE] Error added at CPU cycle 1893848597, next at 1896618500, pending count: 1
[DRAM_CYCLE_ERROR] Cycle-based error applied! address=0xa601e78 additional_latency=173500 cycles
Heartbeat CPU 0 instructions: 1920000274 cycles: 1895289213 heartbeat IPC: 1.542 cumulative IPC: 1.013 (Simulation time: 04 hr 18 min 54 sec)
[ERROR_CYCLE] Error added at CPU cycle 1896618500, next at 1899563940, pending count: 1
[DRAM_CYCLE_ERROR] Cycle-based error applied! address=0xd0ee95eb0 additional_latency=173500 cycles
[ERROR_CYCLE] Error added at CPU cycle 1899563940, next at 1916523007, pending count: 1
[DRAM_CYCLE_ERROR] Cycle-based error applied! address=0xca933f588 additional_latency=173500 cycles
Heartbeat CPU 0 instructions: 1930000275 cycles: 1902117194 heartbeat IPC: 1.465 cumulative IPC: 1.015 (Simulation time: 04 hr 20 min 00 sec)
Heartbeat CPU 0 instructions: 1940000276 cycles: 1909342532 heartbeat IPC: 1.384 cumulative IPC: 1.016 (Simulation time: 04 hr 21 min 08 sec)
[ERROR_CYCLE] Error added at CPU cycle 1916523007, next at 1919993062, pending count: 1
[DRAM_CYCLE_ERROR] Cycle-based error applied! address=0x301641ce8 additional_latency=173500 cycles
Heartbeat CPU 0 instructions: 1950000277 cycles: 1916905239 heartbeat IPC: 1.322 cumulative IPC: 1.017 (Simulation time: 04 hr 22 min 18 sec)
[ERROR_CYCLE] Error added at CPU cycle 1919993063, next at 1953397181, pending count: 1
[DRAM_CYCLE_ERROR] Cycle-based error applied! address=0xed70b650 additional_latency=173500 cycles
Heartbeat CPU 0 instructions: 1960000277 cycles: 1924914003 heartbeat IPC: 1.249 cumulative IPC: 1.018 (Simulation time: 04 hr 23 min 31 sec)
Heartbeat CPU 0 instructions: 1970000277 cycles: 1933567245 heartbeat IPC: 1.156 cumulative IPC: 1.019 (Simulation time: 04 hr 24 min 48 sec)
Heartbeat CPU 0 instructions: 1980000279 cycles: 1942757850 heartbeat IPC: 1.088 cumulative IPC: 1.019 (Simulation time: 04 hr 26 min 08 sec)
Heartbeat CPU 0 instructions: 1990000282 cycles: 1952821948 heartbeat IPC: 0.9936 cumulative IPC: 1.019 (Simulation time: 04 hr 27 min 34 sec)
[ERROR_CYCLE] Error added at CPU cycle 1953397182, next at 1957960083, pending count: 1
[DRAM_CYCLE_ERROR] Cycle-based error applied! address=0x272702790 additional_latency=173500 cycles
[ERROR_CYCLE] Error added at CPU cycle 1957960083, next at 1964413148, pending count: 1
[DRAM_CYCLE_ERROR] Cycle-based error applied! address=0xce8073ce8 additional_latency=173500 cycles
[ERROR_CYCLE] Error added at CPU cycle 1964413148, next at 1975694798, pending count: 1
[DRAM_CYCLE_ERROR] Cycle-based error applied! address=0xab6484bf8 additional_latency=173500 cycles

=== ERROR PAGE STATISTICS ===
Mode: CYCLE
Error Cycle Interval: 10000000 CPU cycles
Total Error Accesses: 217
==============================
Simulation finished CPU 0 instructions: 1999999979 cycles: 1964426493 cumulative IPC: 1.018 (Simulation time: 04 hr 29 min 08 sec)
Simulation complete CPU 0 instructions: 1999999979 cycles: 1964426493 cumulative IPC: 1.018 (Simulation time: 04 hr 29 min 08 sec)

ChampSim completed all CPUs

=== Simulation ===
CPU 0 runs test_traces/623.xalancbmk_s-592B.champsimtrace.xz

Region of Interest Statistics

CPU 0 cumulative IPC: 1.018 instructions: 1999999979 cycles: 1964426493
CPU 0 Branch Prediction Accuracy: 97.16% MPKI: 8.552 Average ROB Occupancy at Mispredict: 25.05
Branch type MPKI
BRANCH_DIRECT_JUMP: 0.08608
BRANCH_INDIRECT: 0.2696
BRANCH_CONDITIONAL: 6.772
BRANCH_DIRECT_CALL: 0.0003155
BRANCH_INDIRECT_CALL: 0.2909
BRANCH_RETURN: 1.133

cpu0->cpu0_STLB TOTAL        ACCESS:   47190283 HIT:   44718568 MISS:    2471715 MSHR_MERGE:          0
cpu0->cpu0_STLB LOAD         ACCESS:   47190283 HIT:   44718568 MISS:    2471715 MSHR_MERGE:          0
cpu0->cpu0_STLB RFO          ACCESS:          0 HIT:          0 MISS:          0 MSHR_MERGE:          0
cpu0->cpu0_STLB PREFETCH     ACCESS:          0 HIT:          0 MISS:          0 MSHR_MERGE:          0
cpu0->cpu0_STLB WRITE        ACCESS:          0 HIT:          0 MISS:          0 MSHR_MERGE:          0
cpu0->cpu0_STLB TRANSLATION  ACCESS:          0 HIT:          0 MISS:          0 MSHR_MERGE:          0
cpu0->cpu0_STLB PREFETCH REQUESTED:          0 ISSUED:          0 USEFUL:          0 USELESS:          0
cpu0->cpu0_STLB AVERAGE MISS LATENCY: 170.8 cycles
cpu0->cpu0_L2C TOTAL        ACCESS:  105787241 HIT:   99529947 MISS:    6257294 MSHR_MERGE:          0
cpu0->cpu0_L2C LOAD         ACCESS:   96648538 HIT:   93462952 MISS:    3185586 MSHR_MERGE:          0
cpu0->cpu0_L2C RFO          ACCESS:    3685422 HIT:     613787 MISS:    3071635 MSHR_MERGE:          0
cpu0->cpu0_L2C PREFETCH     ACCESS:          0 HIT:          0 MISS:          0 MSHR_MERGE:          0
cpu0->cpu0_L2C WRITE        ACCESS:    5453281 HIT:    5453208 MISS:         73 MSHR_MERGE:          0
cpu0->cpu0_L2C TRANSLATION  ACCESS:          0 HIT:          0 MISS:          0 MSHR_MERGE:          0
cpu0->cpu0_L2C PREFETCH REQUESTED:          0 ISSUED:          0 USEFUL:          0 USELESS:          0
cpu0->cpu0_L2C AVERAGE MISS LATENCY: 70.31 cycles
cpu0->cpu0_L1I TOTAL        ACCESS:  364018172 HIT:  358624097 MISS:    5394075 MSHR_MERGE:    1494862
cpu0->cpu0_L1I LOAD         ACCESS:  364018172 HIT:  358624097 MISS:    5394075 MSHR_MERGE:    1494862
cpu0->cpu0_L1I RFO          ACCESS:          0 HIT:          0 MISS:          0 MSHR_MERGE:          0
cpu0->cpu0_L1I PREFETCH     ACCESS:          0 HIT:          0 MISS:          0 MSHR_MERGE:          0
cpu0->cpu0_L1I WRITE        ACCESS:          0 HIT:          0 MISS:          0 MSHR_MERGE:          0
cpu0->cpu0_L1I TRANSLATION  ACCESS:          0 HIT:          0 MISS:          0 MSHR_MERGE:          0
cpu0->cpu0_L1I PREFETCH REQUESTED:          0 ISSUED:          0 USEFUL:          0 USELESS:          0
cpu0->cpu0_L1I AVERAGE MISS LATENCY: 7.953 cycles
cpu0->cpu0_L1D TOTAL        ACCESS:  536080816 HIT:  359465063 MISS:  176615753 MSHR_MERGE:   80180938
cpu0->cpu0_L1D LOAD         ACCESS:  419048558 HIT:  256119029 MISS:  162929529 MSHR_MERGE:   70180146
cpu0->cpu0_L1D RFO          ACCESS:          0 HIT:          0 MISS:          0 MSHR_MERGE:          0
cpu0->cpu0_L1D PREFETCH     ACCESS:          0 HIT:          0 MISS:          0 MSHR_MERGE:          0
cpu0->cpu0_L1D WRITE        ACCESS:  117032258 HIT:  103346034 MISS:   13686224 MSHR_MERGE:   10000792
cpu0->cpu0_L1D TRANSLATION  ACCESS:          0 HIT:          0 MISS:          0 MSHR_MERGE:          0
cpu0->cpu0_L1D PREFETCH REQUESTED:          0 ISSUED:          0 USEFUL:          0 USELESS:          0
cpu0->cpu0_L1D AVERAGE MISS LATENCY: 12.74 cycles
cpu0->cpu0_ITLB TOTAL        ACCESS:  343351005 HIT:  342064744 MISS:    1286261 MSHR_MERGE:     705827
cpu0->cpu0_ITLB LOAD         ACCESS:  343351005 HIT:  342064744 MISS:    1286261 MSHR_MERGE:     705827
cpu0->cpu0_ITLB RFO          ACCESS:          0 HIT:          0 MISS:          0 MSHR_MERGE:          0
cpu0->cpu0_ITLB PREFETCH     ACCESS:          0 HIT:          0 MISS:          0 MSHR_MERGE:          0
cpu0->cpu0_ITLB WRITE        ACCESS:          0 HIT:          0 MISS:          0 MSHR_MERGE:          0
cpu0->cpu0_ITLB TRANSLATION  ACCESS:          0 HIT:          0 MISS:          0 MSHR_MERGE:          0
cpu0->cpu0_ITLB PREFETCH REQUESTED:          0 ISSUED:          0 USEFUL:          0 USELESS:          0
cpu0->cpu0_ITLB AVERAGE MISS LATENCY: 13.55 cycles
cpu0->cpu0_DTLB TOTAL        ACCESS:  464794906 HIT:  401273534 MISS:   63521372 MSHR_MERGE:   16911523
cpu0->cpu0_DTLB LOAD         ACCESS:  464794906 HIT:  401273534 MISS:   63521372 MSHR_MERGE:   16911523
cpu0->cpu0_DTLB RFO          ACCESS:          0 HIT:          0 MISS:          0 MSHR_MERGE:          0
cpu0->cpu0_DTLB PREFETCH     ACCESS:          0 HIT:          0 MISS:          0 MSHR_MERGE:          0
cpu0->cpu0_DTLB WRITE        ACCESS:          0 HIT:          0 MISS:          0 MSHR_MERGE:          0
cpu0->cpu0_DTLB TRANSLATION  ACCESS:          0 HIT:          0 MISS:          0 MSHR_MERGE:          0
cpu0->cpu0_DTLB PREFETCH REQUESTED:          0 ISSUED:          0 USEFUL:          0 USELESS:          0
cpu0->cpu0_DTLB AVERAGE MISS LATENCY: 14.03 cycles
cpu0->LLC TOTAL        ACCESS:    9727258 HIT:    6448481 MISS:    3278777 MSHR_MERGE:          0
cpu0->LLC LOAD         ACCESS:    3185579 HIT:    2770515 MISS:     415064 MSHR_MERGE:          0
cpu0->LLC RFO          ACCESS:    3071635 HIT:     224381 MISS:    2847254 MSHR_MERGE:          0
cpu0->LLC PREFETCH     ACCESS:          0 HIT:          0 MISS:          0 MSHR_MERGE:          0
cpu0->LLC WRITE        ACCESS:    3470044 HIT:    3453585 MISS:      16459 MSHR_MERGE:          0
cpu0->LLC TRANSLATION  ACCESS:          0 HIT:          0 MISS:          0 MSHR_MERGE:          0
cpu0->LLC PREFETCH REQUESTED:          0 ISSUED:          0 USEFUL:          0 USELESS:          0
cpu0->LLC AVERAGE MISS LATENCY: 104.6 cycles

DRAM Statistics

Channel 0 RQ ROW_BUFFER_HIT:      92699
  ROW_BUFFER_MISS:    4103207
  AVG DBUS CONGESTED CYCLE: 8.127
Channel 0 WQ ROW_BUFFER_HIT:      88148
  ROW_BUFFER_MISS:    1456261
  FULL:          0
Channel 0 REFRESHES ISSUED:     163691

Channel 1 RQ ROW_BUFFER_HIT:      46219
  ROW_BUFFER_MISS:    3973158
  AVG DBUS CONGESTED CYCLE: 8.116
Channel 1 WQ ROW_BUFFER_HIT:      85262
  ROW_BUFFER_MISS:    1459205
  FULL:          0
Channel 1 REFRESHES ISSUED:     163691
