[VMEM] WARNING: physical memory size is smaller than virtual memory size.

*** ChampSim Multicore Out-of-Order Simulator ***
Warmup Instructions: 0
Simulation Instructions: 9223372036854775807
Number of CPUs: 1
Page size: 4096

Off-chip DRAM Size: 128 GiB Channels: 2 Width: 32-bit Data Rate: 4807 MT/s
[ERROR_PAGE_MANAGER] Error latency: 173500 
[ERROR_PAGE_MANAGER] Random seed: 54321 (fixed for preload reproducibility)
[ERROR_PAGE_MANAGER] Cycle-based error modeling enabled
[ERROR_PAGE_MANAGER] Errors per interval: 1
[ERROR_PAGE_MANAGER] Error cycle interval: 80000000 cycles

=== ERROR PAGE STATISTICS ===
Mode: CYCLE
Error Cycle Interval: 80000000 CPU cycles
Total Error Accesses: 0
==============================
Warmup finished CPU 0 instructions: 0 cycles: 1 cumulative IPC: 0 (Simulation time: 00 hr 00 min 02 sec)
Warmup complete CPU 0 instructions: 0 cycles: 1 cumulative IPC: 0 (Simulation time: 00 hr 00 min 02 sec)
Heartbeat CPU 0 instructions: 10000002 cycles: 30007061 heartbeat IPC: 0.3333 cumulative IPC: 0.3333 (Simulation time: 00 hr 03 min 01 sec)
[ERROR_CYCLE] Error added at CPU cycle 57022446, next at 73226450, pending count: 1
[DRAM_CYCLE_ERROR] Cycle-based error applied! address=0x1e47af5b40 additional_latency=173500 cycles
Heartbeat CPU 0 instructions: 20000002 cycles: 59902998 heartbeat IPC: 0.3345 cumulative IPC: 0.3339 (Simulation time: 00 hr 06 min 03 sec)
[ERROR_CYCLE] Error added at CPU cycle 73226451, next at 205568512, pending count: 1
[DRAM_CYCLE_ERROR] Cycle-based error applied! address=0x1d12ca0a48 additional_latency=173500 cycles
Heartbeat CPU 0 instructions: 30000004 cycles: 89826473 heartbeat IPC: 0.3342 cumulative IPC: 0.334 (Simulation time: 00 hr 08 min 52 sec)
Heartbeat CPU 0 instructions: 40000005 cycles: 119749973 heartbeat IPC: 0.3342 cumulative IPC: 0.334 (Simulation time: 00 hr 11 min 46 sec)
Heartbeat CPU 0 instructions: 50000009 cycles: 149600803 heartbeat IPC: 0.335 cumulative IPC: 0.3342 (Simulation time: 00 hr 14 min 33 sec)
Heartbeat CPU 0 instructions: 60000012 cycles: 179482234 heartbeat IPC: 0.3347 cumulative IPC: 0.3343 (Simulation time: 00 hr 16 min 50 sec)
[ERROR_CYCLE] Error added at CPU cycle 205568513, next at 427741518, pending count: 1
[DRAM_CYCLE_ERROR] Cycle-based error applied! address=0x1136cf9040 additional_latency=173500 cycles
Heartbeat CPU 0 instructions: 70000012 cycles: 209345620 heartbeat IPC: 0.3349 cumulative IPC: 0.3344 (Simulation time: 00 hr 19 min 27 sec)
Heartbeat CPU 0 instructions: 80000016 cycles: 239220453 heartbeat IPC: 0.3347 cumulative IPC: 0.3344 (Simulation time: 00 hr 22 min 30 sec)
Heartbeat CPU 0 instructions: 90000018 cycles: 269073202 heartbeat IPC: 0.335 cumulative IPC: 0.3345 (Simulation time: 00 hr 25 min 26 sec)
Heartbeat CPU 0 instructions: 100000020 cycles: 298946032 heartbeat IPC: 0.3348 cumulative IPC: 0.3345 (Simulation time: 00 hr 28 min 29 sec)
Heartbeat CPU 0 instructions: 110000020 cycles: 328877107 heartbeat IPC: 0.3341 cumulative IPC: 0.3345 (Simulation time: 00 hr 31 min 23 sec)
Heartbeat CPU 0 instructions: 120000024 cycles: 358823667 heartbeat IPC: 0.3339 cumulative IPC: 0.3344 (Simulation time: 00 hr 34 min 26 sec)
Heartbeat CPU 0 instructions: 130000024 cycles: 388758187 heartbeat IPC: 0.3341 cumulative IPC: 0.3344 (Simulation time: 00 hr 37 min 05 sec)
Heartbeat CPU 0 instructions: 140000027 cycles: 418610615 heartbeat IPC: 0.335 cumulative IPC: 0.3344 (Simulation time: 00 hr 39 min 40 sec)
[ERROR_CYCLE] Error added at CPU cycle 427741518, next at 430145799, pending count: 1
[DRAM_CYCLE_ERROR] Cycle-based error applied! address=0x1e39d8cae0 additional_latency=173500 cycles
[ERROR_CYCLE] Error added at CPU cycle 430145800, next at 553109136, pending count: 1
[DRAM_CYCLE_ERROR] Cycle-based error applied! address=0x94dcfac50 additional_latency=173500 cycles
Heartbeat CPU 0 instructions: 150000029 cycles: 448464345 heartbeat IPC: 0.335 cumulative IPC: 0.3345 (Simulation time: 00 hr 42 min 42 sec)
Heartbeat CPU 0 instructions: 160000031 cycles: 478368375 heartbeat IPC: 0.3344 cumulative IPC: 0.3345 (Simulation time: 00 hr 45 min 39 sec)
Heartbeat CPU 0 instructions: 170000034 cycles: 508311075 heartbeat IPC: 0.334 cumulative IPC: 0.3344 (Simulation time: 00 hr 48 min 39 sec)
Heartbeat CPU 0 instructions: 180000036 cycles: 538178509 heartbeat IPC: 0.3348 cumulative IPC: 0.3345 (Simulation time: 00 hr 51 min 36 sec)
[ERROR_CYCLE] Error added at CPU cycle 553109137, next at 567427547, pending count: 1
[DRAM_CYCLE_ERROR] Cycle-based error applied! address=0x12b2681f88 additional_latency=173500 cycles
[ERROR_CYCLE] Error added at CPU cycle 567427547, next at 612939373, pending count: 1
[DRAM_CYCLE_ERROR] Cycle-based error applied! address=0x19e86e28d0 additional_latency=173500 cycles
Heartbeat CPU 0 instructions: 190000039 cycles: 568161962 heartbeat IPC: 0.3335 cumulative IPC: 0.3344 (Simulation time: 00 hr 54 min 34 sec)
Heartbeat CPU 0 instructions: 200000040 cycles: 597997219 heartbeat IPC: 0.3352 cumulative IPC: 0.3344 (Simulation time: 00 hr 57 min 30 sec)
[ERROR_CYCLE] Error added at CPU cycle 612939373, next at 681254883, pending count: 1
[DRAM_CYCLE_ERROR] Cycle-based error applied! address=0x426551fb0 additional_latency=173500 cycles
Heartbeat CPU 0 instructions: 210000042 cycles: 627917344 heartbeat IPC: 0.3342 cumulative IPC: 0.3344 (Simulation time: 01 hr 00 min 25 sec)
Heartbeat CPU 0 instructions: 220000045 cycles: 657885689 heartbeat IPC: 0.3337 cumulative IPC: 0.3344 (Simulation time: 01 hr 03 min 13 sec)
[ERROR_CYCLE] Error added at CPU cycle 681254883, next at 700827009, pending count: 1
[DRAM_CYCLE_ERROR] Cycle-based error applied! address=0x3e5156600 additional_latency=173500 cycles
Heartbeat CPU 0 instructions: 230000046 cycles: 687785353 heartbeat IPC: 0.3345 cumulative IPC: 0.3344 (Simulation time: 01 hr 06 min 12 sec)
[ERROR_CYCLE] Error added at CPU cycle 700827009, next at 842903644, pending count: 1
[DRAM_CYCLE_ERROR] Cycle-based error applied! address=0x60fc8f940 additional_latency=173500 cycles
Heartbeat CPU 0 instructions: 240000047 cycles: 717689322 heartbeat IPC: 0.3344 cumulative IPC: 0.3344 (Simulation time: 01 hr 09 min 09 sec)
Heartbeat CPU 0 instructions: 250000047 cycles: 747645717 heartbeat IPC: 0.3338 cumulative IPC: 0.3344 (Simulation time: 01 hr 12 min 01 sec)
Heartbeat CPU 0 instructions: 260000051 cycles: 777610390 heartbeat IPC: 0.3337 cumulative IPC: 0.3344 (Simulation time: 01 hr 14 min 34 sec)
Heartbeat CPU 0 instructions: 270000051 cycles: 807580812 heartbeat IPC: 0.3337 cumulative IPC: 0.3343 (Simulation time: 01 hr 17 min 29 sec)
Heartbeat CPU 0 instructions: 280000052 cycles: 837483971 heartbeat IPC: 0.3344 cumulative IPC: 0.3343 (Simulation time: 01 hr 20 min 20 sec)
[ERROR_CYCLE] Error added at CPU cycle 842903644, next at 871385107, pending count: 1
[DRAM_CYCLE_ERROR] Cycle-based error applied! address=0x16812dc780 additional_latency=173500 cycles
Heartbeat CPU 0 instructions: 290000052 cycles: 867349684 heartbeat IPC: 0.3348 cumulative IPC: 0.3344 (Simulation time: 01 hr 22 min 58 sec)
[ERROR_CYCLE] Error added at CPU cycle 871385107, next at 907191996, pending count: 1
[DRAM_CYCLE_ERROR] Cycle-based error applied! address=0xc3a8db208 additional_latency=173500 cycles
Heartbeat CPU 0 instructions: 300000056 cycles: 897201196 heartbeat IPC: 0.335 cumulative IPC: 0.3344 (Simulation time: 01 hr 25 min 54 sec)
[ERROR_CYCLE] Error added at CPU cycle 907191996, next at 1070014685, pending count: 1
[DRAM_CYCLE_ERROR] Cycle-based error applied! address=0x1d4765f540 additional_latency=173500 cycles
Heartbeat CPU 0 instructions: 310000056 cycles: 927120230 heartbeat IPC: 0.3342 cumulative IPC: 0.3344 (Simulation time: 01 hr 28 min 27 sec)
Heartbeat CPU 0 instructions: 320000059 cycles: 957076227 heartbeat IPC: 0.3338 cumulative IPC: 0.3344 (Simulation time: 01 hr 31 min 21 sec)
Heartbeat CPU 0 instructions: 330000059 cycles: 986978997 heartbeat IPC: 0.3344 cumulative IPC: 0.3344 (Simulation time: 01 hr 34 min 02 sec)
Heartbeat CPU 0 instructions: 340000061 cycles: 1016862701 heartbeat IPC: 0.3346 cumulative IPC: 0.3344 (Simulation time: 01 hr 36 min 56 sec)
Heartbeat CPU 0 instructions: 350000063 cycles: 1046709150 heartbeat IPC: 0.335 cumulative IPC: 0.3344 (Simulation time: 01 hr 39 min 55 sec)
[ERROR_CYCLE] Error added at CPU cycle 1070014686, next at 1070994884, pending count: 1
[DRAM_CYCLE_ERROR] Cycle-based error applied! address=0x115cf93848 additional_latency=173500 cycles
[ERROR_CYCLE] Error added at CPU cycle 1070994885, next at 1160990919, pending count: 1
[DRAM_CYCLE_ERROR] Cycle-based error applied! address=0x1623aeb7c8 additional_latency=173500 cycles
Heartbeat CPU 0 instructions: 360000064 cycles: 1076598010 heartbeat IPC: 0.3346 cumulative IPC: 0.3344 (Simulation time: 01 hr 42 min 50 sec)
Heartbeat CPU 0 instructions: 370000067 cycles: 1106458933 heartbeat IPC: 0.3349 cumulative IPC: 0.3344 (Simulation time: 01 hr 45 min 51 sec)
Heartbeat CPU 0 instructions: 380000068 cycles: 1136421411 heartbeat IPC: 0.3338 cumulative IPC: 0.3344 (Simulation time: 01 hr 48 min 54 sec)
[ERROR_CYCLE] Error added at CPU cycle 1160990919, next at 1213496919, pending count: 1
[DRAM_CYCLE_ERROR] Cycle-based error applied! address=0xbdbc2ae08 additional_latency=173500 cycles
Heartbeat CPU 0 instructions: 390000071 cycles: 1166400597 heartbeat IPC: 0.3336 cumulative IPC: 0.3344 (Simulation time: 01 hr 51 min 54 sec)
Heartbeat CPU 0 instructions: 400000074 cycles: 1196352784 heartbeat IPC: 0.3339 cumulative IPC: 0.3343 (Simulation time: 01 hr 54 min 52 sec)
[ERROR_CYCLE] Error added at CPU cycle 1213496920, next at 1516211877, pending count: 1
[DRAM_CYCLE_ERROR] Cycle-based error applied! address=0x7a5f9bb90 additional_latency=173500 cycles
Heartbeat CPU 0 instructions: 410000076 cycles: 1226274519 heartbeat IPC: 0.3342 cumulative IPC: 0.3343 (Simulation time: 01 hr 57 min 32 sec)
Heartbeat CPU 0 instructions: 420000076 cycles: 1256235181 heartbeat IPC: 0.3338 cumulative IPC: 0.3343 (Simulation time: 01 hr 59 min 50 sec)
Heartbeat CPU 0 instructions: 430000076 cycles: 1286174139 heartbeat IPC: 0.334 cumulative IPC: 0.3343 (Simulation time: 02 hr 02 min 52 sec)
Heartbeat CPU 0 instructions: 440000080 cycles: 1316085692 heartbeat IPC: 0.3343 cumulative IPC: 0.3343 (Simulation time: 02 hr 05 min 45 sec)
Heartbeat CPU 0 instructions: 450000081 cycles: 1345986815 heartbeat IPC: 0.3344 cumulative IPC: 0.3343 (Simulation time: 02 hr 08 min 49 sec)
Heartbeat CPU 0 instructions: 460000083 cycles: 1375828853 heartbeat IPC: 0.3351 cumulative IPC: 0.3343 (Simulation time: 02 hr 11 min 52 sec)
Heartbeat CPU 0 instructions: 470000085 cycles: 1405609852 heartbeat IPC: 0.3358 cumulative IPC: 0.3344 (Simulation time: 02 hr 14 min 48 sec)
Heartbeat CPU 0 instructions: 480000086 cycles: 1435430384 heartbeat IPC: 0.3353 cumulative IPC: 0.3344 (Simulation time: 02 hr 17 min 43 sec)
Heartbeat CPU 0 instructions: 490000086 cycles: 1465209566 heartbeat IPC: 0.3358 cumulative IPC: 0.3344 (Simulation time: 02 hr 20 min 37 sec)
Heartbeat CPU 0 instructions: 500000086 cycles: 1495106108 heartbeat IPC: 0.3345 cumulative IPC: 0.3344 (Simulation time: 02 hr 23 min 37 sec)
[ERROR_CYCLE] Error added at CPU cycle 1516211878, next at 1535167431, pending count: 1
[DRAM_CYCLE_ERROR] Cycle-based error applied! address=0x178f95dc48 additional_latency=173500 cycles
Heartbeat CPU 0 instructions: 510000087 cycles: 1524982696 heartbeat IPC: 0.3347 cumulative IPC: 0.3344 (Simulation time: 02 hr 26 min 33 sec)
[ERROR_CYCLE] Error added at CPU cycle 1535167432, next at 1554376223, pending count: 1
[DRAM_CYCLE_ERROR] Cycle-based error applied! address=0x1e4cd66788 additional_latency=173500 cycles
[ERROR_CYCLE] Error added at CPU cycle 1554376224, next at 1784952274, pending count: 1
[DRAM_CYCLE_ERROR] Cycle-based error applied! address=0x15be89ce88 additional_latency=173500 cycles
Heartbeat CPU 0 instructions: 520000087 cycles: 1554730380 heartbeat IPC: 0.3362 cumulative IPC: 0.3345 (Simulation time: 02 hr 29 min 36 sec)
Heartbeat CPU 0 instructions: 530000091 cycles: 1584525656 heartbeat IPC: 0.3356 cumulative IPC: 0.3345 (Simulation time: 02 hr 32 min 38 sec)
Heartbeat CPU 0 instructions: 540000093 cycles: 1614521896 heartbeat IPC: 0.3334 cumulative IPC: 0.3345 (Simulation time: 02 hr 35 min 43 sec)
Heartbeat CPU 0 instructions: 550000093 cycles: 1644447230 heartbeat IPC: 0.3342 cumulative IPC: 0.3345 (Simulation time: 02 hr 38 min 47 sec)
Heartbeat CPU 0 instructions: 560000095 cycles: 1674364611 heartbeat IPC: 0.3343 cumulative IPC: 0.3345 (Simulation time: 02 hr 41 min 51 sec)
Heartbeat CPU 0 instructions: 570000095 cycles: 1704212085 heartbeat IPC: 0.335 cumulative IPC: 0.3345 (Simulation time: 02 hr 44 min 54 sec)
Heartbeat CPU 0 instructions: 580000099 cycles: 1734086954 heartbeat IPC: 0.3347 cumulative IPC: 0.3345 (Simulation time: 02 hr 47 min 57 sec)
Heartbeat CPU 0 instructions: 590000102 cycles: 1763968973 heartbeat IPC: 0.3346 cumulative IPC: 0.3345 (Simulation time: 02 hr 50 min 59 sec)
[ERROR_CYCLE] Error added at CPU cycle 1784952274, next at 1816533671, pending count: 1
[DRAM_CYCLE_ERROR] Cycle-based error applied! address=0x12fde69dd0 additional_latency=173500 cycles
Heartbeat CPU 0 instructions: 600000104 cycles: 1793843079 heartbeat IPC: 0.3347 cumulative IPC: 0.3345 (Simulation time: 02 hr 54 min 01 sec)
[ERROR_CYCLE] Error added at CPU cycle 1816533671, next at 2158771940, pending count: 1
[DRAM_CYCLE_ERROR] Cycle-based error applied! address=0x1a48888c88 additional_latency=173500 cycles
Heartbeat CPU 0 instructions: 610000105 cycles: 1823777950 heartbeat IPC: 0.3341 cumulative IPC: 0.3345 (Simulation time: 02 hr 56 min 58 sec)
Heartbeat CPU 0 instructions: 620000107 cycles: 1858075178 heartbeat IPC: 0.2916 cumulative IPC: 0.3337 (Simulation time: 02 hr 59 min 57 sec)
Heartbeat CPU 0 instructions: 630000107 cycles: 1890881839 heartbeat IPC: 0.3048 cumulative IPC: 0.3332 (Simulation time: 03 hr 03 min 16 sec)
Heartbeat CPU 0 instructions: 640000107 cycles: 1921764344 heartbeat IPC: 0.3238 cumulative IPC: 0.333 (Simulation time: 03 hr 05 min 30 sec)
Heartbeat CPU 0 instructions: 650000107 cycles: 1953305124 heartbeat IPC: 0.317 cumulative IPC: 0.3328 (Simulation time: 03 hr 08 min 34 sec)
Heartbeat CPU 0 instructions: 660000108 cycles: 1983606267 heartbeat IPC: 0.33 cumulative IPC: 0.3327 (Simulation time: 03 hr 11 min 30 sec)
Heartbeat CPU 0 instructions: 670000109 cycles: 2013540237 heartbeat IPC: 0.3341 cumulative IPC: 0.3327 (Simulation time: 03 hr 14 min 17 sec)
Heartbeat CPU 0 instructions: 680000110 cycles: 2043403441 heartbeat IPC: 0.3349 cumulative IPC: 0.3328 (Simulation time: 03 hr 16 min 50 sec)
Heartbeat CPU 0 instructions: 690000111 cycles: 2073166487 heartbeat IPC: 0.336 cumulative IPC: 0.3328 (Simulation time: 03 hr 19 min 31 sec)
Heartbeat CPU 0 instructions: 700000115 cycles: 2102917223 heartbeat IPC: 0.3361 cumulative IPC: 0.3329 (Simulation time: 03 hr 22 min 30 sec)
Heartbeat CPU 0 instructions: 710000116 cycles: 2132699757 heartbeat IPC: 0.3358 cumulative IPC: 0.3329 (Simulation time: 03 hr 25 min 27 sec)
[ERROR_CYCLE] Error added at CPU cycle 2158771941, next at 2204777382, pending count: 1
[DRAM_CYCLE_ERROR] Cycle-based error applied! address=0xd398e5cc8 additional_latency=173500 cycles
Heartbeat CPU 0 instructions: 720000117 cycles: 2162452952 heartbeat IPC: 0.3361 cumulative IPC: 0.333 (Simulation time: 03 hr 27 min 42 sec)
Heartbeat CPU 0 instructions: 730000120 cycles: 2192343068 heartbeat IPC: 0.3346 cumulative IPC: 0.333 (Simulation time: 03 hr 29 min 46 sec)
[ERROR_CYCLE] Error added at CPU cycle 2204777382, next at 2473853101, pending count: 1
[DRAM_CYCLE_ERROR] Cycle-based error applied! address=0xfbd509188 additional_latency=173500 cycles
Heartbeat CPU 0 instructions: 740000121 cycles: 2222257466 heartbeat IPC: 0.3343 cumulative IPC: 0.333 (Simulation time: 03 hr 32 min 39 sec)
Heartbeat CPU 0 instructions: 750000122 cycles: 2252156482 heartbeat IPC: 0.3345 cumulative IPC: 0.333 (Simulation time: 03 hr 35 min 26 sec)
Heartbeat CPU 0 instructions: 760000122 cycles: 2282106579 heartbeat IPC: 0.3339 cumulative IPC: 0.333 (Simulation time: 03 hr 37 min 44 sec)
Heartbeat CPU 0 instructions: 770000122 cycles: 2312074232 heartbeat IPC: 0.3337 cumulative IPC: 0.333 (Simulation time: 03 hr 40 min 38 sec)
Heartbeat CPU 0 instructions: 780000124 cycles: 2341932421 heartbeat IPC: 0.3349 cumulative IPC: 0.3331 (Simulation time: 03 hr 43 min 20 sec)
Heartbeat CPU 0 instructions: 790000127 cycles: 2371706912 heartbeat IPC: 0.3359 cumulative IPC: 0.3331 (Simulation time: 03 hr 45 min 57 sec)
Heartbeat CPU 0 instructions: 800000128 cycles: 2401615740 heartbeat IPC: 0.3343 cumulative IPC: 0.3331 (Simulation time: 03 hr 48 min 54 sec)
Heartbeat CPU 0 instructions: 810000128 cycles: 2431529497 heartbeat IPC: 0.3343 cumulative IPC: 0.3331 (Simulation time: 03 hr 51 min 53 sec)
Heartbeat CPU 0 instructions: 820000128 cycles: 2461487744 heartbeat IPC: 0.3338 cumulative IPC: 0.3331 (Simulation time: 03 hr 54 min 24 sec)
[ERROR_CYCLE] Error added at CPU cycle 2473853101, next at 2497718103, pending count: 1
[DRAM_CYCLE_ERROR] Cycle-based error applied! address=0x148bf064d0 additional_latency=173500 cycles
Heartbeat CPU 0 instructions: 830000128 cycles: 2491403327 heartbeat IPC: 0.3343 cumulative IPC: 0.3331 (Simulation time: 03 hr 56 min 46 sec)
[ERROR_CYCLE] Error added at CPU cycle 2497718103, next at 2611876149, pending count: 1
[DRAM_CYCLE_ERROR] Cycle-based error applied! address=0x1dfa7cc980 additional_latency=173500 cycles
Heartbeat CPU 0 instructions: 840000128 cycles: 2521276322 heartbeat IPC: 0.3348 cumulative IPC: 0.3332 (Simulation time: 03 hr 59 min 25 sec)
Heartbeat CPU 0 instructions: 850000131 cycles: 2551154762 heartbeat IPC: 0.3347 cumulative IPC: 0.3332 (Simulation time: 04 hr 02 min 16 sec)
Heartbeat CPU 0 instructions: 860000134 cycles: 2580902820 heartbeat IPC: 0.3362 cumulative IPC: 0.3332 (Simulation time: 04 hr 04 min 40 sec)
Heartbeat CPU 0 instructions: 870000134 cycles: 2610636775 heartbeat IPC: 0.3363 cumulative IPC: 0.3333 (Simulation time: 04 hr 06 min 58 sec)
[ERROR_CYCLE] Error added at CPU cycle 2611876149, next at 2628954084, pending count: 1
[DRAM_CYCLE_ERROR] Cycle-based error applied! address=0x1bf2884488 additional_latency=173500 cycles
[ERROR_CYCLE] Error added at CPU cycle 2628954084, next at 2655562730, pending count: 1
[DRAM_CYCLE_ERROR] Cycle-based error applied! address=0x12adcc59d8 additional_latency=173500 cycles
Heartbeat CPU 0 instructions: 880000136 cycles: 2640351223 heartbeat IPC: 0.3365 cumulative IPC: 0.3333 (Simulation time: 04 hr 09 min 34 sec)
[ERROR_CYCLE] Error added at CPU cycle 2655562730, next at 2772976160, pending count: 1
[DRAM_CYCLE_ERROR] Cycle-based error applied! address=0x152aa594d0 additional_latency=173500 cycles
Heartbeat CPU 0 instructions: 890000137 cycles: 2670108006 heartbeat IPC: 0.3361 cumulative IPC: 0.3333 (Simulation time: 04 hr 12 min 35 sec)
Heartbeat CPU 0 instructions: 900000137 cycles: 2699923952 heartbeat IPC: 0.3354 cumulative IPC: 0.3333 (Simulation time: 04 hr 15 min 34 sec)
Heartbeat CPU 0 instructions: 910000140 cycles: 2729746226 heartbeat IPC: 0.3353 cumulative IPC: 0.3334 (Simulation time: 04 hr 18 min 20 sec)
Heartbeat CPU 0 instructions: 920000140 cycles: 2759542098 heartbeat IPC: 0.3356 cumulative IPC: 0.3334 (Simulation time: 04 hr 21 min 11 sec)
[ERROR_CYCLE] Error added at CPU cycle 2772976161, next at 2773633393, pending count: 1
[DRAM_CYCLE_ERROR] Cycle-based error applied! address=0x10aff6f058 additional_latency=173500 cycles
[ERROR_CYCLE] Error added at CPU cycle 2773633393, next at 2808444482, pending count: 1
[DRAM_CYCLE_ERROR] Cycle-based error applied! address=0x68d704dc0 additional_latency=173500 cycles
Heartbeat CPU 0 instructions: 930000140 cycles: 2789362361 heartbeat IPC: 0.3353 cumulative IPC: 0.3334 (Simulation time: 04 hr 23 min 55 sec)
[ERROR_CYCLE] Error added at CPU cycle 2808444482, next at 2829724174, pending count: 1
[DRAM_CYCLE_ERROR] Cycle-based error applied! address=0x12bd098e48 additional_latency=173500 cycles
Heartbeat CPU 0 instructions: 940000144 cycles: 2819180633 heartbeat IPC: 0.3354 cumulative IPC: 0.3334 (Simulation time: 04 hr 26 min 49 sec)
[ERROR_CYCLE] Error added at CPU cycle 2829724175, next at 2868628587, pending count: 1
[DRAM_CYCLE_ERROR] Cycle-based error applied! address=0x63c0ee4c8 additional_latency=173500 cycles
Heartbeat CPU 0 instructions: 950000147 cycles: 2849020423 heartbeat IPC: 0.3351 cumulative IPC: 0.3334 (Simulation time: 04 hr 29 min 44 sec)
[ERROR_CYCLE] Error added at CPU cycle 2868628587, next at 2877872688, pending count: 1
[DRAM_CYCLE_ERROR] Cycle-based error applied! address=0x89ad03688 additional_latency=173500 cycles
[ERROR_CYCLE] Error added at CPU cycle 2877872689, next at 2919724526, pending count: 1
[DRAM_CYCLE_ERROR] Cycle-based error applied! address=0x1371e18c10 additional_latency=173500 cycles
Heartbeat CPU 0 instructions: 960000147 cycles: 2878810641 heartbeat IPC: 0.3357 cumulative IPC: 0.3335 (Simulation time: 04 hr 32 min 25 sec)
Heartbeat CPU 0 instructions: 970000149 cycles: 2908640620 heartbeat IPC: 0.3352 cumulative IPC: 0.3335 (Simulation time: 04 hr 34 min 54 sec)
[ERROR_CYCLE] Error added at CPU cycle 2919724527, next at 2961311055, pending count: 1
[DRAM_CYCLE_ERROR] Cycle-based error applied! address=0x117808f158 additional_latency=173500 cycles
Heartbeat CPU 0 instructions: 980000150 cycles: 2938471368 heartbeat IPC: 0.3352 cumulative IPC: 0.3335 (Simulation time: 04 hr 37 min 04 sec)
[ERROR_CYCLE] Error added at CPU cycle 2961311055, next at 3078893542, pending count: 1
[DRAM_CYCLE_ERROR] Cycle-based error applied! address=0x79a751e08 additional_latency=173500 cycles
Heartbeat CPU 0 instructions: 990000150 cycles: 2968253547 heartbeat IPC: 0.3358 cumulative IPC: 0.3335 (Simulation time: 04 hr 39 min 33 sec)
Heartbeat CPU 0 instructions: 1000000152 cycles: 2998095462 heartbeat IPC: 0.3351 cumulative IPC: 0.3335 (Simulation time: 04 hr 42 min 34 sec)
Heartbeat CPU 0 instructions: 1010000153 cycles: 3027856882 heartbeat IPC: 0.336 cumulative IPC: 0.3336 (Simulation time: 04 hr 45 min 25 sec)
Heartbeat CPU 0 instructions: 1020000155 cycles: 3057618705 heartbeat IPC: 0.336 cumulative IPC: 0.3336 (Simulation time: 04 hr 48 min 02 sec)
[ERROR_CYCLE] Error added at CPU cycle 3078893542, next at 3226440461, pending count: 1
[DRAM_CYCLE_ERROR] Cycle-based error applied! address=0x120c756558 additional_latency=173500 cycles
Heartbeat CPU 0 instructions: 1030000155 cycles: 3087506891 heartbeat IPC: 0.3346 cumulative IPC: 0.3336 (Simulation time: 04 hr 51 min 02 sec)
Heartbeat CPU 0 instructions: 1040000157 cycles: 3117327727 heartbeat IPC: 0.3353 cumulative IPC: 0.3336 (Simulation time: 04 hr 54 min 03 sec)
Heartbeat CPU 0 instructions: 1050000160 cycles: 3147107352 heartbeat IPC: 0.3358 cumulative IPC: 0.3336 (Simulation time: 04 hr 56 min 36 sec)
Heartbeat CPU 0 instructions: 1060000161 cycles: 3176896218 heartbeat IPC: 0.3357 cumulative IPC: 0.3337 (Simulation time: 04 hr 59 min 23 sec)
Heartbeat CPU 0 instructions: 1070000162 cycles: 3206675578 heartbeat IPC: 0.3358 cumulative IPC: 0.3337 (Simulation time: 05 hr 02 min 06 sec)
[ERROR_CYCLE] Error added at CPU cycle 3226440462, next at 3266392849, pending count: 1
[DRAM_CYCLE_ERROR] Cycle-based error applied! address=0xc75ffb280 additional_latency=173500 cycles
Heartbeat CPU 0 instructions: 1080000163 cycles: 3236487285 heartbeat IPC: 0.3354 cumulative IPC: 0.3337 (Simulation time: 05 hr 04 min 49 sec)
Heartbeat CPU 0 instructions: 1090000163 cycles: 3266304897 heartbeat IPC: 0.3354 cumulative IPC: 0.3337 (Simulation time: 05 hr 07 min 29 sec)
[ERROR_CYCLE] Error added at CPU cycle 3266392849, next at 3316630947, pending count: 1
[DRAM_CYCLE_ERROR] Cycle-based error applied! address=0x1b45487858 additional_latency=173500 cycles
Heartbeat CPU 0 instructions: 1100000164 cycles: 3296145765 heartbeat IPC: 0.3351 cumulative IPC: 0.3337 (Simulation time: 05 hr 10 min 13 sec)
[ERROR_CYCLE] Error added at CPU cycle 3316630947, next at 3325418205, pending count: 1
[DRAM_CYCLE_ERROR] Cycle-based error applied! address=0x5d1f65440 additional_latency=173500 cycles
[ERROR_CYCLE] Error added at CPU cycle 3325418205, next at 3342351842, pending count: 1
[DRAM_CYCLE_ERROR] Cycle-based error applied! address=0xffbeb5f58 additional_latency=173500 cycles
Heartbeat CPU 0 instructions: 1110000164 cycles: 3325901462 heartbeat IPC: 0.3361 cumulative IPC: 0.3337 (Simulation time: 05 hr 13 min 14 sec)
[ERROR_CYCLE] Error added at CPU cycle 3342351843, next at 3431697372, pending count: 1
[DRAM_CYCLE_ERROR] Cycle-based error applied! address=0x1073af4e50 additional_latency=173500 cycles
Heartbeat CPU 0 instructions: 1120000166 cycles: 3355628485 heartbeat IPC: 0.3364 cumulative IPC: 0.3338 (Simulation time: 05 hr 16 min 15 sec)
Heartbeat CPU 0 instructions: 1130000166 cycles: 3385410821 heartbeat IPC: 0.3358 cumulative IPC: 0.3338 (Simulation time: 05 hr 19 min 16 sec)
Heartbeat CPU 0 instructions: 1140000169 cycles: 3415165602 heartbeat IPC: 0.3361 cumulative IPC: 0.3338 (Simulation time: 05 hr 22 min 01 sec)
[ERROR_CYCLE] Error added at CPU cycle 3431697373, next at 3483189846, pending count: 1
[DRAM_CYCLE_ERROR] Cycle-based error applied! address=0x758667590 additional_latency=173500 cycles
Heartbeat CPU 0 instructions: 1150000169 cycles: 3445075757 heartbeat IPC: 0.3343 cumulative IPC: 0.3338 (Simulation time: 05 hr 24 min 15 sec)
Heartbeat CPU 0 instructions: 1160000171 cycles: 3474848666 heartbeat IPC: 0.3359 cumulative IPC: 0.3338 (Simulation time: 05 hr 26 min 46 sec)
[ERROR_CYCLE] Error added at CPU cycle 3483189846, next at 3612564501, pending count: 1
[DRAM_CYCLE_ERROR] Cycle-based error applied! address=0x1c68bd1a08 additional_latency=173500 cycles
Heartbeat CPU 0 instructions: 1170000172 cycles: 3504699403 heartbeat IPC: 0.335 cumulative IPC: 0.3338 (Simulation time: 05 hr 29 min 38 sec)
Heartbeat CPU 0 instructions: 1180000173 cycles: 3534581655 heartbeat IPC: 0.3346 cumulative IPC: 0.3338 (Simulation time: 05 hr 32 min 33 sec)
Heartbeat CPU 0 instructions: 1190000173 cycles: 3564446606 heartbeat IPC: 0.3348 cumulative IPC: 0.3339 (Simulation time: 05 hr 35 min 13 sec)
Heartbeat CPU 0 instructions: 1200000173 cycles: 3594261301 heartbeat IPC: 0.3354 cumulative IPC: 0.3339 (Simulation time: 05 hr 37 min 43 sec)
[ERROR_CYCLE] Error added at CPU cycle 3612564502, next at 3635329558, pending count: 1
[DRAM_CYCLE_ERROR] Cycle-based error applied! address=0x123a7c0a8 additional_latency=173500 cycles
Heartbeat CPU 0 instructions: 1210000174 cycles: 3624073239 heartbeat IPC: 0.3354 cumulative IPC: 0.3339 (Simulation time: 05 hr 40 min 16 sec)
[ERROR_CYCLE] Error added at CPU cycle 3635329558, next at 3743546336, pending count: 1
[DRAM_CYCLE_ERROR] Cycle-based error applied! address=0x84e4b3600 additional_latency=173500 cycles
Heartbeat CPU 0 instructions: 1220000178 cycles: 3653979504 heartbeat IPC: 0.3344 cumulative IPC: 0.3339 (Simulation time: 05 hr 43 min 12 sec)
Heartbeat CPU 0 instructions: 1230000181 cycles: 3683901876 heartbeat IPC: 0.3342 cumulative IPC: 0.3339 (Simulation time: 05 hr 46 min 07 sec)
Heartbeat CPU 0 instructions: 1240000182 cycles: 3713770536 heartbeat IPC: 0.3348 cumulative IPC: 0.3339 (Simulation time: 05 hr 49 min 08 sec)
[ERROR_CYCLE] Error added at CPU cycle 3743546337, next at 3833202836, pending count: 1
[DRAM_CYCLE_ERROR] Cycle-based error applied! address=0xdba7f1988 additional_latency=173500 cycles
Heartbeat CPU 0 instructions: 1250000185 cycles: 3743637945 heartbeat IPC: 0.3348 cumulative IPC: 0.3339 (Simulation time: 05 hr 51 min 58 sec)
Heartbeat CPU 0 instructions: 1260000185 cycles: 3773568776 heartbeat IPC: 0.3341 cumulative IPC: 0.3339 (Simulation time: 05 hr 54 min 23 sec)
Heartbeat CPU 0 instructions: 1270000185 cycles: 3803449477 heartbeat IPC: 0.3347 cumulative IPC: 0.3339 (Simulation time: 05 hr 57 min 19 sec)
[ERROR_CYCLE] Error added at CPU cycle 3833202836, next at 3918550474, pending count: 1
[DRAM_CYCLE_ERROR] Cycle-based error applied! address=0x29e123d80 additional_latency=173500 cycles
Heartbeat CPU 0 instructions: 1280000186 cycles: 3833399677 heartbeat IPC: 0.3339 cumulative IPC: 0.3339 (Simulation time: 06 hr 00 min 17 sec)
Heartbeat CPU 0 instructions: 1290000186 cycles: 3863303652 heartbeat IPC: 0.3344 cumulative IPC: 0.3339 (Simulation time: 06 hr 03 min 06 sec)
Heartbeat CPU 0 instructions: 1300000190 cycles: 3893130595 heartbeat IPC: 0.3353 cumulative IPC: 0.3339 (Simulation time: 06 hr 06 min 05 sec)
[ERROR_CYCLE] Error added at CPU cycle 3918550475, next at 3937595151, pending count: 1
[DRAM_CYCLE_ERROR] Cycle-based error applied! address=0x1467e21608 additional_latency=173500 cycles
Heartbeat CPU 0 instructions: 1310000190 cycles: 3923036254 heartbeat IPC: 0.3344 cumulative IPC: 0.3339 (Simulation time: 06 hr 08 min 52 sec)
[ERROR_CYCLE] Error added at CPU cycle 3937595151, next at 4008840545, pending count: 1
[DRAM_CYCLE_ERROR] Cycle-based error applied! address=0x1de935008 additional_latency=173500 cycles
Heartbeat CPU 0 instructions: 1320000190 cycles: 3952970404 heartbeat IPC: 0.3341 cumulative IPC: 0.3339 (Simulation time: 06 hr 11 min 54 sec)
Heartbeat CPU 0 instructions: 1330000190 cycles: 3982903660 heartbeat IPC: 0.3341 cumulative IPC: 0.3339 (Simulation time: 06 hr 14 min 56 sec)
[ERROR_CYCLE] Error added at CPU cycle 4008840546, next at 4131311547, pending count: 1
[DRAM_CYCLE_ERROR] Cycle-based error applied! address=0x97411b988 additional_latency=173500 cycles
Heartbeat CPU 0 instructions: 1340000190 cycles: 4012800111 heartbeat IPC: 0.3345 cumulative IPC: 0.3339 (Simulation time: 06 hr 17 min 58 sec)
Heartbeat CPU 0 instructions: 1350000192 cycles: 4042683998 heartbeat IPC: 0.3346 cumulative IPC: 0.3339 (Simulation time: 06 hr 21 min 00 sec)
Heartbeat CPU 0 instructions: 1360000193 cycles: 4072613104 heartbeat IPC: 0.3341 cumulative IPC: 0.3339 (Simulation time: 06 hr 23 min 54 sec)
Heartbeat CPU 0 instructions: 1370000194 cycles: 4102584737 heartbeat IPC: 0.3336 cumulative IPC: 0.3339 (Simulation time: 06 hr 26 min 19 sec)
[ERROR_CYCLE] Error added at CPU cycle 4131311548, next at 4186065189, pending count: 1
[DRAM_CYCLE_ERROR] Cycle-based error applied! address=0x1b02e51588 additional_latency=173500 cycles
Heartbeat CPU 0 instructions: 1380000197 cycles: 4132578989 heartbeat IPC: 0.3334 cumulative IPC: 0.3339 (Simulation time: 06 hr 29 min 01 sec)
Heartbeat CPU 0 instructions: 1390000201 cycles: 4162449672 heartbeat IPC: 0.3348 cumulative IPC: 0.3339 (Simulation time: 06 hr 31 min 34 sec)
[ERROR_CYCLE] Error added at CPU cycle 4186065190, next at 4194564255, pending count: 1
[DRAM_CYCLE_ERROR] Cycle-based error applied! address=0x19ad15e508 additional_latency=173500 cycles
Heartbeat CPU 0 instructions: 1400000204 cycles: 4192270733 heartbeat IPC: 0.3353 cumulative IPC: 0.3339 (Simulation time: 06 hr 34 min 33 sec)
[ERROR_CYCLE] Error added at CPU cycle 4194564255, next at 4363370435, pending count: 1
[DRAM_CYCLE_ERROR] Cycle-based error applied! address=0x1085ae9558 additional_latency=173500 cycles
Heartbeat CPU 0 instructions: 1410000206 cycles: 4222194974 heartbeat IPC: 0.3342 cumulative IPC: 0.3339 (Simulation time: 06 hr 37 min 28 sec)
Heartbeat CPU 0 instructions: 1420000206 cycles: 4252432389 heartbeat IPC: 0.3307 cumulative IPC: 0.3339 (Simulation time: 06 hr 40 min 14 sec)
Heartbeat CPU 0 instructions: 1430000209 cycles: 4282521428 heartbeat IPC: 0.3323 cumulative IPC: 0.3339 (Simulation time: 06 hr 43 min 11 sec)
Heartbeat CPU 0 instructions: 1440000211 cycles: 4314810896 heartbeat IPC: 0.3097 cumulative IPC: 0.3337 (Simulation time: 06 hr 46 min 25 sec)
Heartbeat CPU 0 instructions: 1450000214 cycles: 4344680591 heartbeat IPC: 0.3348 cumulative IPC: 0.3337 (Simulation time: 06 hr 49 min 13 sec)
[ERROR_CYCLE] Error added at CPU cycle 4363370435, next at 4440092432, pending count: 1
[DRAM_CYCLE_ERROR] Cycle-based error applied! address=0x1bfd073ac0 additional_latency=173500 cycles
Heartbeat CPU 0 instructions: 1460000214 cycles: 4374704291 heartbeat IPC: 0.3331 cumulative IPC: 0.3337 (Simulation time: 06 hr 52 min 07 sec)
Heartbeat CPU 0 instructions: 1470000214 cycles: 4404633488 heartbeat IPC: 0.3341 cumulative IPC: 0.3337 (Simulation time: 06 hr 54 min 39 sec)
Heartbeat CPU 0 instructions: 1480000216 cycles: 4434501795 heartbeat IPC: 0.3348 cumulative IPC: 0.3337 (Simulation time: 06 hr 57 min 39 sec)
[ERROR_CYCLE] Error added at CPU cycle 4440092432, next at 4533656869, pending count: 1
[DRAM_CYCLE_ERROR] Cycle-based error applied! address=0x5b6fc9f40 additional_latency=173500 cycles
Heartbeat CPU 0 instructions: 1490000220 cycles: 4464298883 heartbeat IPC: 0.3356 cumulative IPC: 0.3338 (Simulation time: 07 hr 00 min 21 sec)
Heartbeat CPU 0 instructions: 1500000220 cycles: 4494037243 heartbeat IPC: 0.3363 cumulative IPC: 0.3338 (Simulation time: 07 hr 02 min 51 sec)
Heartbeat CPU 0 instructions: 1510000220 cycles: 4523827148 heartbeat IPC: 0.3357 cumulative IPC: 0.3338 (Simulation time: 07 hr 05 min 20 sec)
[ERROR_CYCLE] Error added at CPU cycle 4533656869, next at 4818675937, pending count: 1
[DRAM_CYCLE_ERROR] Cycle-based error applied! address=0xb0174f588 additional_latency=173500 cycles
Heartbeat CPU 0 instructions: 1520000222 cycles: 4553861117 heartbeat IPC: 0.333 cumulative IPC: 0.3338 (Simulation time: 07 hr 08 min 18 sec)
Heartbeat CPU 0 instructions: 1530000222 cycles: 4583895134 heartbeat IPC: 0.333 cumulative IPC: 0.3338 (Simulation time: 07 hr 11 min 11 sec)
Heartbeat CPU 0 instructions: 1540000223 cycles: 4613501533 heartbeat IPC: 0.3378 cumulative IPC: 0.3338 (Simulation time: 07 hr 14 min 11 sec)
Heartbeat CPU 0 instructions: 1550000223 cycles: 4642264590 heartbeat IPC: 0.3477 cumulative IPC: 0.3339 (Simulation time: 07 hr 17 min 01 sec)
Heartbeat CPU 0 instructions: 1560000225 cycles: 4670949052 heartbeat IPC: 0.3486 cumulative IPC: 0.334 (Simulation time: 07 hr 19 min 52 sec)
Heartbeat CPU 0 instructions: 1570000225 cycles: 4699709793 heartbeat IPC: 0.3477 cumulative IPC: 0.3341 (Simulation time: 07 hr 22 min 38 sec)
Heartbeat CPU 0 instructions: 1580000227 cycles: 4728390730 heartbeat IPC: 0.3487 cumulative IPC: 0.3342 (Simulation time: 07 hr 25 min 19 sec)
Heartbeat CPU 0 instructions: 1590000231 cycles: 4757100746 heartbeat IPC: 0.3483 cumulative IPC: 0.3342 (Simulation time: 07 hr 27 min 55 sec)
Heartbeat CPU 0 instructions: 1600000231 cycles: 4785815801 heartbeat IPC: 0.3482 cumulative IPC: 0.3343 (Simulation time: 07 hr 30 min 43 sec)
Heartbeat CPU 0 instructions: 1610000231 cycles: 4814477875 heartbeat IPC: 0.3489 cumulative IPC: 0.3344 (Simulation time: 07 hr 33 min 14 sec)
[ERROR_CYCLE] Error added at CPU cycle 4818675937, next at 4862413593, pending count: 1
[DRAM_CYCLE_ERROR] Cycle-based error applied! address=0x14c9f62740 additional_latency=173500 cycles
Heartbeat CPU 0 instructions: 1620000232 cycles: 4843177206 heartbeat IPC: 0.3484 cumulative IPC: 0.3345 (Simulation time: 07 hr 35 min 51 sec)
[ERROR_CYCLE] Error added at CPU cycle 4862413593, next at 4868348360, pending count: 1
[DRAM_CYCLE_ERROR] Cycle-based error applied! address=0xbdbba7388 additional_latency=173500 cycles
[ERROR_CYCLE] Error added at CPU cycle 4868348361, next at 4885240742, pending count: 1
[DRAM_CYCLE_ERROR] Cycle-based error applied! address=0x79a502210 additional_latency=173500 cycles
Heartbeat CPU 0 instructions: 1630000233 cycles: 4871816653 heartbeat IPC: 0.3492 cumulative IPC: 0.3346 (Simulation time: 07 hr 38 min 36 sec)
[ERROR_CYCLE] Error added at CPU cycle 4885240743, next at 4905754810, pending count: 1
[DRAM_CYCLE_ERROR] Cycle-based error applied! address=0x826ae0c18 additional_latency=173500 cycles
Heartbeat CPU 0 instructions: 1640000234 cycles: 4900550429 heartbeat IPC: 0.348 cumulative IPC: 0.3347 (Simulation time: 07 hr 41 min 31 sec)
[ERROR_CYCLE] Error added at CPU cycle 4905754810, next at 4909847406, pending count: 1
[DRAM_CYCLE_ERROR] Cycle-based error applied! address=0x1aadc8b8c0 additional_latency=173500 cycles
[ERROR_CYCLE] Error added at CPU cycle 4909847406, next at 4925492300, pending count: 1
[DRAM_CYCLE_ERROR] Cycle-based error applied! address=0x86d6081c0 additional_latency=173500 cycles
[ERROR_CYCLE] Error added at CPU cycle 4925492301, next at 4990643173, pending count: 1
[DRAM_CYCLE_ERROR] Cycle-based error applied! address=0x33cbe5a00 additional_latency=173500 cycles
Heartbeat CPU 0 instructions: 1650000235 cycles: 4929249927 heartbeat IPC: 0.3484 cumulative IPC: 0.3347 (Simulation time: 07 hr 44 min 26 sec)
Heartbeat CPU 0 instructions: 1660000235 cycles: 4958013316 heartbeat IPC: 0.3477 cumulative IPC: 0.3348 (Simulation time: 07 hr 47 min 16 sec)
Heartbeat CPU 0 instructions: 1670000235 cycles: 4986739027 heartbeat IPC: 0.3481 cumulative IPC: 0.3349 (Simulation time: 07 hr 50 min 01 sec)
[ERROR_CYCLE] Error added at CPU cycle 4990643174, next at 5244036741, pending count: 1
[DRAM_CYCLE_ERROR] Cycle-based error applied! address=0x120e9d0e08 additional_latency=173500 cycles
Heartbeat CPU 0 instructions: 1680000237 cycles: 5015445870 heartbeat IPC: 0.3483 cumulative IPC: 0.335 (Simulation time: 07 hr 52 min 14 sec)
Heartbeat CPU 0 instructions: 1690000237 cycles: 5044144543 heartbeat IPC: 0.3484 cumulative IPC: 0.335 (Simulation time: 07 hr 54 min 42 sec)
Heartbeat CPU 0 instructions: 1700000241 cycles: 5072832502 heartbeat IPC: 0.3486 cumulative IPC: 0.3351 (Simulation time: 07 hr 57 min 04 sec)
Heartbeat CPU 0 instructions: 1710000242 cycles: 5101570231 heartbeat IPC: 0.348 cumulative IPC: 0.3352 (Simulation time: 07 hr 59 min 59 sec)
Heartbeat CPU 0 instructions: 1720000243 cycles: 5130260698 heartbeat IPC: 0.3485 cumulative IPC: 0.3353 (Simulation time: 08 hr 02 min 21 sec)
Heartbeat CPU 0 instructions: 1730000243 cycles: 5158993238 heartbeat IPC: 0.348 cumulative IPC: 0.3353 (Simulation time: 08 hr 05 min 12 sec)
Heartbeat CPU 0 instructions: 1740000246 cycles: 5187677768 heartbeat IPC: 0.3486 cumulative IPC: 0.3354 (Simulation time: 08 hr 07 min 53 sec)
Heartbeat CPU 0 instructions: 1750000247 cycles: 5216379894 heartbeat IPC: 0.3484 cumulative IPC: 0.3355 (Simulation time: 08 hr 10 min 49 sec)
[ERROR_CYCLE] Error added at CPU cycle 5244036741, next at 5482371441, pending count: 1
[DRAM_CYCLE_ERROR] Cycle-based error applied! address=0xd4d2bd4c8 additional_latency=173500 cycles
Heartbeat CPU 0 instructions: 1760000248 cycles: 5245144628 heartbeat IPC: 0.3476 cumulative IPC: 0.3355 (Simulation time: 08 hr 13 min 32 sec)
Heartbeat CPU 0 instructions: 1770000252 cycles: 5273855985 heartbeat IPC: 0.3483 cumulative IPC: 0.3356 (Simulation time: 08 hr 16 min 18 sec)
Heartbeat CPU 0 instructions: 1780000252 cycles: 5302593757 heartbeat IPC: 0.348 cumulative IPC: 0.3357 (Simulation time: 08 hr 18 min 51 sec)
Heartbeat CPU 0 instructions: 1790000252 cycles: 5331386745 heartbeat IPC: 0.3473 cumulative IPC: 0.3357 (Simulation time: 08 hr 21 min 43 sec)
Heartbeat CPU 0 instructions: 1800000252 cycles: 5360163899 heartbeat IPC: 0.3475 cumulative IPC: 0.3358 (Simulation time: 08 hr 24 min 22 sec)
Heartbeat CPU 0 instructions: 1810000253 cycles: 5388883310 heartbeat IPC: 0.3482 cumulative IPC: 0.3359 (Simulation time: 08 hr 27 min 12 sec)
Heartbeat CPU 0 instructions: 1820000255 cycles: 5417593717 heartbeat IPC: 0.3483 cumulative IPC: 0.3359 (Simulation time: 08 hr 29 min 52 sec)
Heartbeat CPU 0 instructions: 1830000257 cycles: 5446271695 heartbeat IPC: 0.3487 cumulative IPC: 0.336 (Simulation time: 08 hr 32 min 41 sec)
Heartbeat CPU 0 instructions: 1840000259 cycles: 5474982570 heartbeat IPC: 0.3483 cumulative IPC: 0.3361 (Simulation time: 08 hr 35 min 29 sec)
[ERROR_CYCLE] Error added at CPU cycle 5482371441, next at 5536538917, pending count: 1
[DRAM_CYCLE_ERROR] Cycle-based error applied! address=0x128e8359c8 additional_latency=173500 cycles
Heartbeat CPU 0 instructions: 1850000259 cycles: 5503706520 heartbeat IPC: 0.3481 cumulative IPC: 0.3361 (Simulation time: 08 hr 38 min 17 sec)
Heartbeat CPU 0 instructions: 1860000262 cycles: 5532447744 heartbeat IPC: 0.3479 cumulative IPC: 0.3362 (Simulation time: 08 hr 41 min 07 sec)
[ERROR_CYCLE] Error added at CPU cycle 5536538918, next at 5548486933, pending count: 1
[DRAM_CYCLE_ERROR] Cycle-based error applied! address=0x9a6ce3288 additional_latency=173500 cycles
[ERROR_CYCLE] Error added at CPU cycle 5548486934, next at 5572540947, pending count: 1
[DRAM_CYCLE_ERROR] Cycle-based error applied! address=0x153c3d2890 additional_latency=173500 cycles
Heartbeat CPU 0 instructions: 1870000263 cycles: 5561133798 heartbeat IPC: 0.3486 cumulative IPC: 0.3363 (Simulation time: 08 hr 43 min 53 sec)
[ERROR_CYCLE] Error added at CPU cycle 5572540947, next at 5640982117, pending count: 1
[DRAM_CYCLE_ERROR] Cycle-based error applied! address=0xa103c708 additional_latency=173500 cycles
Heartbeat CPU 0 instructions: 1880000264 cycles: 5589839380 heartbeat IPC: 0.3484 cumulative IPC: 0.3363 (Simulation time: 08 hr 46 min 25 sec)
Heartbeat CPU 0 instructions: 1890000267 cycles: 5618527599 heartbeat IPC: 0.3486 cumulative IPC: 0.3364 (Simulation time: 08 hr 49 min 07 sec)
[ERROR_CYCLE] Error added at CPU cycle 5640982117, next at 5980367583, pending count: 1
[DRAM_CYCLE_ERROR] Cycle-based error applied! address=0x59a93b0c8 additional_latency=173500 cycles
Heartbeat CPU 0 instructions: 1900000271 cycles: 5647204665 heartbeat IPC: 0.3487 cumulative IPC: 0.3364 (Simulation time: 08 hr 51 min 45 sec)
Heartbeat CPU 0 instructions: 1910000274 cycles: 5675930240 heartbeat IPC: 0.3481 cumulative IPC: 0.3365 (Simulation time: 08 hr 54 min 15 sec)
Heartbeat CPU 0 instructions: 1920000278 cycles: 5704655438 heartbeat IPC: 0.3481 cumulative IPC: 0.3366 (Simulation time: 08 hr 57 min 12 sec)
Heartbeat CPU 0 instructions: 1930000280 cycles: 5733409307 heartbeat IPC: 0.3478 cumulative IPC: 0.3366 (Simulation time: 09 hr 00 min 08 sec)
Heartbeat CPU 0 instructions: 1940000280 cycles: 5762174296 heartbeat IPC: 0.3476 cumulative IPC: 0.3367 (Simulation time: 09 hr 02 min 47 sec)
Heartbeat CPU 0 instructions: 1950000281 cycles: 5790886218 heartbeat IPC: 0.3483 cumulative IPC: 0.3367 (Simulation time: 09 hr 05 min 18 sec)
Heartbeat CPU 0 instructions: 1960000284 cycles: 5819607388 heartbeat IPC: 0.3482 cumulative IPC: 0.3368 (Simulation time: 09 hr 08 min 01 sec)
Heartbeat CPU 0 instructions: 1970000284 cycles: 5848327904 heartbeat IPC: 0.3482 cumulative IPC: 0.3368 (Simulation time: 09 hr 10 min 58 sec)
Heartbeat CPU 0 instructions: 1980000285 cycles: 5877048925 heartbeat IPC: 0.3482 cumulative IPC: 0.3369 (Simulation time: 09 hr 13 min 37 sec)
Heartbeat CPU 0 instructions: 1990000285 cycles: 5905762432 heartbeat IPC: 0.3483 cumulative IPC: 0.337 (Simulation time: 09 hr 16 min 14 sec)

=== ERROR PAGE STATISTICS ===
Mode: CYCLE
Error Cycle Interval: 80000000 CPU cycles
Total Error Accesses: 72
==============================
Simulation finished CPU 0 instructions: 1999999981 cycles: 5934385761 cumulative IPC: 0.337 (Simulation time: 09 hr 19 min 08 sec)
Simulation complete CPU 0 instructions: 1999999981 cycles: 5934385761 cumulative IPC: 0.337 (Simulation time: 09 hr 19 min 08 sec)

ChampSim completed all CPUs

=== Simulation ===
CPU 0 runs test_traces/602.gcc_s-1850B.champsimtrace.xz

Region of Interest Statistics

CPU 0 cumulative IPC: 0.337 instructions: 1999999981 cycles: 5934385761
CPU 0 Branch Prediction Accuracy: 92.26% MPKI: 19.84 Average ROB Occupancy at Mispredict: 28.45
Branch type MPKI
BRANCH_DIRECT_JUMP: 0.0104
BRANCH_INDIRECT: 0
BRANCH_CONDITIONAL: 19.83
BRANCH_DIRECT_CALL: 8.5e-06
BRANCH_INDIRECT_CALL: 0
BRANCH_RETURN: 7e-06

cpu0->cpu0_STLB TOTAL        ACCESS:     748410 HIT:     106519 MISS:     641891 MSHR_MERGE:          0
cpu0->cpu0_STLB LOAD         ACCESS:     748410 HIT:     106519 MISS:     641891 MSHR_MERGE:          0
cpu0->cpu0_STLB RFO          ACCESS:          0 HIT:          0 MISS:          0 MSHR_MERGE:          0
cpu0->cpu0_STLB PREFETCH     ACCESS:          0 HIT:          0 MISS:          0 MSHR_MERGE:          0
cpu0->cpu0_STLB WRITE        ACCESS:          0 HIT:          0 MISS:          0 MSHR_MERGE:          0
cpu0->cpu0_STLB TRANSLATION  ACCESS:          0 HIT:          0 MISS:          0 MSHR_MERGE:          0
cpu0->cpu0_STLB PREFETCH REQUESTED:          0 ISSUED:          0 USEFUL:          0 USELESS:          0
cpu0->cpu0_STLB AVERAGE MISS LATENCY: 473 cycles
cpu0->cpu0_L2C TOTAL        ACCESS:   48249096 HIT:   12592241 MISS:   35656855 MSHR_MERGE:          0
cpu0->cpu0_L2C LOAD         ACCESS:   48104367 HIT:   12464391 MISS:   35639976 MSHR_MERGE:          0
cpu0->cpu0_L2C RFO          ACCESS:      16939 HIT:        109 MISS:      16830 MSHR_MERGE:          0
cpu0->cpu0_L2C PREFETCH     ACCESS:          0 HIT:          0 MISS:          0 MSHR_MERGE:          0
cpu0->cpu0_L2C WRITE        ACCESS:     127790 HIT:     127741 MISS:         49 MSHR_MERGE:          0
cpu0->cpu0_L2C TRANSLATION  ACCESS:          0 HIT:          0 MISS:          0 MSHR_MERGE:          0
cpu0->cpu0_L2C PREFETCH REQUESTED:          0 ISSUED:          0 USEFUL:          0 USELESS:          0
cpu0->cpu0_L2C AVERAGE MISS LATENCY: 106.2 cycles
cpu0->cpu0_L1I TOTAL        ACCESS:      78839 HIT:      78779 MISS:         60 MSHR_MERGE:          3
cpu0->cpu0_L1I LOAD         ACCESS:      78839 HIT:      78779 MISS:         60 MSHR_MERGE:          3
cpu0->cpu0_L1I RFO          ACCESS:          0 HIT:          0 MISS:          0 MSHR_MERGE:          0
cpu0->cpu0_L1I PREFETCH     ACCESS:          0 HIT:          0 MISS:          0 MSHR_MERGE:          0
cpu0->cpu0_L1I WRITE        ACCESS:          0 HIT:          0 MISS:          0 MSHR_MERGE:          0
cpu0->cpu0_L1I TRANSLATION  ACCESS:          0 HIT:          0 MISS:          0 MSHR_MERGE:          0
cpu0->cpu0_L1I PREFETCH REQUESTED:          0 ISSUED:          0 USEFUL:          0 USELESS:          0
cpu0->cpu0_L1I AVERAGE MISS LATENCY: 113.3 cycles
cpu0->cpu0_L1D TOTAL        ACCESS:  605677959 HIT:  522293774 MISS:   83384185 MSHR_MERGE:   35262936
cpu0->cpu0_L1D LOAD         ACCESS:  433055393 HIT:  349688654 MISS:   83366739 MSHR_MERGE:   35262429
cpu0->cpu0_L1D RFO          ACCESS:          0 HIT:          0 MISS:          0 MSHR_MERGE:          0
cpu0->cpu0_L1D PREFETCH     ACCESS:          0 HIT:          0 MISS:          0 MSHR_MERGE:          0
cpu0->cpu0_L1D WRITE        ACCESS:  172622566 HIT:  172605120 MISS:      17446 MSHR_MERGE:        507
cpu0->cpu0_L1D TRANSLATION  ACCESS:          0 HIT:          0 MISS:          0 MSHR_MERGE:          0
cpu0->cpu0_L1D PREFETCH REQUESTED:          0 ISSUED:          0 USEFUL:          0 USELESS:          0
cpu0->cpu0_L1D AVERAGE MISS LATENCY: 87.4 cycles
cpu0->cpu0_ITLB TOTAL        ACCESS:      74137 HIT:      74128 MISS:          9 MSHR_MERGE:          3
cpu0->cpu0_ITLB LOAD         ACCESS:      74137 HIT:      74128 MISS:          9 MSHR_MERGE:          3
cpu0->cpu0_ITLB RFO          ACCESS:          0 HIT:          0 MISS:          0 MSHR_MERGE:          0
cpu0->cpu0_ITLB PREFETCH     ACCESS:          0 HIT:          0 MISS:          0 MSHR_MERGE:          0
cpu0->cpu0_ITLB WRITE        ACCESS:          0 HIT:          0 MISS:          0 MSHR_MERGE:          0
cpu0->cpu0_ITLB TRANSLATION  ACCESS:          0 HIT:          0 MISS:          0 MSHR_MERGE:          0
cpu0->cpu0_ITLB PREFETCH REQUESTED:          0 ISSUED:          0 USEFUL:          0 USELESS:          0
cpu0->cpu0_ITLB AVERAGE MISS LATENCY: 788.3 cycles
cpu0->cpu0_DTLB TOTAL        ACCESS:  552104927 HIT:  550734581 MISS:    1370346 MSHR_MERGE:     621942
cpu0->cpu0_DTLB LOAD         ACCESS:  552104927 HIT:  550734581 MISS:    1370346 MSHR_MERGE:     621942
cpu0->cpu0_DTLB RFO          ACCESS:          0 HIT:          0 MISS:          0 MSHR_MERGE:          0
cpu0->cpu0_DTLB PREFETCH     ACCESS:          0 HIT:          0 MISS:          0 MSHR_MERGE:          0
cpu0->cpu0_DTLB WRITE        ACCESS:          0 HIT:          0 MISS:          0 MSHR_MERGE:          0
cpu0->cpu0_DTLB TRANSLATION  ACCESS:          0 HIT:          0 MISS:          0 MSHR_MERGE:          0
cpu0->cpu0_DTLB PREFETCH REQUESTED:          0 ISSUED:          0 USEFUL:          0 USELESS:          0
cpu0->cpu0_DTLB AVERAGE MISS LATENCY: 411.5 cycles
cpu0->LLC TOTAL        ACCESS:   35706989 HIT:     117418 MISS:   35589571 MSHR_MERGE:          0
cpu0->LLC LOAD         ACCESS:   35639976 HIT:      67519 MISS:   35572457 MSHR_MERGE:          0
cpu0->LLC RFO          ACCESS:      16830 HIT:         59 MISS:      16771 MSHR_MERGE:          0
cpu0->LLC PREFETCH     ACCESS:          0 HIT:          0 MISS:          0 MSHR_MERGE:          0
cpu0->LLC WRITE        ACCESS:      50183 HIT:      49840 MISS:        343 MSHR_MERGE:          0
cpu0->LLC TRANSLATION  ACCESS:          0 HIT:          0 MISS:          0 MSHR_MERGE:          0
cpu0->LLC PREFETCH REQUESTED:          0 ISSUED:          0 USEFUL:          0 USELESS:          0
cpu0->LLC AVERAGE MISS LATENCY: 90.32 cycles

DRAM Statistics

Channel 0 RQ ROW_BUFFER_HIT:       7363
  ROW_BUFFER_MISS:   18436017
  AVG DBUS CONGESTED CYCLE: 11.76
Channel 0 WQ ROW_BUFFER_HIT:       2890
  ROW_BUFFER_MISS:      22284
  FULL:          0
Channel 0 REFRESHES ISSUED:     494500

Channel 1 RQ ROW_BUFFER_HIT:       7815
  ROW_BUFFER_MISS:   18437127
  AVG DBUS CONGESTED CYCLE: 11.78
Channel 1 WQ ROW_BUFFER_HIT:       2896
  ROW_BUFFER_MISS:      22051
  FULL:          0
Channel 1 REFRESHES ISSUED:     494500
