
*** ChampSim Multicore Out-of-Order Simulator ***
Warmup Instructions: 0
Simulation Instructions: 9223372036854775807
Number of CPUs: 1
Page size: 2097152

Off-chip DRAM Size: 64 GiB Channels: 2 Width: 32-bit Data Rate: 4807 MT/s
[ERROR_PAGE_MANAGER] Error latency: 1990500 
[ERROR_PAGE_MANAGER] Random seed: 54321 (fixed for preload reproducibility)
[ERROR_PAGE_MANAGER] Cycle-based error modeling enabled
[ERROR_PAGE_MANAGER] Errors per interval: 1
[ERROR_PAGE_MANAGER] Error cycle interval: 100000000 cycles

=== ERROR PAGE STATISTICS ===
Mode: CYCLE
Error Cycle Interval: 100000000 CPU cycles
Total Error Accesses: 0
==============================
Warmup finished CPU 0 instructions: 0 cycles: 1 cumulative IPC: 0 (Simulation time: 00 hr 00 min 00 sec)
Warmup complete CPU 0 instructions: 0 cycles: 1 cumulative IPC: 0 (Simulation time: 00 hr 00 min 00 sec)
Heartbeat CPU 0 instructions: 10000002 cycles: 26140594 heartbeat IPC: 0.3825 cumulative IPC: 0.3825 (Simulation time: 00 hr 02 min 06 sec)
Heartbeat CPU 0 instructions: 20000002 cycles: 52110128 heartbeat IPC: 0.3851 cumulative IPC: 0.3838 (Simulation time: 00 hr 04 min 48 sec)
[ERROR_CYCLE] Error added at CPU cycle 71278057, next at 91533063, pending count: 1
[DRAM_CYCLE_ERROR] Cycle-based error applied! address=0xd0dd81058 additional_latency=1990500 cycles
Heartbeat CPU 0 instructions: 30000004 cycles: 78063980 heartbeat IPC: 0.3853 cumulative IPC: 0.3843 (Simulation time: 00 hr 07 min 00 sec)
[ERROR_CYCLE] Error added at CPU cycle 91533064, next at 256960641, pending count: 1
[DRAM_CYCLE_ERROR] Cycle-based error applied! address=0x3f32cd998 additional_latency=1990500 cycles
Heartbeat CPU 0 instructions: 40000005 cycles: 104094086 heartbeat IPC: 0.3842 cumulative IPC: 0.3843 (Simulation time: 00 hr 09 min 41 sec)
Heartbeat CPU 0 instructions: 50000009 cycles: 130038062 heartbeat IPC: 0.3854 cumulative IPC: 0.3845 (Simulation time: 00 hr 12 min 05 sec)
Heartbeat CPU 0 instructions: 60000012 cycles: 156017844 heartbeat IPC: 0.3849 cumulative IPC: 0.3846 (Simulation time: 00 hr 14 min 47 sec)
Heartbeat CPU 0 instructions: 70000012 cycles: 182032250 heartbeat IPC: 0.3844 cumulative IPC: 0.3845 (Simulation time: 00 hr 17 min 28 sec)
Heartbeat CPU 0 instructions: 80000016 cycles: 208119466 heartbeat IPC: 0.3833 cumulative IPC: 0.3844 (Simulation time: 00 hr 20 min 11 sec)
Heartbeat CPU 0 instructions: 90000018 cycles: 234083500 heartbeat IPC: 0.3851 cumulative IPC: 0.3845 (Simulation time: 00 hr 22 min 52 sec)
[ERROR_CYCLE] Error added at CPU cycle 256960642, next at 534676898, pending count: 1
[DRAM_CYCLE_ERROR] Cycle-based error applied! address=0x1a14aa608 additional_latency=1990500 cycles
Heartbeat CPU 0 instructions: 100000020 cycles: 260010129 heartbeat IPC: 0.3857 cumulative IPC: 0.3846 (Simulation time: 00 hr 25 min 15 sec)
Heartbeat CPU 0 instructions: 110000020 cycles: 286018258 heartbeat IPC: 0.3845 cumulative IPC: 0.3846 (Simulation time: 00 hr 27 min 17 sec)
Heartbeat CPU 0 instructions: 120000024 cycles: 312027752 heartbeat IPC: 0.3845 cumulative IPC: 0.3846 (Simulation time: 00 hr 29 min 45 sec)
Heartbeat CPU 0 instructions: 130000024 cycles: 338043922 heartbeat IPC: 0.3844 cumulative IPC: 0.3846 (Simulation time: 00 hr 32 min 20 sec)
Heartbeat CPU 0 instructions: 140000027 cycles: 363954162 heartbeat IPC: 0.3859 cumulative IPC: 0.3847 (Simulation time: 00 hr 34 min 43 sec)
Heartbeat CPU 0 instructions: 150000029 cycles: 389869879 heartbeat IPC: 0.3859 cumulative IPC: 0.3847 (Simulation time: 00 hr 37 min 16 sec)
Heartbeat CPU 0 instructions: 160000031 cycles: 415878316 heartbeat IPC: 0.3845 cumulative IPC: 0.3847 (Simulation time: 00 hr 39 min 57 sec)
Heartbeat CPU 0 instructions: 170000034 cycles: 441814257 heartbeat IPC: 0.3856 cumulative IPC: 0.3848 (Simulation time: 00 hr 42 min 29 sec)
Heartbeat CPU 0 instructions: 180000036 cycles: 467756148 heartbeat IPC: 0.3855 cumulative IPC: 0.3848 (Simulation time: 00 hr 44 min 49 sec)
Heartbeat CPU 0 instructions: 190000039 cycles: 493804428 heartbeat IPC: 0.3839 cumulative IPC: 0.3848 (Simulation time: 00 hr 47 min 11 sec)
Heartbeat CPU 0 instructions: 200000040 cycles: 519716461 heartbeat IPC: 0.3859 cumulative IPC: 0.3848 (Simulation time: 00 hr 49 min 52 sec)
[ERROR_CYCLE] Error added at CPU cycle 534676899, next at 537682250, pending count: 1
[DRAM_CYCLE_ERROR] Cycle-based error applied! address=0xe2d40bc8 additional_latency=1990500 cycles
[ERROR_CYCLE] Error added at CPU cycle 537682251, next at 691386421, pending count: 1
[DRAM_CYCLE_ERROR] Cycle-based error applied! address=0x2e56eb700 additional_latency=1990500 cycles
Heartbeat CPU 0 instructions: 210000042 cycles: 545656523 heartbeat IPC: 0.3855 cumulative IPC: 0.3849 (Simulation time: 00 hr 52 min 17 sec)
Heartbeat CPU 0 instructions: 220000045 cycles: 571659492 heartbeat IPC: 0.3846 cumulative IPC: 0.3848 (Simulation time: 00 hr 54 min 22 sec)
Heartbeat CPU 0 instructions: 230000046 cycles: 597631404 heartbeat IPC: 0.385 cumulative IPC: 0.3849 (Simulation time: 00 hr 56 min 29 sec)
Heartbeat CPU 0 instructions: 240000047 cycles: 623611651 heartbeat IPC: 0.3849 cumulative IPC: 0.3849 (Simulation time: 00 hr 58 min 58 sec)
Heartbeat CPU 0 instructions: 250000047 cycles: 649540301 heartbeat IPC: 0.3857 cumulative IPC: 0.3849 (Simulation time: 01 hr 01 min 37 sec)
Heartbeat CPU 0 instructions: 260000051 cycles: 675531407 heartbeat IPC: 0.3847 cumulative IPC: 0.3849 (Simulation time: 01 hr 04 min 17 sec)
[ERROR_CYCLE] Error added at CPU cycle 691386422, next at 709284434, pending count: 1
[DRAM_CYCLE_ERROR] Cycle-based error applied! address=0x307575090 additional_latency=1990500 cycles
Heartbeat CPU 0 instructions: 270000051 cycles: 701522895 heartbeat IPC: 0.3847 cumulative IPC: 0.3849 (Simulation time: 01 hr 06 min 57 sec)
[ERROR_CYCLE] Error added at CPU cycle 709284434, next at 766174217, pending count: 1
[DRAM_CYCLE_ERROR] Cycle-based error applied! address=0xd0c747000 additional_latency=1990500 cycles
Heartbeat CPU 0 instructions: 280000052 cycles: 727484827 heartbeat IPC: 0.3852 cumulative IPC: 0.3849 (Simulation time: 01 hr 09 min 37 sec)
Heartbeat CPU 0 instructions: 290000052 cycles: 753421325 heartbeat IPC: 0.3856 cumulative IPC: 0.3849 (Simulation time: 01 hr 12 min 17 sec)
[ERROR_CYCLE] Error added at CPU cycle 766174218, next at 851568605, pending count: 1
[DRAM_CYCLE_ERROR] Cycle-based error applied! address=0xbc1707898 additional_latency=1990500 cycles
Heartbeat CPU 0 instructions: 300000056 cycles: 779368521 heartbeat IPC: 0.3854 cumulative IPC: 0.3849 (Simulation time: 01 hr 14 min 56 sec)
Heartbeat CPU 0 instructions: 310000056 cycles: 805320828 heartbeat IPC: 0.3853 cumulative IPC: 0.3849 (Simulation time: 01 hr 17 min 19 sec)
Heartbeat CPU 0 instructions: 320000059 cycles: 831285974 heartbeat IPC: 0.3851 cumulative IPC: 0.3849 (Simulation time: 01 hr 19 min 37 sec)
[ERROR_CYCLE] Error added at CPU cycle 851568605, next at 876033762, pending count: 1
[DRAM_CYCLE_ERROR] Cycle-based error applied! address=0x1b9dccf90 additional_latency=1990500 cycles
Heartbeat CPU 0 instructions: 330000059 cycles: 857243017 heartbeat IPC: 0.3853 cumulative IPC: 0.385 (Simulation time: 01 hr 22 min 03 sec)
[ERROR_CYCLE] Error added at CPU cycle 876033763, next at 1053629556, pending count: 1
[DRAM_CYCLE_ERROR] Cycle-based error applied! address=0xb33928f18 additional_latency=1990500 cycles
Heartbeat CPU 0 instructions: 340000061 cycles: 883237151 heartbeat IPC: 0.3847 cumulative IPC: 0.3849 (Simulation time: 01 hr 24 min 44 sec)
Heartbeat CPU 0 instructions: 350000063 cycles: 909176886 heartbeat IPC: 0.3855 cumulative IPC: 0.385 (Simulation time: 01 hr 27 min 26 sec)
Heartbeat CPU 0 instructions: 360000064 cycles: 935101356 heartbeat IPC: 0.3857 cumulative IPC: 0.385 (Simulation time: 01 hr 30 min 07 sec)
Heartbeat CPU 0 instructions: 370000067 cycles: 961013454 heartbeat IPC: 0.3859 cumulative IPC: 0.385 (Simulation time: 01 hr 32 min 48 sec)
Heartbeat CPU 0 instructions: 380000068 cycles: 987022615 heartbeat IPC: 0.3845 cumulative IPC: 0.385 (Simulation time: 01 hr 35 min 30 sec)
Heartbeat CPU 0 instructions: 390000071 cycles: 1013017229 heartbeat IPC: 0.3847 cumulative IPC: 0.385 (Simulation time: 01 hr 38 min 11 sec)
Heartbeat CPU 0 instructions: 400000074 cycles: 1039009004 heartbeat IPC: 0.3847 cumulative IPC: 0.385 (Simulation time: 01 hr 40 min 52 sec)
[ERROR_CYCLE] Error added at CPU cycle 1053629556, next at 1089231385, pending count: 1
[DRAM_CYCLE_ERROR] Cycle-based error applied! address=0x376904a0 additional_latency=1990500 cycles
Heartbeat CPU 0 instructions: 410000076 cycles: 1064999817 heartbeat IPC: 0.3848 cumulative IPC: 0.385 (Simulation time: 01 hr 43 min 33 sec)
[ERROR_CYCLE] Error added at CPU cycle 1089231385, next at 1133989996, pending count: 1
[DRAM_CYCLE_ERROR] Cycle-based error applied! address=0x1a488f590 additional_latency=1990500 cycles
Heartbeat CPU 0 instructions: 420000076 cycles: 1090975487 heartbeat IPC: 0.385 cumulative IPC: 0.385 (Simulation time: 01 hr 46 min 14 sec)
Heartbeat CPU 0 instructions: 430000076 cycles: 1116905970 heartbeat IPC: 0.3856 cumulative IPC: 0.385 (Simulation time: 01 hr 48 min 55 sec)
[ERROR_CYCLE] Error added at CPU cycle 1133989996, next at 1337518358, pending count: 1
[DRAM_CYCLE_ERROR] Cycle-based error applied! address=0x2f84cf740 additional_latency=1990500 cycles
Heartbeat CPU 0 instructions: 440000080 cycles: 1142861029 heartbeat IPC: 0.3853 cumulative IPC: 0.385 (Simulation time: 01 hr 51 min 35 sec)
Heartbeat CPU 0 instructions: 450000081 cycles: 1168811322 heartbeat IPC: 0.3854 cumulative IPC: 0.385 (Simulation time: 01 hr 54 min 16 sec)
Heartbeat CPU 0 instructions: 460000083 cycles: 1194703782 heartbeat IPC: 0.3862 cumulative IPC: 0.385 (Simulation time: 01 hr 56 min 53 sec)
Heartbeat CPU 0 instructions: 470000085 cycles: 1220570814 heartbeat IPC: 0.3866 cumulative IPC: 0.3851 (Simulation time: 01 hr 59 min 14 sec)
Heartbeat CPU 0 instructions: 480000086 cycles: 1246456843 heartbeat IPC: 0.3863 cumulative IPC: 0.3851 (Simulation time: 02 hr 01 min 55 sec)
Heartbeat CPU 0 instructions: 490000086 cycles: 1272326297 heartbeat IPC: 0.3866 cumulative IPC: 0.3851 (Simulation time: 02 hr 04 min 35 sec)
Heartbeat CPU 0 instructions: 500000086 cycles: 1298297127 heartbeat IPC: 0.385 cumulative IPC: 0.3851 (Simulation time: 02 hr 06 min 50 sec)
Heartbeat CPU 0 instructions: 510000087 cycles: 1324218765 heartbeat IPC: 0.3858 cumulative IPC: 0.3851 (Simulation time: 02 hr 08 min 58 sec)
[ERROR_CYCLE] Error added at CPU cycle 1337518359, next at 1338743607, pending count: 1
[DRAM_CYCLE_ERROR] Cycle-based error applied! address=0x29059c890 additional_latency=1990500 cycles
[ERROR_CYCLE] Error added at CPU cycle 1338743607, next at 1451238650, pending count: 1
[DRAM_CYCLE_ERROR] Cycle-based error applied! address=0x5d301a060 additional_latency=1990500 cycles
Heartbeat CPU 0 instructions: 520000087 cycles: 1350119906 heartbeat IPC: 0.3861 cumulative IPC: 0.3852 (Simulation time: 02 hr 11 min 06 sec)
Heartbeat CPU 0 instructions: 530000091 cycles: 1376030356 heartbeat IPC: 0.3859 cumulative IPC: 0.3852 (Simulation time: 02 hr 13 min 38 sec)
Heartbeat CPU 0 instructions: 540000093 cycles: 1402017132 heartbeat IPC: 0.3848 cumulative IPC: 0.3852 (Simulation time: 02 hr 16 min 10 sec)
Heartbeat CPU 0 instructions: 550000093 cycles: 1427926019 heartbeat IPC: 0.386 cumulative IPC: 0.3852 (Simulation time: 02 hr 18 min 48 sec)
[ERROR_CYCLE] Error added at CPU cycle 1451238650, next at 1516871150, pending count: 1
[DRAM_CYCLE_ERROR] Cycle-based error applied! address=0xe76f48e80 additional_latency=1990500 cycles
Heartbeat CPU 0 instructions: 560000095 cycles: 1453873324 heartbeat IPC: 0.3854 cumulative IPC: 0.3852 (Simulation time: 02 hr 20 min 54 sec)
Heartbeat CPU 0 instructions: 570000095 cycles: 1479813657 heartbeat IPC: 0.3855 cumulative IPC: 0.3852 (Simulation time: 02 hr 22 min 54 sec)
Heartbeat CPU 0 instructions: 580000099 cycles: 1505759720 heartbeat IPC: 0.3854 cumulative IPC: 0.3852 (Simulation time: 02 hr 25 min 16 sec)
[ERROR_CYCLE] Error added at CPU cycle 1516871150, next at 1895264846, pending count: 1
[DRAM_CYCLE_ERROR] Cycle-based error applied! address=0x32da61d08 additional_latency=1990500 cycles
Heartbeat CPU 0 instructions: 590000102 cycles: 1531700287 heartbeat IPC: 0.3855 cumulative IPC: 0.3852 (Simulation time: 02 hr 27 min 55 sec)
Heartbeat CPU 0 instructions: 600000104 cycles: 1557687404 heartbeat IPC: 0.3848 cumulative IPC: 0.3852 (Simulation time: 02 hr 30 min 34 sec)
Heartbeat CPU 0 instructions: 610000105 cycles: 1583682991 heartbeat IPC: 0.3847 cumulative IPC: 0.3852 (Simulation time: 02 hr 33 min 15 sec)
Heartbeat CPU 0 instructions: 620000107 cycles: 1611631160 heartbeat IPC: 0.3578 cumulative IPC: 0.3847 (Simulation time: 02 hr 36 min 07 sec)
Heartbeat CPU 0 instructions: 630000107 cycles: 1638369663 heartbeat IPC: 0.374 cumulative IPC: 0.3845 (Simulation time: 02 hr 38 min 51 sec)
Heartbeat CPU 0 instructions: 640000107 cycles: 1664656597 heartbeat IPC: 0.3804 cumulative IPC: 0.3845 (Simulation time: 02 hr 41 min 32 sec)
Heartbeat CPU 0 instructions: 650000107 cycles: 1691156849 heartbeat IPC: 0.3774 cumulative IPC: 0.3844 (Simulation time: 02 hr 44 min 16 sec)
Heartbeat CPU 0 instructions: 660000108 cycles: 1717228187 heartbeat IPC: 0.3836 cumulative IPC: 0.3843 (Simulation time: 02 hr 46 min 57 sec)
Heartbeat CPU 0 instructions: 670000109 cycles: 1743218578 heartbeat IPC: 0.3848 cumulative IPC: 0.3843 (Simulation time: 02 hr 49 min 02 sec)
Heartbeat CPU 0 instructions: 680000110 cycles: 1769172826 heartbeat IPC: 0.3853 cumulative IPC: 0.3844 (Simulation time: 02 hr 51 min 26 sec)
Heartbeat CPU 0 instructions: 690000111 cycles: 1795039424 heartbeat IPC: 0.3866 cumulative IPC: 0.3844 (Simulation time: 02 hr 53 min 09 sec)
Heartbeat CPU 0 instructions: 700000115 cycles: 1820897733 heartbeat IPC: 0.3867 cumulative IPC: 0.3844 (Simulation time: 02 hr 55 min 22 sec)
Heartbeat CPU 0 instructions: 710000116 cycles: 1846760840 heartbeat IPC: 0.3867 cumulative IPC: 0.3845 (Simulation time: 02 hr 58 min 00 sec)
Heartbeat CPU 0 instructions: 720000117 cycles: 1872620409 heartbeat IPC: 0.3867 cumulative IPC: 0.3845 (Simulation time: 03 hr 00 min 38 sec)
[ERROR_CYCLE] Error added at CPU cycle 1895264846, next at 1918959287, pending count: 1
[DRAM_CYCLE_ERROR] Cycle-based error applied! address=0x5b70a7310 additional_latency=1990500 cycles
Heartbeat CPU 0 instructions: 730000120 cycles: 1898533020 heartbeat IPC: 0.3859 cumulative IPC: 0.3845 (Simulation time: 03 hr 03 min 16 sec)
[ERROR_CYCLE] Error added at CPU cycle 1918959288, next at 1942970277, pending count: 1
[DRAM_CYCLE_ERROR] Cycle-based error applied! address=0x52b6442a0 additional_latency=1990500 cycles
Heartbeat CPU 0 instructions: 740000121 cycles: 1924523417 heartbeat IPC: 0.3848 cumulative IPC: 0.3845 (Simulation time: 03 hr 05 min 55 sec)
[ERROR_CYCLE] Error added at CPU cycle 1942970277, next at 2231190340, pending count: 1
[DRAM_CYCLE_ERROR] Cycle-based error applied! address=0xed7e92380 additional_latency=1990500 cycles
Heartbeat CPU 0 instructions: 750000122 cycles: 1950492433 heartbeat IPC: 0.3851 cumulative IPC: 0.3845 (Simulation time: 03 hr 08 min 34 sec)
Heartbeat CPU 0 instructions: 760000122 cycles: 1976458459 heartbeat IPC: 0.3851 cumulative IPC: 0.3845 (Simulation time: 03 hr 11 min 12 sec)
Heartbeat CPU 0 instructions: 770000122 cycles: 2002379830 heartbeat IPC: 0.3858 cumulative IPC: 0.3845 (Simulation time: 03 hr 13 min 26 sec)
Heartbeat CPU 0 instructions: 780000124 cycles: 2028302365 heartbeat IPC: 0.3858 cumulative IPC: 0.3846 (Simulation time: 03 hr 16 min 04 sec)
Heartbeat CPU 0 instructions: 790000127 cycles: 2054168420 heartbeat IPC: 0.3866 cumulative IPC: 0.3846 (Simulation time: 03 hr 18 min 42 sec)
Heartbeat CPU 0 instructions: 800000128 cycles: 2080128980 heartbeat IPC: 0.3852 cumulative IPC: 0.3846 (Simulation time: 03 hr 21 min 20 sec)
Heartbeat CPU 0 instructions: 810000128 cycles: 2106053919 heartbeat IPC: 0.3857 cumulative IPC: 0.3846 (Simulation time: 03 hr 23 min 58 sec)
Heartbeat CPU 0 instructions: 820000128 cycles: 2132000887 heartbeat IPC: 0.3854 cumulative IPC: 0.3846 (Simulation time: 03 hr 26 min 36 sec)
Heartbeat CPU 0 instructions: 830000128 cycles: 2157930140 heartbeat IPC: 0.3857 cumulative IPC: 0.3846 (Simulation time: 03 hr 29 min 15 sec)
Heartbeat CPU 0 instructions: 840000128 cycles: 2183869652 heartbeat IPC: 0.3855 cumulative IPC: 0.3846 (Simulation time: 03 hr 31 min 53 sec)
Heartbeat CPU 0 instructions: 850000131 cycles: 2209818108 heartbeat IPC: 0.3854 cumulative IPC: 0.3846 (Simulation time: 03 hr 34 min 30 sec)
[ERROR_CYCLE] Error added at CPU cycle 2231190341, next at 2270667087, pending count: 1
[DRAM_CYCLE_ERROR] Cycle-based error applied! address=0x9246dfe08 additional_latency=1990500 cycles
Heartbeat CPU 0 instructions: 860000134 cycles: 2235678291 heartbeat IPC: 0.3867 cumulative IPC: 0.3847 (Simulation time: 03 hr 37 min 08 sec)
Heartbeat CPU 0 instructions: 870000134 cycles: 2261559315 heartbeat IPC: 0.3864 cumulative IPC: 0.3847 (Simulation time: 03 hr 39 min 45 sec)
[ERROR_CYCLE] Error added at CPU cycle 2270667087, next at 2698464924, pending count: 1
[DRAM_CYCLE_ERROR] Cycle-based error applied! address=0x714048c48 additional_latency=1990500 cycles
Heartbeat CPU 0 instructions: 880000136 cycles: 2287422716 heartbeat IPC: 0.3866 cumulative IPC: 0.3847 (Simulation time: 03 hr 42 min 22 sec)
Heartbeat CPU 0 instructions: 890000137 cycles: 2313328681 heartbeat IPC: 0.386 cumulative IPC: 0.3847 (Simulation time: 03 hr 44 min 48 sec)
Heartbeat CPU 0 instructions: 900000137 cycles: 2339215770 heartbeat IPC: 0.3863 cumulative IPC: 0.3847 (Simulation time: 03 hr 46 min 52 sec)
Heartbeat CPU 0 instructions: 910000140 cycles: 2365101890 heartbeat IPC: 0.3863 cumulative IPC: 0.3848 (Simulation time: 03 hr 49 min 06 sec)
Heartbeat CPU 0 instructions: 920000140 cycles: 2390975069 heartbeat IPC: 0.3865 cumulative IPC: 0.3848 (Simulation time: 03 hr 51 min 40 sec)
Heartbeat CPU 0 instructions: 930000140 cycles: 2416845564 heartbeat IPC: 0.3865 cumulative IPC: 0.3848 (Simulation time: 03 hr 54 min 13 sec)
Heartbeat CPU 0 instructions: 940000144 cycles: 2442735043 heartbeat IPC: 0.3863 cumulative IPC: 0.3848 (Simulation time: 03 hr 56 min 47 sec)
Heartbeat CPU 0 instructions: 950000147 cycles: 2468607225 heartbeat IPC: 0.3865 cumulative IPC: 0.3848 (Simulation time: 03 hr 59 min 21 sec)
Heartbeat CPU 0 instructions: 960000147 cycles: 2494483643 heartbeat IPC: 0.3865 cumulative IPC: 0.3848 (Simulation time: 04 hr 01 min 55 sec)
Heartbeat CPU 0 instructions: 970000149 cycles: 2520344615 heartbeat IPC: 0.3867 cumulative IPC: 0.3849 (Simulation time: 04 hr 04 min 29 sec)
Heartbeat CPU 0 instructions: 980000150 cycles: 2546214212 heartbeat IPC: 0.3866 cumulative IPC: 0.3849 (Simulation time: 04 hr 07 min 03 sec)
Heartbeat CPU 0 instructions: 990000150 cycles: 2572066387 heartbeat IPC: 0.3868 cumulative IPC: 0.3849 (Simulation time: 04 hr 09 min 35 sec)
Heartbeat CPU 0 instructions: 1000000152 cycles: 2597961147 heartbeat IPC: 0.3862 cumulative IPC: 0.3849 (Simulation time: 04 hr 11 min 52 sec)
Heartbeat CPU 0 instructions: 1010000153 cycles: 2623818401 heartbeat IPC: 0.3867 cumulative IPC: 0.3849 (Simulation time: 04 hr 14 min 10 sec)
Heartbeat CPU 0 instructions: 1020000155 cycles: 2649671207 heartbeat IPC: 0.3868 cumulative IPC: 0.385 (Simulation time: 04 hr 16 min 20 sec)
Heartbeat CPU 0 instructions: 1030000155 cycles: 2675540907 heartbeat IPC: 0.3866 cumulative IPC: 0.385 (Simulation time: 04 hr 18 min 26 sec)
[ERROR_CYCLE] Error added at CPU cycle 2698464925, next at 2755971727, pending count: 1
[DRAM_CYCLE_ERROR] Cycle-based error applied! address=0x354ea0488 additional_latency=1990500 cycles
Heartbeat CPU 0 instructions: 1040000157 cycles: 2701420600 heartbeat IPC: 0.3864 cumulative IPC: 0.385 (Simulation time: 04 hr 20 min 55 sec)
Heartbeat CPU 0 instructions: 1050000160 cycles: 2727279123 heartbeat IPC: 0.3867 cumulative IPC: 0.385 (Simulation time: 04 hr 22 min 38 sec)
Heartbeat CPU 0 instructions: 1060000161 cycles: 2753164392 heartbeat IPC: 0.3863 cumulative IPC: 0.385 (Simulation time: 04 hr 25 min 06 sec)
[ERROR_CYCLE] Error added at CPU cycle 2755971728, next at 3092316377, pending count: 1
[DRAM_CYCLE_ERROR] Cycle-based error applied! address=0x4455c8320 additional_latency=1990500 cycles
Heartbeat CPU 0 instructions: 1070000162 cycles: 2779032909 heartbeat IPC: 0.3866 cumulative IPC: 0.385 (Simulation time: 04 hr 27 min 23 sec)
Heartbeat CPU 0 instructions: 1080000163 cycles: 2804916464 heartbeat IPC: 0.3863 cumulative IPC: 0.385 (Simulation time: 04 hr 29 min 51 sec)
Heartbeat CPU 0 instructions: 1090000163 cycles: 2830786503 heartbeat IPC: 0.3865 cumulative IPC: 0.3851 (Simulation time: 04 hr 32 min 01 sec)
Heartbeat CPU 0 instructions: 1100000164 cycles: 2856698614 heartbeat IPC: 0.3859 cumulative IPC: 0.3851 (Simulation time: 04 hr 34 min 35 sec)
Heartbeat CPU 0 instructions: 1110000164 cycles: 2882587530 heartbeat IPC: 0.3863 cumulative IPC: 0.3851 (Simulation time: 04 hr 37 min 10 sec)
Heartbeat CPU 0 instructions: 1120000166 cycles: 2908461468 heartbeat IPC: 0.3865 cumulative IPC: 0.3851 (Simulation time: 04 hr 39 min 44 sec)
Heartbeat CPU 0 instructions: 1130000166 cycles: 2934324828 heartbeat IPC: 0.3866 cumulative IPC: 0.3851 (Simulation time: 04 hr 42 min 19 sec)
Heartbeat CPU 0 instructions: 1140000169 cycles: 2960186745 heartbeat IPC: 0.3867 cumulative IPC: 0.3851 (Simulation time: 04 hr 44 min 54 sec)
Heartbeat CPU 0 instructions: 1150000169 cycles: 2986119474 heartbeat IPC: 0.3856 cumulative IPC: 0.3851 (Simulation time: 04 hr 47 min 28 sec)
Heartbeat CPU 0 instructions: 1160000171 cycles: 3012006545 heartbeat IPC: 0.3863 cumulative IPC: 0.3851 (Simulation time: 04 hr 50 min 04 sec)
Heartbeat CPU 0 instructions: 1170000172 cycles: 3037653938 heartbeat IPC: 0.3899 cumulative IPC: 0.3852 (Simulation time: 04 hr 52 min 37 sec)
Heartbeat CPU 0 instructions: 1180000173 cycles: 3063482676 heartbeat IPC: 0.3872 cumulative IPC: 0.3852 (Simulation time: 04 hr 55 min 05 sec)
Heartbeat CPU 0 instructions: 1190000173 cycles: 3089349920 heartbeat IPC: 0.3866 cumulative IPC: 0.3852 (Simulation time: 04 hr 57 min 39 sec)
[ERROR_CYCLE] Error added at CPU cycle 3092316378, next at 3122147631, pending count: 1
[DRAM_CYCLE_ERROR] Cycle-based error applied! address=0x208f42a90 additional_latency=1990500 cycles
Heartbeat CPU 0 instructions: 1200000173 cycles: 3115209052 heartbeat IPC: 0.3867 cumulative IPC: 0.3852 (Simulation time: 05 hr 00 min 14 sec)
[ERROR_CYCLE] Error added at CPU cycle 3122147631, next at 3264845189, pending count: 1
[DRAM_CYCLE_ERROR] Cycle-based error applied! address=0x4c0165d10 additional_latency=1990500 cycles
Heartbeat CPU 0 instructions: 1210000174 cycles: 3141094442 heartbeat IPC: 0.3863 cumulative IPC: 0.3852 (Simulation time: 05 hr 02 min 49 sec)
Heartbeat CPU 0 instructions: 1220000178 cycles: 3166961340 heartbeat IPC: 0.3866 cumulative IPC: 0.3852 (Simulation time: 05 hr 05 min 25 sec)
Heartbeat CPU 0 instructions: 1230000181 cycles: 3192716645 heartbeat IPC: 0.3883 cumulative IPC: 0.3853 (Simulation time: 05 hr 07 min 59 sec)
Heartbeat CPU 0 instructions: 1240000182 cycles: 3218543368 heartbeat IPC: 0.3872 cumulative IPC: 0.3853 (Simulation time: 05 hr 10 min 33 sec)
Heartbeat CPU 0 instructions: 1250000185 cycles: 3244412360 heartbeat IPC: 0.3866 cumulative IPC: 0.3853 (Simulation time: 05 hr 13 min 09 sec)
[ERROR_CYCLE] Error added at CPU cycle 3264845189, next at 3286192607, pending count: 1
[DRAM_CYCLE_ERROR] Cycle-based error applied! address=0x965a20a00 additional_latency=1990500 cycles
Heartbeat CPU 0 instructions: 1260000185 cycles: 3270208044 heartbeat IPC: 0.3877 cumulative IPC: 0.3853 (Simulation time: 05 hr 15 min 42 sec)
[ERROR_CYCLE] Error added at CPU cycle 3286192607, next at 3319453415, pending count: 1
[DRAM_CYCLE_ERROR] Cycle-based error applied! address=0x1b9dac40 additional_latency=1990500 cycles
Heartbeat CPU 0 instructions: 1270000185 cycles: 3296079652 heartbeat IPC: 0.3865 cumulative IPC: 0.3853 (Simulation time: 05 hr 17 min 57 sec)
[ERROR_CYCLE] Error added at CPU cycle 3319453416, next at 3466220204, pending count: 1
[DRAM_CYCLE_ERROR] Cycle-based error applied! address=0x669435dc0 additional_latency=1990500 cycles
Heartbeat CPU 0 instructions: 1280000186 cycles: 3322040551 heartbeat IPC: 0.3852 cumulative IPC: 0.3853 (Simulation time: 05 hr 20 min 38 sec)
Heartbeat CPU 0 instructions: 1290000186 cycles: 3348037341 heartbeat IPC: 0.3847 cumulative IPC: 0.3853 (Simulation time: 05 hr 23 min 18 sec)
Heartbeat CPU 0 instructions: 1300000190 cycles: 3373939437 heartbeat IPC: 0.3861 cumulative IPC: 0.3853 (Simulation time: 05 hr 25 min 58 sec)
Heartbeat CPU 0 instructions: 1310000190 cycles: 3399922571 heartbeat IPC: 0.3849 cumulative IPC: 0.3853 (Simulation time: 05 hr 28 min 38 sec)
Heartbeat CPU 0 instructions: 1320000190 cycles: 3425893109 heartbeat IPC: 0.3851 cumulative IPC: 0.3853 (Simulation time: 05 hr 31 min 18 sec)
Heartbeat CPU 0 instructions: 1330000190 cycles: 3451864093 heartbeat IPC: 0.385 cumulative IPC: 0.3853 (Simulation time: 05 hr 33 min 47 sec)
[ERROR_CYCLE] Error added at CPU cycle 3466220204, next at 3467041744, pending count: 1
[DRAM_CYCLE_ERROR] Cycle-based error applied! address=0xa9cde78e0 additional_latency=1990500 cycles
[ERROR_CYCLE] Error added at CPU cycle 3467041745, next at 3510555606, pending count: 1
[DRAM_CYCLE_ERROR] Cycle-based error applied! address=0x7745c3c0 additional_latency=1990500 cycles
Heartbeat CPU 0 instructions: 1340000190 cycles: 3477758539 heartbeat IPC: 0.3862 cumulative IPC: 0.3853 (Simulation time: 05 hr 35 min 53 sec)
Heartbeat CPU 0 instructions: 1350000192 cycles: 3503604975 heartbeat IPC: 0.3869 cumulative IPC: 0.3853 (Simulation time: 05 hr 38 min 32 sec)
[ERROR_CYCLE] Error added at CPU cycle 3510555606, next at 3537155222, pending count: 1
[DRAM_CYCLE_ERROR] Cycle-based error applied! address=0x3057013c0 additional_latency=1990500 cycles
Heartbeat CPU 0 instructions: 1360000193 cycles: 3529466424 heartbeat IPC: 0.3867 cumulative IPC: 0.3853 (Simulation time: 05 hr 41 min 11 sec)
[ERROR_CYCLE] Error added at CPU cycle 3537155222, next at 3585785737, pending count: 1
[DRAM_CYCLE_ERROR] Cycle-based error applied! address=0xee8663d08 additional_latency=1990500 cycles
Heartbeat CPU 0 instructions: 1370000194 cycles: 3555387535 heartbeat IPC: 0.3858 cumulative IPC: 0.3853 (Simulation time: 05 hr 43 min 51 sec)
Heartbeat CPU 0 instructions: 1380000197 cycles: 3581288443 heartbeat IPC: 0.3861 cumulative IPC: 0.3853 (Simulation time: 05 hr 46 min 30 sec)
[ERROR_CYCLE] Error added at CPU cycle 3585785738, next at 3597340865, pending count: 1
[DRAM_CYCLE_ERROR] Cycle-based error applied! address=0xb5de3aea0 additional_latency=1990500 cycles
[ERROR_CYCLE] Error added at CPU cycle 3597340865, next at 3649655661, pending count: 1
[DRAM_CYCLE_ERROR] Cycle-based error applied! address=0x1e56e80d8 additional_latency=1990500 cycles
Heartbeat CPU 0 instructions: 1390000201 cycles: 3607149308 heartbeat IPC: 0.3867 cumulative IPC: 0.3853 (Simulation time: 05 hr 49 min 09 sec)
Heartbeat CPU 0 instructions: 1400000204 cycles: 3633031731 heartbeat IPC: 0.3864 cumulative IPC: 0.3854 (Simulation time: 05 hr 51 min 48 sec)
[ERROR_CYCLE] Error added at CPU cycle 3649655661, next at 3701638822, pending count: 1
[DRAM_CYCLE_ERROR] Cycle-based error applied! address=0x62d7bd308 additional_latency=1990500 cycles
Heartbeat CPU 0 instructions: 1410000206 cycles: 3658955047 heartbeat IPC: 0.3858 cumulative IPC: 0.3854 (Simulation time: 05 hr 54 min 27 sec)
Heartbeat CPU 0 instructions: 1420000206 cycles: 3685015004 heartbeat IPC: 0.3837 cumulative IPC: 0.3853 (Simulation time: 05 hr 56 min 57 sec)
[ERROR_CYCLE] Error added at CPU cycle 3701638823, next at 3848616932, pending count: 1
[DRAM_CYCLE_ERROR] Cycle-based error applied! address=0xbb210cbd8 additional_latency=1990500 cycles
Heartbeat CPU 0 instructions: 1430000209 cycles: 3711207063 heartbeat IPC: 0.3818 cumulative IPC: 0.3853 (Simulation time: 05 hr 59 min 33 sec)
Heartbeat CPU 0 instructions: 1440000211 cycles: 3739078516 heartbeat IPC: 0.3588 cumulative IPC: 0.3851 (Simulation time: 06 hr 02 min 24 sec)
Heartbeat CPU 0 instructions: 1450000214 cycles: 3764722882 heartbeat IPC: 0.3899 cumulative IPC: 0.3852 (Simulation time: 06 hr 05 min 03 sec)
Heartbeat CPU 0 instructions: 1460000214 cycles: 3790631398 heartbeat IPC: 0.386 cumulative IPC: 0.3852 (Simulation time: 06 hr 07 min 43 sec)
Heartbeat CPU 0 instructions: 1470000214 cycles: 3816533238 heartbeat IPC: 0.3861 cumulative IPC: 0.3852 (Simulation time: 06 hr 10 min 22 sec)
Heartbeat CPU 0 instructions: 1480000216 cycles: 3842431285 heartbeat IPC: 0.3861 cumulative IPC: 0.3852 (Simulation time: 06 hr 13 min 02 sec)
[ERROR_CYCLE] Error added at CPU cycle 3848616932, next at 4033050581, pending count: 1
[DRAM_CYCLE_ERROR] Cycle-based error applied! address=0xe788c3760 additional_latency=1990500 cycles
Heartbeat CPU 0 instructions: 1490000220 cycles: 3868319621 heartbeat IPC: 0.3863 cumulative IPC: 0.3852 (Simulation time: 06 hr 15 min 41 sec)
Heartbeat CPU 0 instructions: 1500000220 cycles: 3894199908 heartbeat IPC: 0.3864 cumulative IPC: 0.3852 (Simulation time: 06 hr 18 min 21 sec)
Heartbeat CPU 0 instructions: 1510000220 cycles: 3920057520 heartbeat IPC: 0.3867 cumulative IPC: 0.3852 (Simulation time: 06 hr 21 min 00 sec)
Heartbeat CPU 0 instructions: 1520000222 cycles: 3946005462 heartbeat IPC: 0.3854 cumulative IPC: 0.3852 (Simulation time: 06 hr 23 min 41 sec)
Heartbeat CPU 0 instructions: 1530000222 cycles: 3971951194 heartbeat IPC: 0.3854 cumulative IPC: 0.3852 (Simulation time: 06 hr 26 min 20 sec)
Heartbeat CPU 0 instructions: 1540000223 cycles: 3997781413 heartbeat IPC: 0.3871 cumulative IPC: 0.3852 (Simulation time: 06 hr 29 min 00 sec)
Heartbeat CPU 0 instructions: 1550000223 cycles: 4023465086 heartbeat IPC: 0.3894 cumulative IPC: 0.3852 (Simulation time: 06 hr 31 min 39 sec)
[ERROR_CYCLE] Error added at CPU cycle 4033050581, next at 4082991065, pending count: 1
[DRAM_CYCLE_ERROR] Cycle-based error applied! address=0x821e76d88 additional_latency=1990500 cycles
Heartbeat CPU 0 instructions: 1560000225 cycles: 4049266262 heartbeat IPC: 0.3876 cumulative IPC: 0.3853 (Simulation time: 06 hr 34 min 19 sec)
Heartbeat CPU 0 instructions: 1570000225 cycles: 4075002077 heartbeat IPC: 0.3886 cumulative IPC: 0.3853 (Simulation time: 06 hr 36 min 58 sec)
[ERROR_CYCLE] Error added at CPU cycle 4082991065, next at 4145788688, pending count: 1
[DRAM_CYCLE_ERROR] Cycle-based error applied! address=0x3f3351888 additional_latency=1990500 cycles
Heartbeat CPU 0 instructions: 1580000227 cycles: 4100788779 heartbeat IPC: 0.3878 cumulative IPC: 0.3853 (Simulation time: 06 hr 39 min 37 sec)
Heartbeat CPU 0 instructions: 1590000231 cycles: 4126564792 heartbeat IPC: 0.388 cumulative IPC: 0.3853 (Simulation time: 06 hr 42 min 16 sec)
[ERROR_CYCLE] Error added at CPU cycle 4145788689, next at 4156772762, pending count: 1
[DRAM_CYCLE_ERROR] Cycle-based error applied! address=0xad0b85048 additional_latency=1990500 cycles
Heartbeat CPU 0 instructions: 1600000231 cycles: 4152351267 heartbeat IPC: 0.3878 cumulative IPC: 0.3853 (Simulation time: 06 hr 44 min 55 sec)
[ERROR_CYCLE] Error added at CPU cycle 4156772763, next at 4177939809, pending count: 1
[DRAM_CYCLE_ERROR] Cycle-based error applied! address=0x3be441d40 additional_latency=1990500 cycles
[ERROR_CYCLE] Error added at CPU cycle 4177939810, next at 4289621722, pending count: 1
[DRAM_CYCLE_ERROR] Cycle-based error applied! address=0x919f70e40 additional_latency=1990500 cycles
Heartbeat CPU 0 instructions: 1610000231 cycles: 4178145233 heartbeat IPC: 0.3877 cumulative IPC: 0.3853 (Simulation time: 06 hr 47 min 34 sec)
Heartbeat CPU 0 instructions: 1620000232 cycles: 4203923775 heartbeat IPC: 0.3879 cumulative IPC: 0.3854 (Simulation time: 06 hr 50 min 14 sec)
Heartbeat CPU 0 instructions: 1630000233 cycles: 4229717521 heartbeat IPC: 0.3877 cumulative IPC: 0.3854 (Simulation time: 06 hr 52 min 53 sec)
Heartbeat CPU 0 instructions: 1640000234 cycles: 4255509689 heartbeat IPC: 0.3877 cumulative IPC: 0.3854 (Simulation time: 06 hr 55 min 32 sec)
Heartbeat CPU 0 instructions: 1650000235 cycles: 4281308067 heartbeat IPC: 0.3876 cumulative IPC: 0.3854 (Simulation time: 06 hr 58 min 12 sec)
[ERROR_CYCLE] Error added at CPU cycle 4289621722, next at 4353987313, pending count: 1
[DRAM_CYCLE_ERROR] Cycle-based error applied! address=0x5b2fbad98 additional_latency=1990500 cycles
Heartbeat CPU 0 instructions: 1660000235 cycles: 4307098869 heartbeat IPC: 0.3877 cumulative IPC: 0.3854 (Simulation time: 07 hr 00 min 50 sec)
Heartbeat CPU 0 instructions: 1670000235 cycles: 4332886407 heartbeat IPC: 0.3878 cumulative IPC: 0.3854 (Simulation time: 07 hr 03 min 13 sec)
[ERROR_CYCLE] Error added at CPU cycle 4353987314, next at 4515705633, pending count: 1
[DRAM_CYCLE_ERROR] Cycle-based error applied! address=0x6769601c8 additional_latency=1990500 cycles
Heartbeat CPU 0 instructions: 1680000237 cycles: 4358678132 heartbeat IPC: 0.3877 cumulative IPC: 0.3854 (Simulation time: 07 hr 05 min 36 sec)
Heartbeat CPU 0 instructions: 1690000237 cycles: 4384480586 heartbeat IPC: 0.3876 cumulative IPC: 0.3855 (Simulation time: 07 hr 08 min 15 sec)
Heartbeat CPU 0 instructions: 1700000241 cycles: 4410261719 heartbeat IPC: 0.3879 cumulative IPC: 0.3855 (Simulation time: 07 hr 10 min 54 sec)
Heartbeat CPU 0 instructions: 1710000242 cycles: 4436031987 heartbeat IPC: 0.388 cumulative IPC: 0.3855 (Simulation time: 07 hr 13 min 26 sec)
Heartbeat CPU 0 instructions: 1720000243 cycles: 4461789492 heartbeat IPC: 0.3882 cumulative IPC: 0.3855 (Simulation time: 07 hr 15 min 40 sec)
Heartbeat CPU 0 instructions: 1730000243 cycles: 4487583034 heartbeat IPC: 0.3877 cumulative IPC: 0.3855 (Simulation time: 07 hr 18 min 05 sec)
Heartbeat CPU 0 instructions: 1740000246 cycles: 4513374826 heartbeat IPC: 0.3877 cumulative IPC: 0.3855 (Simulation time: 07 hr 20 min 30 sec)
[ERROR_CYCLE] Error added at CPU cycle 4515705633, next at 4544161953, pending count: 1
[DRAM_CYCLE_ERROR] Cycle-based error applied! address=0xa2f5e33c0 additional_latency=1990500 cycles
Heartbeat CPU 0 instructions: 1750000247 cycles: 4539168247 heartbeat IPC: 0.3877 cumulative IPC: 0.3855 (Simulation time: 07 hr 22 min 21 sec)
[ERROR_CYCLE] Error added at CPU cycle 4544161954, next at 4679432926, pending count: 1
[DRAM_CYCLE_ERROR] Cycle-based error applied! address=0xe05566fc0 additional_latency=1990500 cycles
Heartbeat CPU 0 instructions: 1760000248 cycles: 4564964597 heartbeat IPC: 0.3877 cumulative IPC: 0.3855 (Simulation time: 07 hr 24 min 34 sec)
Heartbeat CPU 0 instructions: 1770000252 cycles: 4590749008 heartbeat IPC: 0.3878 cumulative IPC: 0.3856 (Simulation time: 07 hr 26 min 28 sec)
Heartbeat CPU 0 instructions: 1780000252 cycles: 4616543585 heartbeat IPC: 0.3877 cumulative IPC: 0.3856 (Simulation time: 07 hr 28 min 47 sec)
Heartbeat CPU 0 instructions: 1790000252 cycles: 4642339874 heartbeat IPC: 0.3877 cumulative IPC: 0.3856 (Simulation time: 07 hr 31 min 06 sec)
Heartbeat CPU 0 instructions: 1800000252 cycles: 4668148317 heartbeat IPC: 0.3875 cumulative IPC: 0.3856 (Simulation time: 07 hr 33 min 45 sec)
[ERROR_CYCLE] Error added at CPU cycle 4679432927, next at 4791503551, pending count: 1
[DRAM_CYCLE_ERROR] Cycle-based error applied! address=0x57cfa39c8 additional_latency=1990500 cycles
Heartbeat CPU 0 instructions: 1810000253 cycles: 4693936853 heartbeat IPC: 0.3878 cumulative IPC: 0.3856 (Simulation time: 07 hr 36 min 24 sec)
Heartbeat CPU 0 instructions: 1820000255 cycles: 4719698988 heartbeat IPC: 0.3882 cumulative IPC: 0.3856 (Simulation time: 07 hr 38 min 53 sec)
Heartbeat CPU 0 instructions: 1830000257 cycles: 4745494347 heartbeat IPC: 0.3877 cumulative IPC: 0.3856 (Simulation time: 07 hr 41 min 19 sec)
Heartbeat CPU 0 instructions: 1840000259 cycles: 4771262300 heartbeat IPC: 0.3881 cumulative IPC: 0.3856 (Simulation time: 07 hr 43 min 27 sec)
[ERROR_CYCLE] Error added at CPU cycle 4791503551, next at 4898188099, pending count: 1
[DRAM_CYCLE_ERROR] Cycle-based error applied! address=0x5d4e2cbd8 additional_latency=1990500 cycles
Heartbeat CPU 0 instructions: 1850000259 cycles: 4797050510 heartbeat IPC: 0.3878 cumulative IPC: 0.3857 (Simulation time: 07 hr 45 min 29 sec)
Heartbeat CPU 0 instructions: 1860000262 cycles: 4822838590 heartbeat IPC: 0.3878 cumulative IPC: 0.3857 (Simulation time: 07 hr 47 min 44 sec)
Heartbeat CPU 0 instructions: 1870000263 cycles: 4848627688 heartbeat IPC: 0.3878 cumulative IPC: 0.3857 (Simulation time: 07 hr 50 min 07 sec)
Heartbeat CPU 0 instructions: 1880000264 cycles: 4874432216 heartbeat IPC: 0.3875 cumulative IPC: 0.3857 (Simulation time: 07 hr 52 min 43 sec)
[ERROR_CYCLE] Error added at CPU cycle 4898188099, next at 4921993944, pending count: 1
[DRAM_CYCLE_ERROR] Cycle-based error applied! address=0x32d82c380 additional_latency=1990500 cycles
Heartbeat CPU 0 instructions: 1890000267 cycles: 4900222732 heartbeat IPC: 0.3877 cumulative IPC: 0.3857 (Simulation time: 07 hr 55 min 12 sec)
[ERROR_CYCLE] Error added at CPU cycle 4921993944, next at 5011050687, pending count: 1
[DRAM_CYCLE_ERROR] Cycle-based error applied! address=0x85c8034a0 additional_latency=1990500 cycles
Heartbeat CPU 0 instructions: 1900000271 cycles: 4926024345 heartbeat IPC: 0.3876 cumulative IPC: 0.3857 (Simulation time: 07 hr 57 min 48 sec)
Heartbeat CPU 0 instructions: 1910000274 cycles: 4951825341 heartbeat IPC: 0.3876 cumulative IPC: 0.3857 (Simulation time: 08 hr 00 min 29 sec)
Heartbeat CPU 0 instructions: 1920000278 cycles: 4977563343 heartbeat IPC: 0.3885 cumulative IPC: 0.3857 (Simulation time: 08 hr 03 min 10 sec)
Heartbeat CPU 0 instructions: 1930000280 cycles: 5003365410 heartbeat IPC: 0.3876 cumulative IPC: 0.3857 (Simulation time: 08 hr 05 min 36 sec)
[ERROR_CYCLE] Error added at CPU cycle 5011050688, next at 5164139440, pending count: 1
[DRAM_CYCLE_ERROR] Cycle-based error applied! address=0xf66abc1c8 additional_latency=1990500 cycles
Heartbeat CPU 0 instructions: 1940000280 cycles: 5029162859 heartbeat IPC: 0.3876 cumulative IPC: 0.3858 (Simulation time: 08 hr 08 min 06 sec)
Heartbeat CPU 0 instructions: 1950000281 cycles: 5054909041 heartbeat IPC: 0.3884 cumulative IPC: 0.3858 (Simulation time: 08 hr 10 min 05 sec)
Heartbeat CPU 0 instructions: 1960000284 cycles: 5080668545 heartbeat IPC: 0.3882 cumulative IPC: 0.3858 (Simulation time: 08 hr 12 min 38 sec)
Heartbeat CPU 0 instructions: 1970000284 cycles: 5106432894 heartbeat IPC: 0.3881 cumulative IPC: 0.3858 (Simulation time: 08 hr 15 min 19 sec)
Heartbeat CPU 0 instructions: 1980000285 cycles: 5132228652 heartbeat IPC: 0.3877 cumulative IPC: 0.3858 (Simulation time: 08 hr 18 min 00 sec)
Heartbeat CPU 0 instructions: 1990000285 cycles: 5158032384 heartbeat IPC: 0.3875 cumulative IPC: 0.3858 (Simulation time: 08 hr 20 min 40 sec)
[ERROR_CYCLE] Error added at CPU cycle 5164139440, next at 5232581492, pending count: 1
[DRAM_CYCLE_ERROR] Cycle-based error applied! address=0xd6ef206d0 additional_latency=1990500 cycles

=== ERROR PAGE STATISTICS ===
Mode: CYCLE
Error Cycle Interval: 100000000 CPU cycles
Total Error Accesses: 53
==============================
Simulation finished CPU 0 instructions: 1999999981 cycles: 5183810612 cumulative IPC: 0.3858 (Simulation time: 08 hr 23 min 21 sec)
Simulation complete CPU 0 instructions: 1999999981 cycles: 5183810612 cumulative IPC: 0.3858 (Simulation time: 08 hr 23 min 21 sec)

ChampSim completed all CPUs

=== Simulation ===
CPU 0 runs test_traces/602.gcc_s-1850B.champsimtrace.xz

Region of Interest Statistics

CPU 0 cumulative IPC: 0.3858 instructions: 1999999981 cycles: 5183810612
CPU 0 Branch Prediction Accuracy: 92.26% MPKI: 19.84 Average ROB Occupancy at Mispredict: 28.45
Branch type MPKI
BRANCH_DIRECT_JUMP: 0.0104
BRANCH_INDIRECT: 0
BRANCH_CONDITIONAL: 19.83
BRANCH_DIRECT_CALL: 8.5e-06
BRANCH_INDIRECT_CALL: 0
BRANCH_RETURN: 7e-06

cpu0->cpu0_STLB TOTAL        ACCESS:      15986 HIT:      12647 MISS:       3339 MSHR_MERGE:          0
cpu0->cpu0_STLB LOAD         ACCESS:      15986 HIT:      12647 MISS:       3339 MSHR_MERGE:          0
cpu0->cpu0_STLB RFO          ACCESS:          0 HIT:          0 MISS:          0 MSHR_MERGE:          0
cpu0->cpu0_STLB PREFETCH     ACCESS:          0 HIT:          0 MISS:          0 MSHR_MERGE:          0
cpu0->cpu0_STLB WRITE        ACCESS:          0 HIT:          0 MISS:          0 MSHR_MERGE:          0
cpu0->cpu0_STLB TRANSLATION  ACCESS:          0 HIT:          0 MISS:          0 MSHR_MERGE:          0
cpu0->cpu0_STLB PREFETCH REQUESTED:          0 ISSUED:          0 USEFUL:          0 USELESS:          0
cpu0->cpu0_STLB AVERAGE MISS LATENCY: 6453 cycles
cpu0->cpu0_L2C TOTAL        ACCESS:   48249161 HIT:   12598011 MISS:   35651150 MSHR_MERGE:          0
cpu0->cpu0_L2C LOAD         ACCESS:   48104275 HIT:   12470008 MISS:   35634267 MSHR_MERGE:          0
cpu0->cpu0_L2C RFO          ACCESS:      16945 HIT:        111 MISS:      16834 MSHR_MERGE:          0
cpu0->cpu0_L2C PREFETCH     ACCESS:          0 HIT:          0 MISS:          0 MSHR_MERGE:          0
cpu0->cpu0_L2C WRITE        ACCESS:     127941 HIT:     127892 MISS:         49 MSHR_MERGE:          0
cpu0->cpu0_L2C TRANSLATION  ACCESS:          0 HIT:          0 MISS:          0 MSHR_MERGE:          0
cpu0->cpu0_L2C PREFETCH REQUESTED:          0 ISSUED:          0 USEFUL:          0 USELESS:          0
cpu0->cpu0_L2C AVERAGE MISS LATENCY: 93.11 cycles
cpu0->cpu0_L1I TOTAL        ACCESS:      78291 HIT:      78231 MISS:         60 MSHR_MERGE:          3
cpu0->cpu0_L1I LOAD         ACCESS:      78291 HIT:      78231 MISS:         60 MSHR_MERGE:          3
cpu0->cpu0_L1I RFO          ACCESS:          0 HIT:          0 MISS:          0 MSHR_MERGE:          0
cpu0->cpu0_L1I PREFETCH     ACCESS:          0 HIT:          0 MISS:          0 MSHR_MERGE:          0
cpu0->cpu0_L1I WRITE        ACCESS:          0 HIT:          0 MISS:          0 MSHR_MERGE:          0
cpu0->cpu0_L1I TRANSLATION  ACCESS:          0 HIT:          0 MISS:          0 MSHR_MERGE:          0
cpu0->cpu0_L1I PREFETCH REQUESTED:          0 ISSUED:          0 USEFUL:          0 USELESS:          0
cpu0->cpu0_L1I AVERAGE MISS LATENCY: 103.9 cycles
cpu0->cpu0_L1D TOTAL        ACCESS:  605689872 HIT:  522317906 MISS:   83371966 MSHR_MERGE:   35250803
cpu0->cpu0_L1D LOAD         ACCESS:  433067316 HIT:  349712732 MISS:   83354584 MSHR_MERGE:   35250366
cpu0->cpu0_L1D RFO          ACCESS:          0 HIT:          0 MISS:          0 MSHR_MERGE:          0
cpu0->cpu0_L1D PREFETCH     ACCESS:          0 HIT:          0 MISS:          0 MSHR_MERGE:          0
cpu0->cpu0_L1D WRITE        ACCESS:  172622556 HIT:  172605174 MISS:      17382 MSHR_MERGE:        437
cpu0->cpu0_L1D TRANSLATION  ACCESS:          0 HIT:          0 MISS:          0 MSHR_MERGE:          0
cpu0->cpu0_L1D PREFETCH REQUESTED:          0 ISSUED:          0 USEFUL:          0 USELESS:          0
cpu0->cpu0_L1D AVERAGE MISS LATENCY: 77.73 cycles
cpu0->cpu0_ITLB TOTAL        ACCESS:      73616 HIT:      73613 MISS:          3 MSHR_MERGE:          1
cpu0->cpu0_ITLB LOAD         ACCESS:      73616 HIT:      73613 MISS:          3 MSHR_MERGE:          1
cpu0->cpu0_ITLB RFO          ACCESS:          0 HIT:          0 MISS:          0 MSHR_MERGE:          0
cpu0->cpu0_ITLB PREFETCH     ACCESS:          0 HIT:          0 MISS:          0 MSHR_MERGE:          0
cpu0->cpu0_ITLB WRITE        ACCESS:          0 HIT:          0 MISS:          0 MSHR_MERGE:          0
cpu0->cpu0_ITLB TRANSLATION  ACCESS:          0 HIT:          0 MISS:          0 MSHR_MERGE:          0
cpu0->cpu0_ITLB PREFETCH REQUESTED:          0 ISSUED:          0 USEFUL:          0 USELESS:          0
cpu0->cpu0_ITLB AVERAGE MISS LATENCY: 1.292e+04 cycles
cpu0->cpu0_DTLB TOTAL        ACCESS:  551964361 HIT:  551939664 MISS:      24697 MSHR_MERGE:       8713
cpu0->cpu0_DTLB LOAD         ACCESS:  551964361 HIT:  551939664 MISS:      24697 MSHR_MERGE:       8713
cpu0->cpu0_DTLB RFO          ACCESS:          0 HIT:          0 MISS:          0 MSHR_MERGE:          0
cpu0->cpu0_DTLB PREFETCH     ACCESS:          0 HIT:          0 MISS:          0 MSHR_MERGE:          0
cpu0->cpu0_DTLB WRITE        ACCESS:          0 HIT:          0 MISS:          0 MSHR_MERGE:          0
cpu0->cpu0_DTLB TRANSLATION  ACCESS:          0 HIT:          0 MISS:          0 MSHR_MERGE:          0
cpu0->cpu0_DTLB PREFETCH REQUESTED:          0 ISSUED:          0 USEFUL:          0 USELESS:          0
cpu0->cpu0_DTLB AVERAGE MISS LATENCY: 1352 cycles
cpu0->LLC TOTAL        ACCESS:   35701265 HIT:     113971 MISS:   35587294 MSHR_MERGE:          0
cpu0->LLC LOAD         ACCESS:   35634267 HIT:      63993 MISS:   35570274 MSHR_MERGE:          0
cpu0->LLC RFO          ACCESS:      16834 HIT:         95 MISS:      16739 MSHR_MERGE:          0
cpu0->LLC PREFETCH     ACCESS:          0 HIT:          0 MISS:          0 MSHR_MERGE:          0
cpu0->LLC WRITE        ACCESS:      50164 HIT:      49883 MISS:        281 MSHR_MERGE:          0
cpu0->LLC TRANSLATION  ACCESS:          0 HIT:          0 MISS:          0 MSHR_MERGE:          0
cpu0->LLC PREFETCH REQUESTED:          0 ISSUED:          0 USEFUL:          0 USELESS:          0
cpu0->LLC AVERAGE MISS LATENCY: 77.25 cycles

DRAM Statistics

Channel 0 RQ ROW_BUFFER_HIT:    3473371
  ROW_BUFFER_MISS:   14322420
  AVG DBUS CONGESTED CYCLE: 13.72
Channel 0 WQ ROW_BUFFER_HIT:       3305
  ROW_BUFFER_MISS:      21811
  FULL:          0
Channel 0 REFRESHES ISSUED:     431956

Channel 1 RQ ROW_BUFFER_HIT:    3473170
  ROW_BUFFER_MISS:   14324741
  AVG DBUS CONGESTED CYCLE: 13.67
Channel 1 WQ ROW_BUFFER_HIT:       3239
  ROW_BUFFER_MISS:      21727
  FULL:          0
Channel 1 REFRESHES ISSUED:     431956
