
*** ChampSim Multicore Out-of-Order Simulator ***
Warmup Instructions: 0
Simulation Instructions: 9223372036854775807
Number of CPUs: 1
Page size: 2097152

Off-chip DRAM Size: 128 GiB Channels: 2 Width: 32-bit Data Rate: 4807 MT/s
[ERROR_PAGE_MANAGER] Error latency: 1990500 
[ERROR_PAGE_MANAGER] Random seed: 54321 (fixed for preload reproducibility)
[ERROR_PAGE_MANAGER] Cycle-based error modeling enabled
[ERROR_PAGE_MANAGER] Errors per interval: 1
[ERROR_PAGE_MANAGER] Error cycle interval: 80000000 cycles

=== ERROR PAGE STATISTICS ===
Mode: CYCLE
Error Cycle Interval: 80000000 CPU cycles
Total Error Accesses: 0
==============================
Warmup finished CPU 0 instructions: 0 cycles: 1 cumulative IPC: 0 (Simulation time: 00 hr 00 min 00 sec)
Warmup complete CPU 0 instructions: 0 cycles: 1 cumulative IPC: 0 (Simulation time: 00 hr 00 min 00 sec)
Heartbeat CPU 0 instructions: 10000001 cycles: 10832482 heartbeat IPC: 0.9231 cumulative IPC: 0.9231 (Simulation time: 00 hr 01 min 17 sec)
Heartbeat CPU 0 instructions: 20000002 cycles: 23318839 heartbeat IPC: 0.8009 cumulative IPC: 0.8577 (Simulation time: 00 hr 02 min 45 sec)
Heartbeat CPU 0 instructions: 30000002 cycles: 38196275 heartbeat IPC: 0.6722 cumulative IPC: 0.7854 (Simulation time: 00 hr 04 min 27 sec)
Heartbeat CPU 0 instructions: 40000005 cycles: 48434164 heartbeat IPC: 0.9768 cumulative IPC: 0.8259 (Simulation time: 00 hr 05 min 43 sec)
[ERROR_CYCLE] Error added at CPU cycle 57022446, next at 73226450, pending count: 1
[DRAM_CYCLE_ERROR] Cycle-based error applied! address=0x6a322ebc0 additional_latency=1990500 cycles
[ERROR_CYCLE] Error added at CPU cycle 73226451, next at 205568512, pending count: 1
[DRAM_CYCLE_ERROR] Cycle-based error applied! address=0xddca4b610 additional_latency=1990500 cycles
Heartbeat CPU 0 instructions: 50000005 cycles: 84223934 heartbeat IPC: 0.2794 cumulative IPC: 0.5937 (Simulation time: 00 hr 08 min 50 sec)
Heartbeat CPU 0 instructions: 60000005 cycles: 99438371 heartbeat IPC: 0.6573 cumulative IPC: 0.6034 (Simulation time: 00 hr 10 min 15 sec)
Heartbeat CPU 0 instructions: 70000005 cycles: 115289937 heartbeat IPC: 0.6309 cumulative IPC: 0.6072 (Simulation time: 00 hr 11 min 54 sec)
Heartbeat CPU 0 instructions: 80000007 cycles: 125135123 heartbeat IPC: 1.016 cumulative IPC: 0.6393 (Simulation time: 00 hr 13 min 08 sec)
Heartbeat CPU 0 instructions: 90000007 cycles: 135598530 heartbeat IPC: 0.9557 cumulative IPC: 0.6637 (Simulation time: 00 hr 14 min 26 sec)
Heartbeat CPU 0 instructions: 100000007 cycles: 144920746 heartbeat IPC: 1.073 cumulative IPC: 0.69 (Simulation time: 00 hr 15 min 25 sec)
Heartbeat CPU 0 instructions: 110000007 cycles: 164870555 heartbeat IPC: 0.5013 cumulative IPC: 0.6672 (Simulation time: 00 hr 17 min 30 sec)
Heartbeat CPU 0 instructions: 120000009 cycles: 178395866 heartbeat IPC: 0.7394 cumulative IPC: 0.6727 (Simulation time: 00 hr 18 min 49 sec)
Heartbeat CPU 0 instructions: 130000011 cycles: 189036444 heartbeat IPC: 0.9398 cumulative IPC: 0.6877 (Simulation time: 00 hr 20 min 08 sec)
[ERROR_CYCLE] Error added at CPU cycle 205568513, next at 427741518, pending count: 1
[DRAM_CYCLE_ERROR] Cycle-based error applied! address=0x111293bc00 additional_latency=1990500 cycles
Heartbeat CPU 0 instructions: 140000012 cycles: 206336499 heartbeat IPC: 0.578 cumulative IPC: 0.6785 (Simulation time: 00 hr 22 min 01 sec)
Heartbeat CPU 0 instructions: 150000014 cycles: 232436825 heartbeat IPC: 0.3831 cumulative IPC: 0.6453 (Simulation time: 00 hr 24 min 16 sec)
Heartbeat CPU 0 instructions: 160000017 cycles: 243503082 heartbeat IPC: 0.9036 cumulative IPC: 0.6571 (Simulation time: 00 hr 25 min 33 sec)
Heartbeat CPU 0 instructions: 170000020 cycles: 251609205 heartbeat IPC: 1.234 cumulative IPC: 0.6757 (Simulation time: 00 hr 26 min 33 sec)
Heartbeat CPU 0 instructions: 180000022 cycles: 280919724 heartbeat IPC: 0.3412 cumulative IPC: 0.6408 (Simulation time: 00 hr 29 min 20 sec)
Heartbeat CPU 0 instructions: 190000022 cycles: 289455589 heartbeat IPC: 1.172 cumulative IPC: 0.6564 (Simulation time: 00 hr 30 min 13 sec)
Heartbeat CPU 0 instructions: 200000022 cycles: 300780347 heartbeat IPC: 0.883 cumulative IPC: 0.6649 (Simulation time: 00 hr 31 min 34 sec)
Heartbeat CPU 0 instructions: 210000023 cycles: 317493459 heartbeat IPC: 0.5983 cumulative IPC: 0.6614 (Simulation time: 00 hr 33 min 24 sec)
Heartbeat CPU 0 instructions: 220000024 cycles: 339725791 heartbeat IPC: 0.4498 cumulative IPC: 0.6476 (Simulation time: 00 hr 35 min 44 sec)
Heartbeat CPU 0 instructions: 230000024 cycles: 350194129 heartbeat IPC: 0.9553 cumulative IPC: 0.6568 (Simulation time: 00 hr 37 min 00 sec)
Heartbeat CPU 0 instructions: 240000024 cycles: 361834648 heartbeat IPC: 0.8591 cumulative IPC: 0.6633 (Simulation time: 00 hr 38 min 24 sec)
Heartbeat CPU 0 instructions: 250000028 cycles: 370444559 heartbeat IPC: 1.161 cumulative IPC: 0.6749 (Simulation time: 00 hr 39 min 28 sec)
Heartbeat CPU 0 instructions: 260000028 cycles: 410734302 heartbeat IPC: 0.2482 cumulative IPC: 0.633 (Simulation time: 00 hr 42 min 30 sec)
[ERROR_CYCLE] Error added at CPU cycle 427741518, next at 430145799, pending count: 1
[DRAM_CYCLE_ERROR] Cycle-based error applied! address=0x1621f0a628 additional_latency=1990500 cycles
[ERROR_CYCLE] Error added at CPU cycle 430145800, next at 553109136, pending count: 1
[DRAM_CYCLE_ERROR] Cycle-based error applied! address=0x12c29fe300 additional_latency=1990500 cycles
Heartbeat CPU 0 instructions: 270000028 cycles: 460948196 heartbeat IPC: 0.1991 cumulative IPC: 0.5857 (Simulation time: 00 hr 46 min 08 sec)
Heartbeat CPU 0 instructions: 280000028 cycles: 478068360 heartbeat IPC: 0.5841 cumulative IPC: 0.5857 (Simulation time: 00 hr 47 min 36 sec)
Heartbeat CPU 0 instructions: 290000029 cycles: 495057736 heartbeat IPC: 0.5886 cumulative IPC: 0.5858 (Simulation time: 00 hr 49 min 25 sec)
Heartbeat CPU 0 instructions: 300000029 cycles: 513413117 heartbeat IPC: 0.5448 cumulative IPC: 0.5843 (Simulation time: 00 hr 51 min 21 sec)
Heartbeat CPU 0 instructions: 310000030 cycles: 524233445 heartbeat IPC: 0.9242 cumulative IPC: 0.5913 (Simulation time: 00 hr 52 min 38 sec)
Heartbeat CPU 0 instructions: 320000030 cycles: 534947275 heartbeat IPC: 0.9334 cumulative IPC: 0.5982 (Simulation time: 00 hr 53 min 54 sec)
[ERROR_CYCLE] Error added at CPU cycle 553109137, next at 567427547, pending count: 1
[DRAM_CYCLE_ERROR] Cycle-based error applied! address=0x339d3678 additional_latency=1990500 cycles
Heartbeat CPU 0 instructions: 330000032 cycles: 558059458 heartbeat IPC: 0.4327 cumulative IPC: 0.5913 (Simulation time: 00 hr 56 min 17 sec)
[ERROR_CYCLE] Error added at CPU cycle 567427547, next at 612939373, pending count: 1
[DRAM_CYCLE_ERROR] Cycle-based error applied! address=0xca18e5770 additional_latency=1990500 cycles
Heartbeat CPU 0 instructions: 340000032 cycles: 568833383 heartbeat IPC: 0.9282 cumulative IPC: 0.5977 (Simulation time: 00 hr 57 min 34 sec)
Heartbeat CPU 0 instructions: 350000032 cycles: 576972156 heartbeat IPC: 1.229 cumulative IPC: 0.6066 (Simulation time: 00 hr 58 min 36 sec)
Heartbeat CPU 0 instructions: 360000032 cycles: 597770664 heartbeat IPC: 0.4808 cumulative IPC: 0.6022 (Simulation time: 01 hr 00 min 45 sec)
Heartbeat CPU 0 instructions: 370000034 cycles: 610183359 heartbeat IPC: 0.8056 cumulative IPC: 0.6064 (Simulation time: 01 hr 02 min 10 sec)
[ERROR_CYCLE] Error added at CPU cycle 612939373, next at 681254883, pending count: 1
[DRAM_CYCLE_ERROR] Cycle-based error applied! address=0x422fd7198 additional_latency=1990500 cycles
Heartbeat CPU 0 instructions: 380000034 cycles: 619600509 heartbeat IPC: 1.062 cumulative IPC: 0.6133 (Simulation time: 01 hr 03 min 19 sec)
Heartbeat CPU 0 instructions: 390000034 cycles: 644614211 heartbeat IPC: 0.3998 cumulative IPC: 0.605 (Simulation time: 01 hr 05 min 50 sec)
Heartbeat CPU 0 instructions: 400000034 cycles: 669063859 heartbeat IPC: 0.409 cumulative IPC: 0.5979 (Simulation time: 01 hr 08 min 23 sec)
Heartbeat CPU 0 instructions: 410000034 cycles: 679660078 heartbeat IPC: 0.9437 cumulative IPC: 0.6032 (Simulation time: 01 hr 09 min 39 sec)
[ERROR_CYCLE] Error added at CPU cycle 681254883, next at 700827009, pending count: 1
[DRAM_CYCLE_ERROR] Cycle-based error applied! address=0xe03c1b240 additional_latency=1990500 cycles
Heartbeat CPU 0 instructions: 420000035 cycles: 688593199 heartbeat IPC: 1.119 cumulative IPC: 0.6099 (Simulation time: 01 hr 10 min 46 sec)
[ERROR_CYCLE] Error added at CPU cycle 700827009, next at 842903644, pending count: 1
[DRAM_CYCLE_ERROR] Cycle-based error applied! address=0x1b0ab34a48 additional_latency=1990500 cycles
Heartbeat CPU 0 instructions: 430000038 cycles: 702260965 heartbeat IPC: 0.7316 cumulative IPC: 0.6123 (Simulation time: 01 hr 12 min 18 sec)
Heartbeat CPU 0 instructions: 440000041 cycles: 734622655 heartbeat IPC: 0.309 cumulative IPC: 0.5989 (Simulation time: 01 hr 15 min 31 sec)
Heartbeat CPU 0 instructions: 450000044 cycles: 743099975 heartbeat IPC: 1.18 cumulative IPC: 0.6056 (Simulation time: 01 hr 16 min 36 sec)
Heartbeat CPU 0 instructions: 460000044 cycles: 756659054 heartbeat IPC: 0.7375 cumulative IPC: 0.6079 (Simulation time: 01 hr 18 min 09 sec)
Heartbeat CPU 0 instructions: 470000044 cycles: 765570188 heartbeat IPC: 1.122 cumulative IPC: 0.6139 (Simulation time: 01 hr 19 min 15 sec)
Heartbeat CPU 0 instructions: 480000045 cycles: 775483638 heartbeat IPC: 1.009 cumulative IPC: 0.619 (Simulation time: 01 hr 20 min 28 sec)
Heartbeat CPU 0 instructions: 490000046 cycles: 801188770 heartbeat IPC: 0.389 cumulative IPC: 0.6116 (Simulation time: 01 hr 23 min 03 sec)
Heartbeat CPU 0 instructions: 500000046 cycles: 811255777 heartbeat IPC: 0.9933 cumulative IPC: 0.6163 (Simulation time: 01 hr 24 min 16 sec)
Heartbeat CPU 0 instructions: 510000047 cycles: 822574240 heartbeat IPC: 0.8835 cumulative IPC: 0.62 (Simulation time: 01 hr 25 min 36 sec)
Heartbeat CPU 0 instructions: 520000048 cycles: 831160885 heartbeat IPC: 1.165 cumulative IPC: 0.6256 (Simulation time: 01 hr 26 min 43 sec)
Heartbeat CPU 0 instructions: 530000052 cycles: 841512315 heartbeat IPC: 0.9661 cumulative IPC: 0.6298 (Simulation time: 01 hr 28 min 00 sec)
[ERROR_CYCLE] Error added at CPU cycle 842903644, next at 871385107, pending count: 1
[DRAM_CYCLE_ERROR] Cycle-based error applied! address=0xc03f816a8 additional_latency=1990500 cycles
[ERROR_CYCLE] Error added at CPU cycle 871385107, next at 907191996, pending count: 1
[DRAM_CYCLE_ERROR] Cycle-based error applied! address=0x1294af3dc0 additional_latency=1990500 cycles
Heartbeat CPU 0 instructions: 540000053 cycles: 873990559 heartbeat IPC: 0.3079 cumulative IPC: 0.6179 (Simulation time: 01 hr 31 min 16 sec)
[ERROR_CYCLE] Error added at CPU cycle 907191996, next at 1070014685, pending count: 1
[DRAM_CYCLE_ERROR] Cycle-based error applied! address=0x1e2114720 additional_latency=1990500 cycles
Heartbeat CPU 0 instructions: 550000054 cycles: 917773856 heartbeat IPC: 0.2284 cumulative IPC: 0.5993 (Simulation time: 01 hr 35 min 33 sec)
Heartbeat CPU 0 instructions: 560000054 cycles: 961564050 heartbeat IPC: 0.2284 cumulative IPC: 0.5824 (Simulation time: 01 hr 39 min 52 sec)
Heartbeat CPU 0 instructions: 570000057 cycles: 1006056736 heartbeat IPC: 0.2248 cumulative IPC: 0.5666 (Simulation time: 01 hr 44 min 02 sec)
Heartbeat CPU 0 instructions: 580000060 cycles: 1049693346 heartbeat IPC: 0.2292 cumulative IPC: 0.5525 (Simulation time: 01 hr 47 min 31 sec)
[ERROR_CYCLE] Error added at CPU cycle 1070014686, next at 1070994884, pending count: 1
[DRAM_CYCLE_ERROR] Cycle-based error applied! address=0x89a1a65b8 additional_latency=1990500 cycles
[ERROR_CYCLE] Error added at CPU cycle 1070994885, next at 1160990919, pending count: 1
[DRAM_CYCLE_ERROR] Cycle-based error applied! address=0x100e4ea10 additional_latency=1990500 cycles
Heartbeat CPU 0 instructions: 590000060 cycles: 1094025759 heartbeat IPC: 0.2256 cumulative IPC: 0.5393 (Simulation time: 01 hr 51 min 42 sec)
Heartbeat CPU 0 instructions: 600000061 cycles: 1137625864 heartbeat IPC: 0.2294 cumulative IPC: 0.5274 (Simulation time: 01 hr 55 min 02 sec)
[ERROR_CYCLE] Error added at CPU cycle 1160990919, next at 1213496919, pending count: 1
[DRAM_CYCLE_ERROR] Cycle-based error applied! address=0x28e31c240 additional_latency=1990500 cycles
Heartbeat CPU 0 instructions: 610000061 cycles: 1181459148 heartbeat IPC: 0.2281 cumulative IPC: 0.5163 (Simulation time: 01 hr 58 min 00 sec)
[ERROR_CYCLE] Error added at CPU cycle 1213496920, next at 1516211877, pending count: 1
[DRAM_CYCLE_ERROR] Cycle-based error applied! address=0x145568cb20 additional_latency=1990500 cycles
Heartbeat CPU 0 instructions: 620000063 cycles: 1221584255 heartbeat IPC: 0.2492 cumulative IPC: 0.5075 (Simulation time: 02 hr 01 min 02 sec)
Heartbeat CPU 0 instructions: 630000063 cycles: 1261179835 heartbeat IPC: 0.2526 cumulative IPC: 0.4995 (Simulation time: 02 hr 04 min 35 sec)
Heartbeat CPU 0 instructions: 640000065 cycles: 1299100390 heartbeat IPC: 0.2637 cumulative IPC: 0.4926 (Simulation time: 02 hr 07 min 18 sec)
Heartbeat CPU 0 instructions: 650000065 cycles: 1342529044 heartbeat IPC: 0.2303 cumulative IPC: 0.4842 (Simulation time: 02 hr 10 min 51 sec)
Heartbeat CPU 0 instructions: 660000066 cycles: 1389926542 heartbeat IPC: 0.211 cumulative IPC: 0.4748 (Simulation time: 02 hr 14 min 34 sec)
Heartbeat CPU 0 instructions: 670000070 cycles: 1438018239 heartbeat IPC: 0.2079 cumulative IPC: 0.4659 (Simulation time: 02 hr 18 min 50 sec)
Heartbeat CPU 0 instructions: 680000072 cycles: 1484811928 heartbeat IPC: 0.2137 cumulative IPC: 0.458 (Simulation time: 02 hr 22 min 47 sec)
[ERROR_CYCLE] Error added at CPU cycle 1516211878, next at 1535167431, pending count: 1
[DRAM_CYCLE_ERROR] Cycle-based error applied! address=0x29eb4fbc8 additional_latency=1990500 cycles
Heartbeat CPU 0 instructions: 690000073 cycles: 1517650218 heartbeat IPC: 0.3045 cumulative IPC: 0.4547 (Simulation time: 02 hr 25 min 30 sec)
Heartbeat CPU 0 instructions: 700000074 cycles: 1532942219 heartbeat IPC: 0.6539 cumulative IPC: 0.4566 (Simulation time: 02 hr 26 min 42 sec)
[ERROR_CYCLE] Error added at CPU cycle 1535167432, next at 1554376223, pending count: 1
[DRAM_CYCLE_ERROR] Cycle-based error applied! address=0x13b42f96b8 additional_latency=1990500 cycles
Heartbeat CPU 0 instructions: 710000077 cycles: 1542211250 heartbeat IPC: 1.079 cumulative IPC: 0.4604 (Simulation time: 02 hr 27 min 28 sec)
[ERROR_CYCLE] Error added at CPU cycle 1554376224, next at 1784952274, pending count: 1
Heartbeat CPU 0 instructions: 720000079 cycles: 1555229841 heartbeat IPC: 0.7681 cumulative IPC: 0.463 (Simulation time: 02 hr 28 min 34 sec)
[DRAM_CYCLE_ERROR] Cycle-based error applied! address=0xcf7c03968 additional_latency=1990500 cycles
Heartbeat CPU 0 instructions: 730000082 cycles: 1566771511 heartbeat IPC: 0.8664 cumulative IPC: 0.4659 (Simulation time: 02 hr 29 min 44 sec)
Heartbeat CPU 0 instructions: 740000083 cycles: 1575225180 heartbeat IPC: 1.183 cumulative IPC: 0.4698 (Simulation time: 02 hr 30 min 33 sec)
Heartbeat CPU 0 instructions: 750000083 cycles: 1590926469 heartbeat IPC: 0.6369 cumulative IPC: 0.4714 (Simulation time: 02 hr 31 min 43 sec)
Heartbeat CPU 0 instructions: 760000084 cycles: 1599405818 heartbeat IPC: 1.179 cumulative IPC: 0.4752 (Simulation time: 02 hr 32 min 26 sec)
Heartbeat CPU 0 instructions: 770000085 cycles: 1608933972 heartbeat IPC: 1.05 cumulative IPC: 0.4786 (Simulation time: 02 hr 33 min 12 sec)
Heartbeat CPU 0 instructions: 780000088 cycles: 1622285126 heartbeat IPC: 0.749 cumulative IPC: 0.4808 (Simulation time: 02 hr 34 min 12 sec)
Heartbeat CPU 0 instructions: 790000090 cycles: 1635112834 heartbeat IPC: 0.7796 cumulative IPC: 0.4831 (Simulation time: 02 hr 35 min 10 sec)
Heartbeat CPU 0 instructions: 800000091 cycles: 1661945655 heartbeat IPC: 0.3727 cumulative IPC: 0.4814 (Simulation time: 02 hr 37 min 09 sec)
Heartbeat CPU 0 instructions: 810000094 cycles: 1682345622 heartbeat IPC: 0.4902 cumulative IPC: 0.4815 (Simulation time: 02 hr 38 min 49 sec)
Heartbeat CPU 0 instructions: 820000094 cycles: 1696837146 heartbeat IPC: 0.6901 cumulative IPC: 0.4833 (Simulation time: 02 hr 39 min 51 sec)
Heartbeat CPU 0 instructions: 830000094 cycles: 1707535429 heartbeat IPC: 0.9347 cumulative IPC: 0.4861 (Simulation time: 02 hr 40 min 44 sec)
Heartbeat CPU 0 instructions: 840000097 cycles: 1732544771 heartbeat IPC: 0.3999 cumulative IPC: 0.4848 (Simulation time: 02 hr 42 min 42 sec)
Heartbeat CPU 0 instructions: 850000097 cycles: 1752485347 heartbeat IPC: 0.5015 cumulative IPC: 0.485 (Simulation time: 02 hr 44 min 21 sec)
Heartbeat CPU 0 instructions: 860000100 cycles: 1763633409 heartbeat IPC: 0.897 cumulative IPC: 0.4876 (Simulation time: 02 hr 45 min 37 sec)
Heartbeat CPU 0 instructions: 870000103 cycles: 1771729581 heartbeat IPC: 1.235 cumulative IPC: 0.491 (Simulation time: 02 hr 46 min 30 sec)
[ERROR_CYCLE] Error added at CPU cycle 1784952274, next at 1816533671, pending count: 1
[DRAM_CYCLE_ERROR] Cycle-based error applied! address=0x13b42f89d0 additional_latency=1990500 cycles
Heartbeat CPU 0 instructions: 880000103 cycles: 1785271276 heartbeat IPC: 0.7385 cumulative IPC: 0.4929 (Simulation time: 02 hr 48 min 05 sec)
Heartbeat CPU 0 instructions: 890000103 cycles: 1795524869 heartbeat IPC: 0.9753 cumulative IPC: 0.4957 (Simulation time: 02 hr 49 min 21 sec)
Heartbeat CPU 0 instructions: 900000107 cycles: 1814222291 heartbeat IPC: 0.5348 cumulative IPC: 0.4961 (Simulation time: 02 hr 51 min 18 sec)
[ERROR_CYCLE] Error added at CPU cycle 1816533671, next at 2158771940, pending count: 1
[DRAM_CYCLE_ERROR] Cycle-based error applied! address=0x14bdbe26f0 additional_latency=1990500 cycles
Heartbeat CPU 0 instructions: 910000107 cycles: 1823196500 heartbeat IPC: 1.114 cumulative IPC: 0.4991 (Simulation time: 02 hr 52 min 27 sec)
Heartbeat CPU 0 instructions: 920000108 cycles: 1835590317 heartbeat IPC: 0.8069 cumulative IPC: 0.5012 (Simulation time: 02 hr 53 min 46 sec)
Heartbeat CPU 0 instructions: 930000109 cycles: 1844932087 heartbeat IPC: 1.07 cumulative IPC: 0.5041 (Simulation time: 02 hr 54 min 38 sec)
Heartbeat CPU 0 instructions: 940000113 cycles: 1883631610 heartbeat IPC: 0.2584 cumulative IPC: 0.499 (Simulation time: 02 hr 57 min 26 sec)
Heartbeat CPU 0 instructions: 950000113 cycles: 1925294487 heartbeat IPC: 0.24 cumulative IPC: 0.4934 (Simulation time: 03 hr 01 min 12 sec)
Heartbeat CPU 0 instructions: 960000113 cycles: 1943663338 heartbeat IPC: 0.5444 cumulative IPC: 0.4939 (Simulation time: 03 hr 02 min 53 sec)
Heartbeat CPU 0 instructions: 970000113 cycles: 1953512433 heartbeat IPC: 1.015 cumulative IPC: 0.4965 (Simulation time: 03 hr 04 min 09 sec)
Heartbeat CPU 0 instructions: 980000113 cycles: 1962607457 heartbeat IPC: 1.1 cumulative IPC: 0.4993 (Simulation time: 03 hr 05 min 20 sec)
Heartbeat CPU 0 instructions: 990000115 cycles: 1978721243 heartbeat IPC: 0.6206 cumulative IPC: 0.5003 (Simulation time: 03 hr 07 min 12 sec)
Heartbeat CPU 0 instructions: 1000000115 cycles: 1989468252 heartbeat IPC: 0.9305 cumulative IPC: 0.5026 (Simulation time: 03 hr 08 min 12 sec)
Heartbeat CPU 0 instructions: 1010000115 cycles: 2000390314 heartbeat IPC: 0.9156 cumulative IPC: 0.5049 (Simulation time: 03 hr 09 min 11 sec)
Heartbeat CPU 0 instructions: 1020000118 cycles: 2011947629 heartbeat IPC: 0.8653 cumulative IPC: 0.507 (Simulation time: 03 hr 10 min 07 sec)
Heartbeat CPU 0 instructions: 1030000119 cycles: 2022818019 heartbeat IPC: 0.9199 cumulative IPC: 0.5092 (Simulation time: 03 hr 10 min 59 sec)
Heartbeat CPU 0 instructions: 1040000123 cycles: 2036708459 heartbeat IPC: 0.7199 cumulative IPC: 0.5106 (Simulation time: 03 hr 12 min 01 sec)
Heartbeat CPU 0 instructions: 1050000126 cycles: 2086538666 heartbeat IPC: 0.2007 cumulative IPC: 0.5032 (Simulation time: 03 hr 15 min 18 sec)
Heartbeat CPU 0 instructions: 1060000130 cycles: 2120683833 heartbeat IPC: 0.2929 cumulative IPC: 0.4998 (Simulation time: 03 hr 18 min 07 sec)
Heartbeat CPU 0 instructions: 1070000134 cycles: 2129338868 heartbeat IPC: 1.155 cumulative IPC: 0.5025 (Simulation time: 03 hr 18 min 51 sec)
Heartbeat CPU 0 instructions: 1080000134 cycles: 2138942506 heartbeat IPC: 1.041 cumulative IPC: 0.5049 (Simulation time: 03 hr 19 min 51 sec)
[ERROR_CYCLE] Error added at CPU cycle 2158771941, next at 2204777382, pending count: 1
[DRAM_CYCLE_ERROR] Cycle-based error applied! address=0x101a9e0bf8 additional_latency=1990500 cycles
Heartbeat CPU 0 instructions: 1090000137 cycles: 2174133853 heartbeat IPC: 0.2842 cumulative IPC: 0.5013 (Simulation time: 03 hr 22 min 15 sec)
Heartbeat CPU 0 instructions: 1100000137 cycles: 2189267664 heartbeat IPC: 0.6608 cumulative IPC: 0.5025 (Simulation time: 03 hr 23 min 22 sec)
Heartbeat CPU 0 instructions: 1110000140 cycles: 2199895830 heartbeat IPC: 0.9409 cumulative IPC: 0.5046 (Simulation time: 03 hr 24 min 14 sec)
[ERROR_CYCLE] Error added at CPU cycle 2204777382, next at 2473853101, pending count: 1
[DRAM_CYCLE_ERROR] Cycle-based error applied! address=0x13b42f9a70 additional_latency=1990500 cycles
Heartbeat CPU 0 instructions: 1120000143 cycles: 2209406836 heartbeat IPC: 1.051 cumulative IPC: 0.5069 (Simulation time: 03 hr 25 min 03 sec)
Heartbeat CPU 0 instructions: 1130000143 cycles: 2217640442 heartbeat IPC: 1.215 cumulative IPC: 0.5096 (Simulation time: 03 hr 25 min 46 sec)
Heartbeat CPU 0 instructions: 1140000147 cycles: 2241355401 heartbeat IPC: 0.4217 cumulative IPC: 0.5086 (Simulation time: 03 hr 27 min 21 sec)
Heartbeat CPU 0 instructions: 1150000147 cycles: 2251654242 heartbeat IPC: 0.971 cumulative IPC: 0.5107 (Simulation time: 03 hr 28 min 11 sec)
Heartbeat CPU 0 instructions: 1160000149 cycles: 2268420843 heartbeat IPC: 0.5964 cumulative IPC: 0.5114 (Simulation time: 03 hr 29 min 21 sec)
Heartbeat CPU 0 instructions: 1170000149 cycles: 2276866414 heartbeat IPC: 1.184 cumulative IPC: 0.5139 (Simulation time: 03 hr 30 min 04 sec)
Heartbeat CPU 0 instructions: 1180000152 cycles: 2286645268 heartbeat IPC: 1.023 cumulative IPC: 0.516 (Simulation time: 03 hr 30 min 51 sec)
Heartbeat CPU 0 instructions: 1190000154 cycles: 2316189365 heartbeat IPC: 0.3385 cumulative IPC: 0.5138 (Simulation time: 03 hr 32 min 48 sec)
Heartbeat CPU 0 instructions: 1200000156 cycles: 2325945994 heartbeat IPC: 1.025 cumulative IPC: 0.5159 (Simulation time: 03 hr 33 min 38 sec)
Heartbeat CPU 0 instructions: 1210000156 cycles: 2341183238 heartbeat IPC: 0.6563 cumulative IPC: 0.5168 (Simulation time: 03 hr 34 min 59 sec)
Heartbeat CPU 0 instructions: 1220000159 cycles: 2355247002 heartbeat IPC: 0.711 cumulative IPC: 0.518 (Simulation time: 03 hr 36 min 04 sec)
Heartbeat CPU 0 instructions: 1230000162 cycles: 2363210203 heartbeat IPC: 1.256 cumulative IPC: 0.5205 (Simulation time: 03 hr 36 min 47 sec)
Heartbeat CPU 0 instructions: 1240000164 cycles: 2372939471 heartbeat IPC: 1.028 cumulative IPC: 0.5226 (Simulation time: 03 hr 37 min 37 sec)
Heartbeat CPU 0 instructions: 1250000167 cycles: 2394041914 heartbeat IPC: 0.4739 cumulative IPC: 0.5221 (Simulation time: 03 hr 39 min 01 sec)
Heartbeat CPU 0 instructions: 1260000170 cycles: 2403188110 heartbeat IPC: 1.093 cumulative IPC: 0.5243 (Simulation time: 03 hr 39 min 44 sec)
Heartbeat CPU 0 instructions: 1270000172 cycles: 2415426843 heartbeat IPC: 0.8171 cumulative IPC: 0.5258 (Simulation time: 03 hr 40 min 40 sec)
Heartbeat CPU 0 instructions: 1280000172 cycles: 2434237296 heartbeat IPC: 0.5316 cumulative IPC: 0.5258 (Simulation time: 03 hr 41 min 57 sec)
Heartbeat CPU 0 instructions: 1290000176 cycles: 2466357121 heartbeat IPC: 0.3113 cumulative IPC: 0.523 (Simulation time: 03 hr 44 min 03 sec)
[ERROR_CYCLE] Error added at CPU cycle 2473853101, next at 2497718103, pending count: 1
[DRAM_CYCLE_ERROR] Cycle-based error applied! address=0xdb178acc0 additional_latency=1990500 cycles
Heartbeat CPU 0 instructions: 1300000178 cycles: 2475527390 heartbeat IPC: 1.09 cumulative IPC: 0.5251 (Simulation time: 03 hr 44 min 49 sec)
Heartbeat CPU 0 instructions: 1310000178 cycles: 2485179006 heartbeat IPC: 1.036 cumulative IPC: 0.5271 (Simulation time: 03 hr 45 min 35 sec)
Heartbeat CPU 0 instructions: 1320000178 cycles: 2493455343 heartbeat IPC: 1.208 cumulative IPC: 0.5294 (Simulation time: 03 hr 46 min 17 sec)
[ERROR_CYCLE] Error added at CPU cycle 2497718103, next at 2611876149, pending count: 1
[DRAM_CYCLE_ERROR] Cycle-based error applied! address=0x10ea498a18 additional_latency=1990500 cycles
Heartbeat CPU 0 instructions: 1330000178 cycles: 2514348015 heartbeat IPC: 0.4786 cumulative IPC: 0.529 (Simulation time: 03 hr 47 min 40 sec)
Heartbeat CPU 0 instructions: 1340000178 cycles: 2550690627 heartbeat IPC: 0.2752 cumulative IPC: 0.5253 (Simulation time: 03 hr 49 min 56 sec)
Heartbeat CPU 0 instructions: 1350000181 cycles: 2572708324 heartbeat IPC: 0.4542 cumulative IPC: 0.5247 (Simulation time: 03 hr 51 min 25 sec)
Heartbeat CPU 0 instructions: 1360000185 cycles: 2582075489 heartbeat IPC: 1.068 cumulative IPC: 0.5267 (Simulation time: 03 hr 52 min 08 sec)
Heartbeat CPU 0 instructions: 1370000185 cycles: 2596760116 heartbeat IPC: 0.681 cumulative IPC: 0.5276 (Simulation time: 03 hr 53 min 11 sec)
Heartbeat CPU 0 instructions: 1380000187 cycles: 2606983857 heartbeat IPC: 0.9781 cumulative IPC: 0.5293 (Simulation time: 03 hr 53 min 59 sec)
[ERROR_CYCLE] Error added at CPU cycle 2611876149, next at 2628954084, pending count: 1
[DRAM_CYCLE_ERROR] Cycle-based error applied! address=0x17891f51f8 additional_latency=1990500 cycles
Heartbeat CPU 0 instructions: 1390000191 cycles: 2615236092 heartbeat IPC: 1.212 cumulative IPC: 0.5315 (Simulation time: 03 hr 54 min 39 sec)
Heartbeat CPU 0 instructions: 1400000191 cycles: 2624822118 heartbeat IPC: 1.043 cumulative IPC: 0.5334 (Simulation time: 03 hr 55 min 24 sec)
[ERROR_CYCLE] Error added at CPU cycle 2628954084, next at 2655562730, pending count: 1
[DRAM_CYCLE_ERROR] Cycle-based error applied! address=0x23b2dec80 additional_latency=1990500 cycles
Heartbeat CPU 0 instructions: 1410000192 cycles: 2640364277 heartbeat IPC: 0.6434 cumulative IPC: 0.534 (Simulation time: 03 hr 56 min 32 sec)
Heartbeat CPU 0 instructions: 1420000192 cycles: 2649594661 heartbeat IPC: 1.083 cumulative IPC: 0.5359 (Simulation time: 03 hr 57 min 16 sec)
[ERROR_CYCLE] Error added at CPU cycle 2655562730, next at 2772976160, pending count: 1
[DRAM_CYCLE_ERROR] Cycle-based error applied! address=0xed6b4cc40 additional_latency=1990500 cycles
Heartbeat CPU 0 instructions: 1430000192 cycles: 2658189852 heartbeat IPC: 1.163 cumulative IPC: 0.538 (Simulation time: 03 hr 57 min 58 sec)
Heartbeat CPU 0 instructions: 1440000194 cycles: 2686081001 heartbeat IPC: 0.3585 cumulative IPC: 0.5361 (Simulation time: 03 hr 59 min 42 sec)
Heartbeat CPU 0 instructions: 1450000195 cycles: 2700290545 heartbeat IPC: 0.7038 cumulative IPC: 0.537 (Simulation time: 04 hr 00 min 43 sec)
Heartbeat CPU 0 instructions: 1460000196 cycles: 2709994688 heartbeat IPC: 1.03 cumulative IPC: 0.5387 (Simulation time: 04 hr 01 min 28 sec)
Heartbeat CPU 0 instructions: 1470000199 cycles: 2718991380 heartbeat IPC: 1.112 cumulative IPC: 0.5406 (Simulation time: 04 hr 02 min 11 sec)
Heartbeat CPU 0 instructions: 1480000199 cycles: 2728953209 heartbeat IPC: 1.004 cumulative IPC: 0.5423 (Simulation time: 04 hr 02 min 56 sec)
Heartbeat CPU 0 instructions: 1490000202 cycles: 2756220299 heartbeat IPC: 0.3667 cumulative IPC: 0.5406 (Simulation time: 04 hr 04 min 39 sec)
Heartbeat CPU 0 instructions: 1500000203 cycles: 2764517058 heartbeat IPC: 1.205 cumulative IPC: 0.5426 (Simulation time: 04 hr 05 min 18 sec)
[ERROR_CYCLE] Error added at CPU cycle 2772976161, next at 2773633393, pending count: 1
Heartbeat CPU 0 instructions: 1510000205 cycles: 2773575145 heartbeat IPC: 1.104 cumulative IPC: 0.5444 (Simulation time: 04 hr 06 min 01 sec)
[ERROR_CYCLE] Error added at CPU cycle 2773633393, next at 2808444482, pending count: 2
[DRAM_CYCLE_ERROR] Cycle-based error applied! address=0x13b42fa1b0 additional_latency=1990500 cycles
[DRAM_CYCLE_ERROR] Cycle-based error applied! address=0x13b42fa208 additional_latency=1990500 cycles
Heartbeat CPU 0 instructions: 1520000205 cycles: 2783880864 heartbeat IPC: 0.9703 cumulative IPC: 0.546 (Simulation time: 04 hr 06 min 48 sec)
[ERROR_CYCLE] Error added at CPU cycle 2808444482, next at 2829724174, pending count: 1
[DRAM_CYCLE_ERROR] Cycle-based error applied! address=0x18f829a900 additional_latency=1990500 cycles
Heartbeat CPU 0 instructions: 1530000205 cycles: 2818129776 heartbeat IPC: 0.292 cumulative IPC: 0.5429 (Simulation time: 04 hr 08 min 50 sec)
[ERROR_CYCLE] Error added at CPU cycle 2829724175, next at 2868628587, pending count: 1
[DRAM_CYCLE_ERROR] Cycle-based error applied! address=0x4a8cec538 additional_latency=1990500 cycles
Heartbeat CPU 0 instructions: 1540000205 cycles: 2860586151 heartbeat IPC: 0.2355 cumulative IPC: 0.5384 (Simulation time: 04 hr 11 min 19 sec)
[ERROR_CYCLE] Error added at CPU cycle 2868628587, next at 2877872688, pending count: 1
[DRAM_CYCLE_ERROR] Cycle-based error applied! address=0x1e06487340 additional_latency=1990500 cycles
[ERROR_CYCLE] Error added at CPU cycle 2877872689, next at 2919724526, pending count: 1
[DRAM_CYCLE_ERROR] Cycle-based error applied! address=0xe6ff39828 additional_latency=1990500 cycles
Heartbeat CPU 0 instructions: 1550000206 cycles: 2904044480 heartbeat IPC: 0.2301 cumulative IPC: 0.5337 (Simulation time: 04 hr 13 min 50 sec)
[ERROR_CYCLE] Error added at CPU cycle 2919724527, next at 2961311055, pending count: 1
[DRAM_CYCLE_ERROR] Cycle-based error applied! address=0x1e065b6000 additional_latency=1990500 cycles
Heartbeat CPU 0 instructions: 1560000210 cycles: 2947249853 heartbeat IPC: 0.2315 cumulative IPC: 0.5293 (Simulation time: 04 hr 16 min 21 sec)
[ERROR_CYCLE] Error added at CPU cycle 2961311055, next at 3078893542, pending count: 1
[DRAM_CYCLE_ERROR] Cycle-based error applied! address=0x83aefd020 additional_latency=1990500 cycles
Heartbeat CPU 0 instructions: 1570000210 cycles: 2991178824 heartbeat IPC: 0.2276 cumulative IPC: 0.5249 (Simulation time: 04 hr 18 min 54 sec)
Heartbeat CPU 0 instructions: 1580000212 cycles: 3043310063 heartbeat IPC: 0.1918 cumulative IPC: 0.5192 (Simulation time: 04 hr 21 min 48 sec)
[ERROR_CYCLE] Error added at CPU cycle 3078893542, next at 3226440461, pending count: 1
[DRAM_CYCLE_ERROR] Cycle-based error applied! address=0x1be5b239b0 additional_latency=1990500 cycles
Heartbeat CPU 0 instructions: 1590000216 cycles: 3093221737 heartbeat IPC: 0.2004 cumulative IPC: 0.514 (Simulation time: 04 hr 24 min 35 sec)
Heartbeat CPU 0 instructions: 1600000218 cycles: 3126812254 heartbeat IPC: 0.2977 cumulative IPC: 0.5117 (Simulation time: 04 hr 26 min 37 sec)
Heartbeat CPU 0 instructions: 1610000218 cycles: 3138508458 heartbeat IPC: 0.855 cumulative IPC: 0.513 (Simulation time: 04 hr 27 min 27 sec)
Heartbeat CPU 0 instructions: 1620000222 cycles: 3147828105 heartbeat IPC: 1.073 cumulative IPC: 0.5146 (Simulation time: 04 hr 28 min 10 sec)
Heartbeat CPU 0 instructions: 1630000222 cycles: 3165491690 heartbeat IPC: 0.5661 cumulative IPC: 0.5149 (Simulation time: 04 hr 29 min 20 sec)
Heartbeat CPU 0 instructions: 1640000224 cycles: 3175557002 heartbeat IPC: 0.9935 cumulative IPC: 0.5164 (Simulation time: 04 hr 30 min 05 sec)
Heartbeat CPU 0 instructions: 1650000228 cycles: 3185473664 heartbeat IPC: 1.008 cumulative IPC: 0.518 (Simulation time: 04 hr 30 min 49 sec)
Heartbeat CPU 0 instructions: 1660000230 cycles: 3197750415 heartbeat IPC: 0.8145 cumulative IPC: 0.5191 (Simulation time: 04 hr 31 min 42 sec)
Heartbeat CPU 0 instructions: 1670000231 cycles: 3225221787 heartbeat IPC: 0.364 cumulative IPC: 0.5178 (Simulation time: 04 hr 33 min 24 sec)
[ERROR_CYCLE] Error added at CPU cycle 3226440462, next at 3266392849, pending count: 1
[DRAM_CYCLE_ERROR] Cycle-based error applied! address=0x1a6998680 additional_latency=1990500 cycles
Heartbeat CPU 0 instructions: 1680000231 cycles: 3248336675 heartbeat IPC: 0.4326 cumulative IPC: 0.5172 (Simulation time: 04 hr 34 min 54 sec)
Heartbeat CPU 0 instructions: 1690000231 cycles: 3256789372 heartbeat IPC: 1.183 cumulative IPC: 0.5189 (Simulation time: 04 hr 35 min 34 sec)
[ERROR_CYCLE] Error added at CPU cycle 3266392849, next at 3316630947, pending count: 1
[DRAM_CYCLE_ERROR] Cycle-based error applied! address=0x893683f8 additional_latency=1990500 cycles
Heartbeat CPU 0 instructions: 1700000232 cycles: 3269685344 heartbeat IPC: 0.7754 cumulative IPC: 0.5199 (Simulation time: 04 hr 36 min 29 sec)
Heartbeat CPU 0 instructions: 1710000233 cycles: 3281190319 heartbeat IPC: 0.8692 cumulative IPC: 0.5212 (Simulation time: 04 hr 37 min 18 sec)
Heartbeat CPU 0 instructions: 1720000233 cycles: 3291318646 heartbeat IPC: 0.9873 cumulative IPC: 0.5226 (Simulation time: 04 hr 38 min 03 sec)
Heartbeat CPU 0 instructions: 1730000235 cycles: 3299967649 heartbeat IPC: 1.156 cumulative IPC: 0.5242 (Simulation time: 04 hr 38 min 43 sec)
[ERROR_CYCLE] Error added at CPU cycle 3316630947, next at 3325418205, pending count: 1
[DRAM_CYCLE_ERROR] Cycle-based error applied! address=0x6fa8c57e0 additional_latency=1990500 cycles
Heartbeat CPU 0 instructions: 1740000235 cycles: 3319230030 heartbeat IPC: 0.5191 cumulative IPC: 0.5242 (Simulation time: 04 hr 39 min 57 sec)
[ERROR_CYCLE] Error added at CPU cycle 3325418205, next at 3342351842, pending count: 1
[DRAM_CYCLE_ERROR] Cycle-based error applied! address=0x1e0647f3f8 additional_latency=1990500 cycles
Heartbeat CPU 0 instructions: 1750000236 cycles: 3327895438 heartbeat IPC: 1.154 cumulative IPC: 0.5259 (Simulation time: 04 hr 40 min 37 sec)
Heartbeat CPU 0 instructions: 1760000236 cycles: 3341240150 heartbeat IPC: 0.7494 cumulative IPC: 0.5268 (Simulation time: 04 hr 41 min 32 sec)
[ERROR_CYCLE] Error added at CPU cycle 3342351843, next at 3431697372, pending count: 1
[DRAM_CYCLE_ERROR] Cycle-based error applied! address=0xad0a391d0 additional_latency=1990500 cycles
Heartbeat CPU 0 instructions: 1770000237 cycles: 3351127796 heartbeat IPC: 1.011 cumulative IPC: 0.5282 (Simulation time: 04 hr 42 min 16 sec)
Heartbeat CPU 0 instructions: 1780000237 cycles: 3372034156 heartbeat IPC: 0.4783 cumulative IPC: 0.5279 (Simulation time: 04 hr 43 min 35 sec)
Heartbeat CPU 0 instructions: 1790000238 cycles: 3420592409 heartbeat IPC: 0.2059 cumulative IPC: 0.5233 (Simulation time: 04 hr 46 min 20 sec)
[ERROR_CYCLE] Error added at CPU cycle 3431697373, next at 3483189846, pending count: 1
[DRAM_CYCLE_ERROR] Cycle-based error applied! address=0x11d14c3ca0 additional_latency=1990500 cycles
Heartbeat CPU 0 instructions: 1800000240 cycles: 3442967446 heartbeat IPC: 0.4469 cumulative IPC: 0.5228 (Simulation time: 04 hr 47 min 47 sec)
Heartbeat CPU 0 instructions: 1810000240 cycles: 3452896203 heartbeat IPC: 1.007 cumulative IPC: 0.5242 (Simulation time: 04 hr 48 min 32 sec)
Heartbeat CPU 0 instructions: 1820000242 cycles: 3473091655 heartbeat IPC: 0.4952 cumulative IPC: 0.524 (Simulation time: 04 hr 49 min 54 sec)
Heartbeat CPU 0 instructions: 1830000243 cycles: 3482852630 heartbeat IPC: 1.024 cumulative IPC: 0.5254 (Simulation time: 04 hr 50 min 38 sec)
[ERROR_CYCLE] Error added at CPU cycle 3483189846, next at 3612564501, pending count: 1
[DRAM_CYCLE_ERROR] Cycle-based error applied! address=0xc39e24858 additional_latency=1990500 cycles
Heartbeat CPU 0 instructions: 1840000243 cycles: 3490708755 heartbeat IPC: 1.273 cumulative IPC: 0.5271 (Simulation time: 04 hr 51 min 16 sec)
Heartbeat CPU 0 instructions: 1850000243 cycles: 3500649137 heartbeat IPC: 1.006 cumulative IPC: 0.5285 (Simulation time: 04 hr 52 min 00 sec)
Heartbeat CPU 0 instructions: 1860000245 cycles: 3515855939 heartbeat IPC: 0.6576 cumulative IPC: 0.529 (Simulation time: 04 hr 53 min 03 sec)
Heartbeat CPU 0 instructions: 1870000249 cycles: 3531630725 heartbeat IPC: 0.6339 cumulative IPC: 0.5295 (Simulation time: 04 hr 54 min 06 sec)
Heartbeat CPU 0 instructions: 1880000253 cycles: 3540464312 heartbeat IPC: 1.132 cumulative IPC: 0.531 (Simulation time: 04 hr 54 min 46 sec)
Heartbeat CPU 0 instructions: 1890000255 cycles: 3557406008 heartbeat IPC: 0.5903 cumulative IPC: 0.5313 (Simulation time: 04 hr 55 min 54 sec)
Heartbeat CPU 0 instructions: 1900000258 cycles: 3565933477 heartbeat IPC: 1.173 cumulative IPC: 0.5328 (Simulation time: 04 hr 56 min 34 sec)
Heartbeat CPU 0 instructions: 1910000258 cycles: 3576920168 heartbeat IPC: 0.9102 cumulative IPC: 0.534 (Simulation time: 04 hr 57 min 22 sec)
Heartbeat CPU 0 instructions: 1920000259 cycles: 3586411069 heartbeat IPC: 1.054 cumulative IPC: 0.5354 (Simulation time: 04 hr 58 min 05 sec)
Heartbeat CPU 0 instructions: 1930000261 cycles: 3602449574 heartbeat IPC: 0.6235 cumulative IPC: 0.5357 (Simulation time: 04 hr 59 min 11 sec)
Heartbeat CPU 0 instructions: 1940000262 cycles: 3611293276 heartbeat IPC: 1.131 cumulative IPC: 0.5372 (Simulation time: 04 hr 59 min 52 sec)
[ERROR_CYCLE] Error added at CPU cycle 3612564502, next at 3635329558, pending count: 1
[DRAM_CYCLE_ERROR] Cycle-based error applied! address=0x1b1edc32b0 additional_latency=1990500 cycles
Heartbeat CPU 0 instructions: 1950000263 cycles: 3623432156 heartbeat IPC: 0.8238 cumulative IPC: 0.5382 (Simulation time: 05 hr 00 min 44 sec)
Heartbeat CPU 0 instructions: 1960000263 cycles: 3633697984 heartbeat IPC: 0.9741 cumulative IPC: 0.5394 (Simulation time: 05 hr 01 min 30 sec)
[ERROR_CYCLE] Error added at CPU cycle 3635329558, next at 3743546336, pending count: 1
[DRAM_CYCLE_ERROR] Cycle-based error applied! address=0x1331859d70 additional_latency=1990500 cycles
Heartbeat CPU 0 instructions: 1970000266 cycles: 3659775757 heartbeat IPC: 0.3835 cumulative IPC: 0.5383 (Simulation time: 05 hr 03 min 04 sec)
Heartbeat CPU 0 instructions: 1980000267 cycles: 3708108983 heartbeat IPC: 0.2069 cumulative IPC: 0.534 (Simulation time: 05 hr 05 min 42 sec)
[ERROR_CYCLE] Error added at CPU cycle 3743546337, next at 3833202836, pending count: 1
[DRAM_CYCLE_ERROR] Cycle-based error applied! address=0x18e6b8cef0 additional_latency=1990500 cycles
Heartbeat CPU 0 instructions: 1990000270 cycles: 3756945160 heartbeat IPC: 0.2048 cumulative IPC: 0.5297 (Simulation time: 05 hr 08 min 23 sec)

=== ERROR PAGE STATISTICS ===
Mode: CYCLE
Error Cycle Interval: 80000000 CPU cycles
Total Error Accesses: 48
==============================
Simulation finished CPU 0 instructions: 1999999862 cycles: 3801905962 cumulative IPC: 0.5261 (Simulation time: 05 hr 10 min 55 sec)
Simulation complete CPU 0 instructions: 1999999862 cycles: 3801905962 cumulative IPC: 0.5261 (Simulation time: 05 hr 10 min 55 sec)

ChampSim completed all CPUs

=== Simulation ===
CPU 0 runs test_traces/605.mcf_s-994B.champsimtrace.xz

Region of Interest Statistics

CPU 0 cumulative IPC: 0.5261 instructions: 1999999862 cycles: 3801905962
CPU 0 Branch Prediction Accuracy: 92.62% MPKI: 18.99 Average ROB Occupancy at Mispredict: 32.65
Branch type MPKI
BRANCH_DIRECT_JUMP: 0.123
BRANCH_INDIRECT: 0
BRANCH_CONDITIONAL: 18.86
BRANCH_DIRECT_CALL: 6.5e-06
BRANCH_INDIRECT_CALL: 0.0004185
BRANCH_RETURN: 1e-05

cpu0->cpu0_STLB TOTAL        ACCESS:    5250139 HIT:    5249257 MISS:        882 MSHR_MERGE:          0
cpu0->cpu0_STLB LOAD         ACCESS:    5250139 HIT:    5249257 MISS:        882 MSHR_MERGE:          0
cpu0->cpu0_STLB RFO          ACCESS:          0 HIT:          0 MISS:          0 MSHR_MERGE:          0
cpu0->cpu0_STLB PREFETCH     ACCESS:          0 HIT:          0 MISS:          0 MSHR_MERGE:          0
cpu0->cpu0_STLB WRITE        ACCESS:          0 HIT:          0 MISS:          0 MSHR_MERGE:          0
cpu0->cpu0_STLB TRANSLATION  ACCESS:          0 HIT:          0 MISS:          0 MSHR_MERGE:          0
cpu0->cpu0_STLB PREFETCH REQUESTED:          0 ISSUED:          0 USEFUL:          0 USELESS:          0
cpu0->cpu0_STLB AVERAGE MISS LATENCY: 8699 cycles
cpu0->cpu0_L2C TOTAL        ACCESS:   81180832 HIT:   27540037 MISS:   53640795 MSHR_MERGE:          0
cpu0->cpu0_L2C LOAD         ACCESS:   75043368 HIT:   21467027 MISS:   53576341 MSHR_MERGE:          0
cpu0->cpu0_L2C RFO          ACCESS:     492480 HIT:     432311 MISS:      60169 MSHR_MERGE:          0
cpu0->cpu0_L2C PREFETCH     ACCESS:          0 HIT:          0 MISS:          0 MSHR_MERGE:          0
cpu0->cpu0_L2C WRITE        ACCESS:    5644984 HIT:    5640699 MISS:       4285 MSHR_MERGE:          0
cpu0->cpu0_L2C TRANSLATION  ACCESS:          0 HIT:          0 MISS:          0 MSHR_MERGE:          0
cpu0->cpu0_L2C PREFETCH REQUESTED:          0 ISSUED:          0 USEFUL:          0 USELESS:          0
cpu0->cpu0_L2C AVERAGE MISS LATENCY: 95.97 cycles
cpu0->cpu0_L1I TOTAL        ACCESS:    2873606 HIT:    2873515 MISS:         91 MSHR_MERGE:         25
cpu0->cpu0_L1I LOAD         ACCESS:    2873606 HIT:    2873515 MISS:         91 MSHR_MERGE:         25
cpu0->cpu0_L1I RFO          ACCESS:          0 HIT:          0 MISS:          0 MSHR_MERGE:          0
cpu0->cpu0_L1I PREFETCH     ACCESS:          0 HIT:          0 MISS:          0 MSHR_MERGE:          0
cpu0->cpu0_L1I WRITE        ACCESS:          0 HIT:          0 MISS:          0 MSHR_MERGE:          0
cpu0->cpu0_L1I TRANSLATION  ACCESS:          0 HIT:          0 MISS:          0 MSHR_MERGE:          0
cpu0->cpu0_L1I PREFETCH REQUESTED:          0 ISSUED:          0 USEFUL:          0 USELESS:          0
cpu0->cpu0_L1I AVERAGE MISS LATENCY: 101.9 cycles
cpu0->cpu0_L1D TOTAL        ACCESS:  810909072 HIT:  728548496 MISS:   82360576 MSHR_MERGE:    6823607
cpu0->cpu0_L1D LOAD         ACCESS:  610325293 HIT:  529341443 MISS:   80983850 MSHR_MERGE:    5940529
cpu0->cpu0_L1D RFO          ACCESS:          0 HIT:          0 MISS:          0 MSHR_MERGE:          0
cpu0->cpu0_L1D PREFETCH     ACCESS:          0 HIT:          0 MISS:          0 MSHR_MERGE:          0
cpu0->cpu0_L1D WRITE        ACCESS:  200583779 HIT:  199207053 MISS:    1376726 MSHR_MERGE:     883078
cpu0->cpu0_L1D TRANSLATION  ACCESS:          0 HIT:          0 MISS:          0 MSHR_MERGE:          0
cpu0->cpu0_L1D PREFETCH REQUESTED:          0 ISSUED:          0 USEFUL:          0 USELESS:          0
cpu0->cpu0_L1D AVERAGE MISS LATENCY: 76.99 cycles
cpu0->cpu0_ITLB TOTAL        ACCESS:    2723045 HIT:    2723044 MISS:          1 MSHR_MERGE:          0
cpu0->cpu0_ITLB LOAD         ACCESS:    2723045 HIT:    2723044 MISS:          1 MSHR_MERGE:          0
cpu0->cpu0_ITLB RFO          ACCESS:          0 HIT:          0 MISS:          0 MSHR_MERGE:          0
cpu0->cpu0_ITLB PREFETCH     ACCESS:          0 HIT:          0 MISS:          0 MSHR_MERGE:          0
cpu0->cpu0_ITLB WRITE        ACCESS:          0 HIT:          0 MISS:          0 MSHR_MERGE:          0
cpu0->cpu0_ITLB TRANSLATION  ACCESS:          0 HIT:          0 MISS:          0 MSHR_MERGE:          0
cpu0->cpu0_ITLB PREFETCH REQUESTED:          0 ISSUED:          0 USEFUL:          0 USELESS:          0
cpu0->cpu0_ITLB AVERAGE MISS LATENCY: 1.722e+04 cycles
cpu0->cpu0_DTLB TOTAL        ACCESS:  704836211 HIT:  699162580 MISS:    5673631 MSHR_MERGE:     423493
cpu0->cpu0_DTLB LOAD         ACCESS:  704836211 HIT:  699162580 MISS:    5673631 MSHR_MERGE:     423493
cpu0->cpu0_DTLB RFO          ACCESS:          0 HIT:          0 MISS:          0 MSHR_MERGE:          0
cpu0->cpu0_DTLB PREFETCH     ACCESS:          0 HIT:          0 MISS:          0 MSHR_MERGE:          0
cpu0->cpu0_DTLB WRITE        ACCESS:          0 HIT:          0 MISS:          0 MSHR_MERGE:          0
cpu0->cpu0_DTLB TRANSLATION  ACCESS:          0 HIT:          0 MISS:          0 MSHR_MERGE:          0
cpu0->cpu0_DTLB PREFETCH REQUESTED:          0 ISSUED:          0 USEFUL:          0 USELESS:          0
cpu0->cpu0_DTLB AVERAGE MISS LATENCY: 6.466 cycles
cpu0->LLC TOTAL        ACCESS:   57571098 HIT:   16528555 MISS:   41042543 MSHR_MERGE:          0
cpu0->LLC LOAD         ACCESS:   53576341 HIT:   12553508 MISS:   41022833 MSHR_MERGE:          0
cpu0->LLC RFO          ACCESS:      60169 HIT:      41694 MISS:      18475 MSHR_MERGE:          0
cpu0->LLC PREFETCH     ACCESS:          0 HIT:          0 MISS:          0 MSHR_MERGE:          0
cpu0->LLC WRITE        ACCESS:    3934588 HIT:    3933353 MISS:       1235 MSHR_MERGE:          0
cpu0->LLC TRANSLATION  ACCESS:          0 HIT:          0 MISS:          0 MSHR_MERGE:          0
cpu0->LLC PREFETCH REQUESTED:          0 ISSUED:          0 USEFUL:          0 USELESS:          0
cpu0->LLC AVERAGE MISS LATENCY: 104.8 cycles

DRAM Statistics

Channel 0 RQ ROW_BUFFER_HIT:     271770
  ROW_BUFFER_MISS:   20250004
  AVG DBUS CONGESTED CYCLE: 9.319
Channel 0 WQ ROW_BUFFER_HIT:     331882
  ROW_BUFFER_MISS:    1235912
  FULL:          0
Channel 0 REFRESHES ISSUED:     316805

Channel 1 RQ ROW_BUFFER_HIT:     271482
  ROW_BUFFER_MISS:   20249770
  AVG DBUS CONGESTED CYCLE: 9.317
Channel 1 WQ ROW_BUFFER_HIT:     331329
  ROW_BUFFER_MISS:    1236519
  FULL:          0
Channel 1 REFRESHES ISSUED:     316805
