[VMEM] WARNING: physical memory size is smaller than virtual memory size.

*** ChampSim Multicore Out-of-Order Simulator ***
Warmup Instructions: 0
Simulation Instructions: 9223372036854775807
Number of CPUs: 1
Page size: 4096

Off-chip DRAM Size: 32 GiB Channels: 2 Width: 32-bit Data Rate: 4807 MT/s
[ERROR_PAGE_MANAGER] Error latency: 173500 
[ERROR_PAGE_MANAGER] Random seed: 54321 (fixed for preload reproducibility)
[ERROR_PAGE_MANAGER] Cycle-based error modeling enabled
[ERROR_PAGE_MANAGER] Errors per interval: 1
[ERROR_PAGE_MANAGER] Error cycle interval: 20000000 cycles

=== ERROR PAGE STATISTICS ===
Mode: CYCLE
Error Cycle Interval: 20000000 CPU cycles
Total Error Accesses: 0
==============================
Warmup finished CPU 0 instructions: 0 cycles: 1 cumulative IPC: 0 (Simulation time: 00 hr 00 min 00 sec)
Warmup complete CPU 0 instructions: 0 cycles: 1 cumulative IPC: 0 (Simulation time: 00 hr 00 min 00 sec)
Heartbeat CPU 0 instructions: 10000004 cycles: 9927866 heartbeat IPC: 1.007 cumulative IPC: 1.007 (Simulation time: 00 hr 01 min 25 sec)
[ERROR_CYCLE] Error added at CPU cycle 14255611, next at 18306612, pending count: 1
[DRAM_CYCLE_ERROR] Cycle-based error applied! address=0x67d4d28c0 additional_latency=173500 cycles
[ERROR_CYCLE] Error added at CPU cycle 18306612, next at 51392127, pending count: 1
[DRAM_CYCLE_ERROR] Cycle-based error applied! address=0x4c26cde78 additional_latency=173500 cycles
Heartbeat CPU 0 instructions: 20000005 cycles: 22343012 heartbeat IPC: 0.8055 cumulative IPC: 0.8951 (Simulation time: 00 hr 03 min 07 sec)
Heartbeat CPU 0 instructions: 30000009 cycles: 36941591 heartbeat IPC: 0.685 cumulative IPC: 0.8121 (Simulation time: 00 hr 04 min 56 sec)
Heartbeat CPU 0 instructions: 40000010 cycles: 48233545 heartbeat IPC: 0.8856 cumulative IPC: 0.8293 (Simulation time: 00 hr 06 min 27 sec)
[ERROR_CYCLE] Error added at CPU cycle 51392127, next at 106935378, pending count: 1
[DRAM_CYCLE_ERROR] Cycle-based error applied! address=0x5cef4ef28 additional_latency=173500 cycles
Heartbeat CPU 0 instructions: 50000010 cycles: 58471477 heartbeat IPC: 0.9768 cumulative IPC: 0.8551 (Simulation time: 00 hr 07 min 50 sec)
Heartbeat CPU 0 instructions: 60000014 cycles: 68109833 heartbeat IPC: 1.038 cumulative IPC: 0.8809 (Simulation time: 00 hr 09 min 09 sec)
Heartbeat CPU 0 instructions: 70000014 cycles: 77444465 heartbeat IPC: 1.071 cumulative IPC: 0.9039 (Simulation time: 00 hr 10 min 25 sec)
Heartbeat CPU 0 instructions: 80000014 cycles: 85299803 heartbeat IPC: 1.273 cumulative IPC: 0.9379 (Simulation time: 00 hr 11 min 33 sec)
Heartbeat CPU 0 instructions: 90000015 cycles: 93260219 heartbeat IPC: 1.256 cumulative IPC: 0.965 (Simulation time: 00 hr 12 min 43 sec)
Heartbeat CPU 0 instructions: 100000015 cycles: 103260527 heartbeat IPC: 1 cumulative IPC: 0.9684 (Simulation time: 00 hr 14 min 04 sec)
[ERROR_CYCLE] Error added at CPU cycle 106935379, next at 107536449, pending count: 1
[DRAM_CYCLE_ERROR] Cycle-based error applied! address=0x38e6093c8 additional_latency=173500 cycles
[ERROR_CYCLE] Error added at CPU cycle 107536449, next at 138277283, pending count: 1
[DRAM_CYCLE_ERROR] Cycle-based error applied! address=0x5970d1678 additional_latency=173500 cycles
Heartbeat CPU 0 instructions: 110000018 cycles: 117836756 heartbeat IPC: 0.686 cumulative IPC: 0.9335 (Simulation time: 00 hr 15 min 55 sec)
Heartbeat CPU 0 instructions: 120000020 cycles: 128947233 heartbeat IPC: 0.9001 cumulative IPC: 0.9306 (Simulation time: 00 hr 17 min 25 sec)
[ERROR_CYCLE] Error added at CPU cycle 138277283, next at 141856885, pending count: 1
[DRAM_CYCLE_ERROR] Cycle-based error applied! address=0xd966f28 additional_latency=173500 cycles
Heartbeat CPU 0 instructions: 130000020 cycles: 139094479 heartbeat IPC: 0.9855 cumulative IPC: 0.9346 (Simulation time: 00 hr 18 min 46 sec)
[ERROR_CYCLE] Error added at CPU cycle 141856885, next at 153234841, pending count: 1
[DRAM_CYCLE_ERROR] Cycle-based error applied! address=0x1230ed2b0 additional_latency=173500 cycles
Heartbeat CPU 0 instructions: 140000021 cycles: 148725020 heartbeat IPC: 1.038 cumulative IPC: 0.9413 (Simulation time: 00 hr 20 min 05 sec)
[ERROR_CYCLE] Error added at CPU cycle 153234841, next at 170313718, pending count: 1
[DRAM_CYCLE_ERROR] Cycle-based error applied! address=0x350ced098 additional_latency=173500 cycles
Heartbeat CPU 0 instructions: 150000022 cycles: 157315608 heartbeat IPC: 1.164 cumulative IPC: 0.9535 (Simulation time: 00 hr 21 min 09 sec)
Heartbeat CPU 0 instructions: 160000024 cycles: 165354271 heartbeat IPC: 1.244 cumulative IPC: 0.9676 (Simulation time: 00 hr 22 min 09 sec)
[ERROR_CYCLE] Error added at CPU cycle 170313718, next at 175206749, pending count: 1
[DRAM_CYCLE_ERROR] Cycle-based error applied! address=0x16d0252b0 additional_latency=173500 cycles
[ERROR_CYCLE] Error added at CPU cycle 175206749, next at 210725907, pending count: 1
[DRAM_CYCLE_ERROR] Cycle-based error applied! address=0x26f971d40 additional_latency=173500 cycles
Heartbeat CPU 0 instructions: 170000027 cycles: 175891388 heartbeat IPC: 0.949 cumulative IPC: 0.9665 (Simulation time: 00 hr 23 min 38 sec)
Heartbeat CPU 0 instructions: 180000031 cycles: 189661655 heartbeat IPC: 0.7262 cumulative IPC: 0.9491 (Simulation time: 00 hr 25 min 19 sec)
Heartbeat CPU 0 instructions: 190000035 cycles: 200339176 heartbeat IPC: 0.9365 cumulative IPC: 0.9484 (Simulation time: 00 hr 26 min 37 sec)
Heartbeat CPU 0 instructions: 200000037 cycles: 210240264 heartbeat IPC: 1.01 cumulative IPC: 0.9513 (Simulation time: 00 hr 27 min 49 sec)
[ERROR_CYCLE] Error added at CPU cycle 210725908, next at 217846273, pending count: 1
[DRAM_CYCLE_ERROR] Cycle-based error applied! address=0x7a29d9d08 additional_latency=173500 cycles
[ERROR_CYCLE] Error added at CPU cycle 217846274, next at 226797996, pending count: 1
[DRAM_CYCLE_ERROR] Cycle-based error applied! address=0x1a8fe7be0 additional_latency=173500 cycles
Heartbeat CPU 0 instructions: 210000041 cycles: 223910177 heartbeat IPC: 0.7315 cumulative IPC: 0.9379 (Simulation time: 00 hr 29 min 23 sec)
[ERROR_CYCLE] Error added at CPU cycle 226797996, next at 267503668, pending count: 1
[DRAM_CYCLE_ERROR] Cycle-based error applied! address=0x610c21040 additional_latency=173500 cycles
Heartbeat CPU 0 instructions: 220000041 cycles: 234905775 heartbeat IPC: 0.9095 cumulative IPC: 0.9365 (Simulation time: 00 hr 30 min 44 sec)
Heartbeat CPU 0 instructions: 230000042 cycles: 245134817 heartbeat IPC: 0.9776 cumulative IPC: 0.9383 (Simulation time: 00 hr 32 min 03 sec)
Heartbeat CPU 0 instructions: 240000044 cycles: 254883140 heartbeat IPC: 1.026 cumulative IPC: 0.9416 (Simulation time: 00 hr 33 min 19 sec)
Heartbeat CPU 0 instructions: 250000045 cycles: 264295235 heartbeat IPC: 1.062 cumulative IPC: 0.9459 (Simulation time: 00 hr 34 min 39 sec)
[ERROR_CYCLE] Error added at CPU cycle 267503668, next at 267748717, pending count: 1
[DRAM_CYCLE_ERROR] Cycle-based error applied! address=0x1789a8d08 additional_latency=173500 cycles
[ERROR_CYCLE] Error added at CPU cycle 267748717, next at 290247725, pending count: 1
[DRAM_CYCLE_ERROR] Cycle-based error applied! address=0x153b5dbc8 additional_latency=173500 cycles
Heartbeat CPU 0 instructions: 260000047 cycles: 273433626 heartbeat IPC: 1.094 cumulative IPC: 0.9509 (Simulation time: 00 hr 36 min 00 sec)
Heartbeat CPU 0 instructions: 270000047 cycles: 282315148 heartbeat IPC: 1.126 cumulative IPC: 0.9564 (Simulation time: 00 hr 37 min 18 sec)
[ERROR_CYCLE] Error added at CPU cycle 290247726, next at 303374226, pending count: 1
[DRAM_CYCLE_ERROR] Cycle-based error applied! address=0x21cf77e00 additional_latency=173500 cycles
Heartbeat CPU 0 instructions: 280000048 cycles: 291075370 heartbeat IPC: 1.142 cumulative IPC: 0.962 (Simulation time: 00 hr 38 min 23 sec)
Heartbeat CPU 0 instructions: 290000052 cycles: 298181447 heartbeat IPC: 1.407 cumulative IPC: 0.9726 (Simulation time: 00 hr 39 min 26 sec)
[ERROR_CYCLE] Error added at CPU cycle 303374226, next at 379052965, pending count: 1
[DRAM_CYCLE_ERROR] Cycle-based error applied! address=0x6a260fb38 additional_latency=173500 cycles
Heartbeat CPU 0 instructions: 300000053 cycles: 304632289 heartbeat IPC: 1.55 cumulative IPC: 0.9848 (Simulation time: 00 hr 40 min 27 sec)
Heartbeat CPU 0 instructions: 310000056 cycles: 311490255 heartbeat IPC: 1.458 cumulative IPC: 0.9952 (Simulation time: 00 hr 41 min 13 sec)
Heartbeat CPU 0 instructions: 320000058 cycles: 319004228 heartbeat IPC: 1.331 cumulative IPC: 1.003 (Simulation time: 00 hr 41 min 58 sec)
Heartbeat CPU 0 instructions: 330000058 cycles: 327360215 heartbeat IPC: 1.197 cumulative IPC: 1.008 (Simulation time: 00 hr 42 min 47 sec)
Heartbeat CPU 0 instructions: 340000062 cycles: 336785290 heartbeat IPC: 1.061 cumulative IPC: 1.01 (Simulation time: 00 hr 43 min 40 sec)
Heartbeat CPU 0 instructions: 350000066 cycles: 348141761 heartbeat IPC: 0.8806 cumulative IPC: 1.005 (Simulation time: 00 hr 44 min 56 sec)
Heartbeat CPU 0 instructions: 360000069 cycles: 362873421 heartbeat IPC: 0.6788 cumulative IPC: 0.9921 (Simulation time: 00 hr 46 min 25 sec)
Heartbeat CPU 0 instructions: 370000073 cycles: 374004016 heartbeat IPC: 0.8984 cumulative IPC: 0.9893 (Simulation time: 00 hr 48 min 00 sec)
[ERROR_CYCLE] Error added at CPU cycle 379052966, next at 383791854, pending count: 1
[DRAM_CYCLE_ERROR] Cycle-based error applied! address=0x3a5e60f28 additional_latency=173500 cycles
[ERROR_CYCLE] Error added at CPU cycle 383791855, next at 388594052, pending count: 1
[DRAM_CYCLE_ERROR] Cycle-based error applied! address=0x257a23108 additional_latency=173500 cycles
Heartbeat CPU 0 instructions: 380000077 cycles: 386287539 heartbeat IPC: 0.8141 cumulative IPC: 0.9837 (Simulation time: 00 hr 49 min 33 sec)
[ERROR_CYCLE] Error added at CPU cycle 388594053, next at 446238065, pending count: 1
[DRAM_CYCLE_ERROR] Cycle-based error applied! address=0x600ed5d40 additional_latency=173500 cycles
Heartbeat CPU 0 instructions: 390000077 cycles: 396899708 heartbeat IPC: 0.9423 cumulative IPC: 0.9826 (Simulation time: 00 hr 50 min 44 sec)
Heartbeat CPU 0 instructions: 400000079 cycles: 406752907 heartbeat IPC: 1.015 cumulative IPC: 0.9834 (Simulation time: 00 hr 52 min 02 sec)
Heartbeat CPU 0 instructions: 410000083 cycles: 416206884 heartbeat IPC: 1.058 cumulative IPC: 0.9851 (Simulation time: 00 hr 53 min 12 sec)
Heartbeat CPU 0 instructions: 420000083 cycles: 425169358 heartbeat IPC: 1.116 cumulative IPC: 0.9878 (Simulation time: 00 hr 54 min 30 sec)
Heartbeat CPU 0 instructions: 430000086 cycles: 432373858 heartbeat IPC: 1.388 cumulative IPC: 0.9945 (Simulation time: 00 hr 55 min 39 sec)
Heartbeat CPU 0 instructions: 440000090 cycles: 440666524 heartbeat IPC: 1.206 cumulative IPC: 0.9985 (Simulation time: 00 hr 56 min 52 sec)
[ERROR_CYCLE] Error added at CPU cycle 446238066, next at 454133415, pending count: 1
[DRAM_CYCLE_ERROR] Cycle-based error applied! address=0x1f291b2b0 additional_latency=173500 cycles
Heartbeat CPU 0 instructions: 450000090 cycles: 451327034 heartbeat IPC: 0.938 cumulative IPC: 0.9971 (Simulation time: 00 hr 58 min 00 sec)
[ERROR_CYCLE] Error added at CPU cycle 454133415, next at 539692982, pending count: 1
[DRAM_CYCLE_ERROR] Cycle-based error applied! address=0x697ca27e0 additional_latency=173500 cycles
Heartbeat CPU 0 instructions: 460000094 cycles: 464964290 heartbeat IPC: 0.7333 cumulative IPC: 0.9893 (Simulation time: 00 hr 59 min 36 sec)
Heartbeat CPU 0 instructions: 470000095 cycles: 476651162 heartbeat IPC: 0.8557 cumulative IPC: 0.986 (Simulation time: 01 hr 01 min 18 sec)
Heartbeat CPU 0 instructions: 480000096 cycles: 487516211 heartbeat IPC: 0.9204 cumulative IPC: 0.9846 (Simulation time: 01 hr 02 min 48 sec)
Heartbeat CPU 0 instructions: 490000100 cycles: 497603793 heartbeat IPC: 0.9913 cumulative IPC: 0.9847 (Simulation time: 01 hr 03 min 58 sec)
Heartbeat CPU 0 instructions: 500000100 cycles: 507408140 heartbeat IPC: 1.02 cumulative IPC: 0.9854 (Simulation time: 01 hr 05 min 02 sec)
Heartbeat CPU 0 instructions: 510000103 cycles: 516777714 heartbeat IPC: 1.067 cumulative IPC: 0.9869 (Simulation time: 01 hr 06 min 03 sec)
Heartbeat CPU 0 instructions: 520000107 cycles: 525853301 heartbeat IPC: 1.102 cumulative IPC: 0.9889 (Simulation time: 01 hr 07 min 00 sec)
Heartbeat CPU 0 instructions: 530000107 cycles: 534694741 heartbeat IPC: 1.131 cumulative IPC: 0.9912 (Simulation time: 01 hr 08 min 09 sec)
[ERROR_CYCLE] Error added at CPU cycle 539692982, next at 551194342, pending count: 1
[DRAM_CYCLE_ERROR] Cycle-based error applied! address=0x7c151e3e0 additional_latency=173500 cycles
Heartbeat CPU 0 instructions: 540000110 cycles: 543363235 heartbeat IPC: 1.154 cumulative IPC: 0.9938 (Simulation time: 01 hr 09 min 05 sec)
[ERROR_CYCLE] Error added at CPU cycle 551194342, next at 618463271, pending count: 1
[DRAM_CYCLE_ERROR] Cycle-based error applied! address=0x1b0647040 additional_latency=173500 cycles
Heartbeat CPU 0 instructions: 550000112 cycles: 551839451 heartbeat IPC: 1.18 cumulative IPC: 0.9967 (Simulation time: 01 hr 10 min 06 sec)
Heartbeat CPU 0 instructions: 560000112 cycles: 560150776 heartbeat IPC: 1.203 cumulative IPC: 0.9997 (Simulation time: 01 hr 11 min 15 sec)
Heartbeat CPU 0 instructions: 570000113 cycles: 568383676 heartbeat IPC: 1.215 cumulative IPC: 1.003 (Simulation time: 01 hr 12 min 30 sec)
Heartbeat CPU 0 instructions: 580000116 cycles: 576499555 heartbeat IPC: 1.232 cumulative IPC: 1.006 (Simulation time: 01 hr 13 min 45 sec)
Heartbeat CPU 0 instructions: 590000117 cycles: 584531932 heartbeat IPC: 1.245 cumulative IPC: 1.009 (Simulation time: 01 hr 14 min 59 sec)
Heartbeat CPU 0 instructions: 600000117 cycles: 592445490 heartbeat IPC: 1.264 cumulative IPC: 1.013 (Simulation time: 01 hr 16 min 12 sec)
Heartbeat CPU 0 instructions: 610000119 cycles: 600213682 heartbeat IPC: 1.287 cumulative IPC: 1.016 (Simulation time: 01 hr 17 min 24 sec)
Heartbeat CPU 0 instructions: 620000119 cycles: 607894501 heartbeat IPC: 1.302 cumulative IPC: 1.02 (Simulation time: 01 hr 18 min 36 sec)
Heartbeat CPU 0 instructions: 630000120 cycles: 615478371 heartbeat IPC: 1.319 cumulative IPC: 1.024 (Simulation time: 01 hr 19 min 48 sec)
[ERROR_CYCLE] Error added at CPU cycle 618463271, next at 624429521, pending count: 1
[DRAM_CYCLE_ERROR] Cycle-based error applied! address=0x2239802c0 additional_latency=173500 cycles
Heartbeat CPU 0 instructions: 640000121 cycles: 622867793 heartbeat IPC: 1.353 cumulative IPC: 1.028 (Simulation time: 01 hr 20 min 59 sec)
[ERROR_CYCLE] Error added at CPU cycle 624429521, next at 652969032, pending count: 1
[DRAM_CYCLE_ERROR] Cycle-based error applied! address=0x6c1d287f0 additional_latency=173500 cycles
Heartbeat CPU 0 instructions: 650000123 cycles: 630150646 heartbeat IPC: 1.373 cumulative IPC: 1.031 (Simulation time: 01 hr 22 min 10 sec)
Heartbeat CPU 0 instructions: 660000124 cycles: 635688571 heartbeat IPC: 1.806 cumulative IPC: 1.038 (Simulation time: 01 hr 23 min 08 sec)
Heartbeat CPU 0 instructions: 670000125 cycles: 640995216 heartbeat IPC: 1.884 cumulative IPC: 1.045 (Simulation time: 01 hr 23 min 47 sec)
Heartbeat CPU 0 instructions: 680000126 cycles: 646462566 heartbeat IPC: 1.829 cumulative IPC: 1.052 (Simulation time: 01 hr 24 min 23 sec)
Heartbeat CPU 0 instructions: 690000126 cycles: 652033856 heartbeat IPC: 1.795 cumulative IPC: 1.058 (Simulation time: 01 hr 25 min 21 sec)
[ERROR_CYCLE] Error added at CPU cycle 652969033, next at 657238516, pending count: 1
[DRAM_CYCLE_ERROR] Cycle-based error applied! address=0x4cfeb2638 additional_latency=173500 cycles
[ERROR_CYCLE] Error added at CPU cycle 657238516, next at 663890677, pending count: 1
[DRAM_CYCLE_ERROR] Cycle-based error applied! address=0x43220c8b8 additional_latency=173500 cycles
Heartbeat CPU 0 instructions: 700000126 cycles: 657798954 heartbeat IPC: 1.735 cumulative IPC: 1.064 (Simulation time: 01 hr 26 min 19 sec)
Heartbeat CPU 0 instructions: 710000127 cycles: 663700591 heartbeat IPC: 1.694 cumulative IPC: 1.07 (Simulation time: 01 hr 27 min 19 sec)
[ERROR_CYCLE] Error added at CPU cycle 663890677, next at 693244034, pending count: 1
[DRAM_CYCLE_ERROR] Cycle-based error applied! address=0x1a8fe7fc8 additional_latency=173500 cycles
Heartbeat CPU 0 instructions: 720000130 cycles: 669675995 heartbeat IPC: 1.674 cumulative IPC: 1.075 (Simulation time: 01 hr 28 min 18 sec)
Heartbeat CPU 0 instructions: 730000130 cycles: 675875784 heartbeat IPC: 1.613 cumulative IPC: 1.08 (Simulation time: 01 hr 29 min 19 sec)
Heartbeat CPU 0 instructions: 740000130 cycles: 682168490 heartbeat IPC: 1.589 cumulative IPC: 1.085 (Simulation time: 01 hr 30 min 15 sec)
Heartbeat CPU 0 instructions: 750000130 cycles: 688715824 heartbeat IPC: 1.527 cumulative IPC: 1.089 (Simulation time: 01 hr 31 min 02 sec)
[ERROR_CYCLE] Error added at CPU cycle 693244035, next at 693408343, pending count: 1
[DRAM_CYCLE_ERROR] Cycle-based error applied! address=0x6123662f8 additional_latency=173500 cycles
[ERROR_CYCLE] Error added at CPU cycle 693408343, next at 702111115, pending count: 1
[DRAM_CYCLE_ERROR] Cycle-based error applied! address=0x612366398 additional_latency=173500 cycles
Heartbeat CPU 0 instructions: 760000130 cycles: 695339188 heartbeat IPC: 1.51 cumulative IPC: 1.093 (Simulation time: 01 hr 31 min 50 sec)
[ERROR_CYCLE] Error added at CPU cycle 702111115, next at 707431038, pending count: 1
[DRAM_CYCLE_ERROR] Cycle-based error applied! address=0x79e04aa70 additional_latency=173500 cycles
Heartbeat CPU 0 instructions: 770000130 cycles: 702347995 heartbeat IPC: 1.427 cumulative IPC: 1.096 (Simulation time: 01 hr 32 min 45 sec)
[ERROR_CYCLE] Error added at CPU cycle 707431038, next at 717157141, pending count: 1
[DRAM_CYCLE_ERROR] Cycle-based error applied! address=0x24f937c00 additional_latency=173500 cycles
Heartbeat CPU 0 instructions: 780000130 cycles: 709404487 heartbeat IPC: 1.417 cumulative IPC: 1.1 (Simulation time: 01 hr 33 min 37 sec)
Heartbeat CPU 0 instructions: 790000132 cycles: 716697553 heartbeat IPC: 1.371 cumulative IPC: 1.102 (Simulation time: 01 hr 34 min 37 sec)
[ERROR_CYCLE] Error added at CPU cycle 717157141, next at 719468166, pending count: 1
[DRAM_CYCLE_ERROR] Cycle-based error applied! address=0x1f5bebc8 additional_latency=173500 cycles
[ERROR_CYCLE] Error added at CPU cycle 719468166, next at 729931125, pending count: 1
[DRAM_CYCLE_ERROR] Cycle-based error applied! address=0x35fa5cf60 additional_latency=173500 cycles
Heartbeat CPU 0 instructions: 800000133 cycles: 724263994 heartbeat IPC: 1.322 cumulative IPC: 1.105 (Simulation time: 01 hr 35 min 41 sec)
[ERROR_CYCLE] Error added at CPU cycle 729931125, next at 740327757, pending count: 1
[DRAM_CYCLE_ERROR] Cycle-based error applied! address=0x1524b6cb0 additional_latency=173500 cycles
Heartbeat CPU 0 instructions: 810000137 cycles: 732127249 heartbeat IPC: 1.272 cumulative IPC: 1.106 (Simulation time: 01 hr 36 min 51 sec)
[ERROR_CYCLE] Error added at CPU cycle 740327757, next at 769723378, pending count: 1
[DRAM_CYCLE_ERROR] Cycle-based error applied! address=0x51cc31258 additional_latency=173500 cycles
Heartbeat CPU 0 instructions: 820000138 cycles: 740636919 heartbeat IPC: 1.175 cumulative IPC: 1.107 (Simulation time: 01 hr 38 min 04 sec)
Heartbeat CPU 0 instructions: 830000138 cycles: 749237329 heartbeat IPC: 1.163 cumulative IPC: 1.108 (Simulation time: 01 hr 39 min 18 sec)
Heartbeat CPU 0 instructions: 840000139 cycles: 758438743 heartbeat IPC: 1.087 cumulative IPC: 1.108 (Simulation time: 01 hr 40 min 36 sec)
Heartbeat CPU 0 instructions: 850000142 cycles: 768242794 heartbeat IPC: 1.02 cumulative IPC: 1.106 (Simulation time: 01 hr 41 min 48 sec)
[ERROR_CYCLE] Error added at CPU cycle 769723378, next at 806610107, pending count: 1
[DRAM_CYCLE_ERROR] Cycle-based error applied! address=0x66c3e78a0 additional_latency=173500 cycles
Heartbeat CPU 0 instructions: 860000142 cycles: 778909169 heartbeat IPC: 0.9375 cumulative IPC: 1.104 (Simulation time: 01 hr 42 min 54 sec)
Heartbeat CPU 0 instructions: 870000143 cycles: 790480822 heartbeat IPC: 0.8642 cumulative IPC: 1.101 (Simulation time: 01 hr 44 min 01 sec)
Heartbeat CPU 0 instructions: 880000144 cycles: 803807690 heartbeat IPC: 0.7504 cumulative IPC: 1.095 (Simulation time: 01 hr 45 min 34 sec)
[ERROR_CYCLE] Error added at CPU cycle 806610107, next at 816598203, pending count: 1
[DRAM_CYCLE_ERROR] Cycle-based error applied! address=0x69b2886f8 additional_latency=173500 cycles
[ERROR_CYCLE] Error added at CPU cycle 816598204, next at 829157728, pending count: 1
[DRAM_CYCLE_ERROR] Cycle-based error applied! address=0x73ee3ec98 additional_latency=173500 cycles
Heartbeat CPU 0 instructions: 890000146 cycles: 820037711 heartbeat IPC: 0.6161 cumulative IPC: 1.085 (Simulation time: 01 hr 47 min 33 sec)
[ERROR_CYCLE] Error added at CPU cycle 829157728, next at 831354542, pending count: 1
[DRAM_CYCLE_ERROR] Cycle-based error applied! address=0x1f0b46b10 additional_latency=173500 cycles
[ERROR_CYCLE] Error added at CPU cycle 831354542, next at 835587951, pending count: 1
[DRAM_CYCLE_ERROR] Cycle-based error applied! address=0x6247390 additional_latency=173500 cycles
Heartbeat CPU 0 instructions: 900000146 cycles: 834629074 heartbeat IPC: 0.6853 cumulative IPC: 1.078 (Simulation time: 01 hr 49 min 24 sec)
[ERROR_CYCLE] Error added at CPU cycle 835587951, next at 857924333, pending count: 1
[DRAM_CYCLE_ERROR] Cycle-based error applied! address=0x4e7b6d230 additional_latency=173500 cycles
Heartbeat CPU 0 instructions: 910000146 cycles: 845333750 heartbeat IPC: 0.9342 cumulative IPC: 1.076 (Simulation time: 01 hr 50 min 53 sec)
[ERROR_CYCLE] Error added at CPU cycle 857924334, next at 870797452, pending count: 1
[DRAM_CYCLE_ERROR] Cycle-based error applied! address=0x51f29e2c0 additional_latency=173500 cycles
Heartbeat CPU 0 instructions: 920000147 cycles: 859012893 heartbeat IPC: 0.731 cumulative IPC: 1.071 (Simulation time: 01 hr 52 min 46 sec)
Heartbeat CPU 0 instructions: 930000148 cycles: 870138993 heartbeat IPC: 0.8988 cumulative IPC: 1.069 (Simulation time: 01 hr 54 min 12 sec)
[ERROR_CYCLE] Error added at CPU cycle 870797452, next at 903141115, pending count: 1
[DRAM_CYCLE_ERROR] Cycle-based error applied! address=0x11232a710 additional_latency=173500 cycles
Heartbeat CPU 0 instructions: 940000148 cycles: 880352608 heartbeat IPC: 0.9791 cumulative IPC: 1.068 (Simulation time: 01 hr 55 min 36 sec)
Heartbeat CPU 0 instructions: 950000151 cycles: 889967898 heartbeat IPC: 1.04 cumulative IPC: 1.067 (Simulation time: 01 hr 56 min 59 sec)
Heartbeat CPU 0 instructions: 960000151 cycles: 899227201 heartbeat IPC: 1.08 cumulative IPC: 1.068 (Simulation time: 01 hr 58 min 16 sec)
[ERROR_CYCLE] Error added at CPU cycle 903141115, next at 908832379, pending count: 1
[DRAM_CYCLE_ERROR] Cycle-based error applied! address=0x632fc7380 additional_latency=173500 cycles
Heartbeat CPU 0 instructions: 970000152 cycles: 907207462 heartbeat IPC: 1.253 cumulative IPC: 1.069 (Simulation time: 01 hr 59 min 14 sec)
[ERROR_CYCLE] Error added at CPU cycle 908832379, next at 935886573, pending count: 1
[DRAM_CYCLE_ERROR] Cycle-based error applied! address=0x748d83710 additional_latency=173500 cycles
Heartbeat CPU 0 instructions: 980000156 cycles: 914675948 heartbeat IPC: 1.339 cumulative IPC: 1.071 (Simulation time: 02 hr 00 min 12 sec)
Heartbeat CPU 0 instructions: 990000157 cycles: 923692893 heartbeat IPC: 1.109 cumulative IPC: 1.072 (Simulation time: 02 hr 01 min 18 sec)
Heartbeat CPU 0 instructions: 1000000157 cycles: 935653101 heartbeat IPC: 0.8361 cumulative IPC: 1.069 (Simulation time: 02 hr 02 min 54 sec)
[ERROR_CYCLE] Error added at CPU cycle 935886573, next at 958300697, pending count: 1
[DRAM_CYCLE_ERROR] Cycle-based error applied! address=0x635f56080 additional_latency=173500 cycles
Heartbeat CPU 0 instructions: 1010000157 cycles: 949916021 heartbeat IPC: 0.7011 cumulative IPC: 1.063 (Simulation time: 02 hr 04 min 51 sec)
[ERROR_CYCLE] Error added at CPU cycle 958300698, next at 979637607, pending count: 1
[DRAM_CYCLE_ERROR] Cycle-based error applied! address=0x469cff140 additional_latency=173500 cycles
Heartbeat CPU 0 instructions: 1020000158 cycles: 960979697 heartbeat IPC: 0.9039 cumulative IPC: 1.061 (Simulation time: 02 hr 06 min 24 sec)
Heartbeat CPU 0 instructions: 1030000158 cycles: 973850689 heartbeat IPC: 0.7769 cumulative IPC: 1.058 (Simulation time: 02 hr 07 min 52 sec)
[ERROR_CYCLE] Error added at CPU cycle 979637607, next at 984398776, pending count: 1
[DRAM_CYCLE_ERROR] Cycle-based error applied! address=0x2e1238f40 additional_latency=173500 cycles
[ERROR_CYCLE] Error added at CPU cycle 984398776, next at 1002210124, pending count: 1
[DRAM_CYCLE_ERROR] Cycle-based error applied! address=0x2eb303880 additional_latency=173500 cycles
Heartbeat CPU 0 instructions: 1040000158 cycles: 985033711 heartbeat IPC: 0.8942 cumulative IPC: 1.056 (Simulation time: 02 hr 09 min 28 sec)
Heartbeat CPU 0 instructions: 1050000158 cycles: 997511236 heartbeat IPC: 0.8014 cumulative IPC: 1.053 (Simulation time: 02 hr 11 min 13 sec)
[ERROR_CYCLE] Error added at CPU cycle 1002210124, next at 1032827874, pending count: 1
[DRAM_CYCLE_ERROR] Cycle-based error applied! address=0x4b48b0b88 additional_latency=173500 cycles
Heartbeat CPU 0 instructions: 1060000158 cycles: 1009818264 heartbeat IPC: 0.8125 cumulative IPC: 1.05 (Simulation time: 02 hr 12 min 33 sec)
Heartbeat CPU 0 instructions: 1070000158 cycles: 1020391289 heartbeat IPC: 0.9458 cumulative IPC: 1.049 (Simulation time: 02 hr 14 min 03 sec)
Heartbeat CPU 0 instructions: 1080000160 cycles: 1030012606 heartbeat IPC: 1.039 cumulative IPC: 1.049 (Simulation time: 02 hr 15 min 16 sec)
[ERROR_CYCLE] Error added at CPU cycle 1032827875, next at 1046516285, pending count: 1
[DRAM_CYCLE_ERROR] Cycle-based error applied! address=0x635f56098 additional_latency=173500 cycles
Heartbeat CPU 0 instructions: 1090000160 cycles: 1042597664 heartbeat IPC: 0.7946 cumulative IPC: 1.045 (Simulation time: 02 hr 16 min 48 sec)
[ERROR_CYCLE] Error added at CPU cycle 1046516285, next at 1048641051, pending count: 1
[DRAM_CYCLE_ERROR] Cycle-based error applied! address=0x7be059900 additional_latency=173500 cycles
[ERROR_CYCLE] Error added at CPU cycle 1048641052, next at 1090842597, pending count: 1
[DRAM_CYCLE_ERROR] Cycle-based error applied! address=0x28210f8b8 additional_latency=173500 cycles
Heartbeat CPU 0 instructions: 1100000160 cycles: 1054857378 heartbeat IPC: 0.8157 cumulative IPC: 1.043 (Simulation time: 02 hr 18 min 29 sec)
Heartbeat CPU 0 instructions: 1110000160 cycles: 1067253455 heartbeat IPC: 0.8067 cumulative IPC: 1.04 (Simulation time: 02 hr 20 min 06 sec)
Heartbeat CPU 0 instructions: 1120000160 cycles: 1078020653 heartbeat IPC: 0.9287 cumulative IPC: 1.039 (Simulation time: 02 hr 21 min 33 sec)
Heartbeat CPU 0 instructions: 1130000164 cycles: 1088031530 heartbeat IPC: 0.9989 cumulative IPC: 1.039 (Simulation time: 02 hr 22 min 52 sec)
[ERROR_CYCLE] Error added at CPU cycle 1090842598, next at 1110023097, pending count: 1
[DRAM_CYCLE_ERROR] Cycle-based error applied! address=0x33230b200 additional_latency=173500 cycles
Heartbeat CPU 0 instructions: 1140000164 cycles: 1096902042 heartbeat IPC: 1.127 cumulative IPC: 1.039 (Simulation time: 02 hr 24 min 05 sec)
Heartbeat CPU 0 instructions: 1150000164 cycles: 1106246727 heartbeat IPC: 1.07 cumulative IPC: 1.04 (Simulation time: 02 hr 25 min 26 sec)
[ERROR_CYCLE] Error added at CPU cycle 1110023098, next at 1133414207, pending count: 1
[DRAM_CYCLE_ERROR] Cycle-based error applied! address=0x2b47d2fa8 additional_latency=173500 cycles
Heartbeat CPU 0 instructions: 1160000166 cycles: 1119554330 heartbeat IPC: 0.7515 cumulative IPC: 1.036 (Simulation time: 02 hr 27 min 14 sec)
Heartbeat CPU 0 instructions: 1170000168 cycles: 1130340770 heartbeat IPC: 0.9271 cumulative IPC: 1.035 (Simulation time: 02 hr 28 min 44 sec)
[ERROR_CYCLE] Error added at CPU cycle 1133414207, next at 1204668974, pending count: 1
[DRAM_CYCLE_ERROR] Cycle-based error applied! address=0x5bb26e7f0 additional_latency=173500 cycles
Heartbeat CPU 0 instructions: 1180000172 cycles: 1140372310 heartbeat IPC: 0.9969 cumulative IPC: 1.035 (Simulation time: 02 hr 30 min 10 sec)
Heartbeat CPU 0 instructions: 1190000173 cycles: 1149677996 heartbeat IPC: 1.075 cumulative IPC: 1.035 (Simulation time: 02 hr 31 min 32 sec)
Heartbeat CPU 0 instructions: 1200000177 cycles: 1163095425 heartbeat IPC: 0.7453 cumulative IPC: 1.032 (Simulation time: 02 hr 33 min 22 sec)
Heartbeat CPU 0 instructions: 1210000181 cycles: 1175518411 heartbeat IPC: 0.805 cumulative IPC: 1.029 (Simulation time: 02 hr 35 min 05 sec)
Heartbeat CPU 0 instructions: 1220000181 cycles: 1187943761 heartbeat IPC: 0.8048 cumulative IPC: 1.027 (Simulation time: 02 hr 36 min 41 sec)
Heartbeat CPU 0 instructions: 1230000184 cycles: 1198567949 heartbeat IPC: 0.9412 cumulative IPC: 1.026 (Simulation time: 02 hr 38 min 11 sec)
[ERROR_CYCLE] Error added at CPU cycle 1204668974, next at 1215603388, pending count: 1
[DRAM_CYCLE_ERROR] Cycle-based error applied! address=0x29c21e098 additional_latency=173500 cycles
Heartbeat CPU 0 instructions: 1240000187 cycles: 1211013119 heartbeat IPC: 0.8035 cumulative IPC: 1.024 (Simulation time: 02 hr 39 min 55 sec)
[ERROR_CYCLE] Error added at CPU cycle 1215603389, next at 1217087080, pending count: 1
[DRAM_CYCLE_ERROR] Cycle-based error applied! address=0x6c1d28a08 additional_latency=173500 cycles
[ERROR_CYCLE] Error added at CPU cycle 1217087081, next at 1221310176, pending count: 1
[DRAM_CYCLE_ERROR] Cycle-based error applied! address=0x776c5bf38 additional_latency=173500 cycles
[ERROR_CYCLE] Error added at CPU cycle 1221310177, next at 1226438693, pending count: 1
[DRAM_CYCLE_ERROR] Cycle-based error applied! address=0x1a3dd3f10 additional_latency=173500 cycles
Heartbeat CPU 0 instructions: 1250000190 cycles: 1223386159 heartbeat IPC: 0.8082 cumulative IPC: 1.022 (Simulation time: 02 hr 41 min 26 sec)
[ERROR_CYCLE] Error added at CPU cycle 1226438693, next at 1227461842, pending count: 1
[DRAM_CYCLE_ERROR] Cycle-based error applied! address=0xe6d43678 additional_latency=173500 cycles
[ERROR_CYCLE] Error added at CPU cycle 1227461842, next at 1231373065, pending count: 1
[DRAM_CYCLE_ERROR] Cycle-based error applied! address=0x1132fabf0 additional_latency=173500 cycles
[ERROR_CYCLE] Error added at CPU cycle 1231373065, next at 1247660783, pending count: 1
[DRAM_CYCLE_ERROR] Cycle-based error applied! address=0x50b64f38 additional_latency=173500 cycles
Heartbeat CPU 0 instructions: 1260000191 cycles: 1235616859 heartbeat IPC: 0.8176 cumulative IPC: 1.02 (Simulation time: 02 hr 42 min 42 sec)
Heartbeat CPU 0 instructions: 1270000191 cycles: 1246095684 heartbeat IPC: 0.9543 cumulative IPC: 1.019 (Simulation time: 02 hr 43 min 43 sec)
[ERROR_CYCLE] Error added at CPU cycle 1247660783, next at 1311009174, pending count: 1
[DRAM_CYCLE_ERROR] Cycle-based error applied! address=0x118915f28 additional_latency=173500 cycles
Heartbeat CPU 0 instructions: 1280000193 cycles: 1255901250 heartbeat IPC: 1.02 cumulative IPC: 1.019 (Simulation time: 02 hr 45 min 07 sec)
Heartbeat CPU 0 instructions: 1290000197 cycles: 1265321168 heartbeat IPC: 1.062 cumulative IPC: 1.02 (Simulation time: 02 hr 46 min 29 sec)
Heartbeat CPU 0 instructions: 1300000197 cycles: 1272871771 heartbeat IPC: 1.324 cumulative IPC: 1.021 (Simulation time: 02 hr 47 min 40 sec)
Heartbeat CPU 0 instructions: 1310000201 cycles: 1281408292 heartbeat IPC: 1.171 cumulative IPC: 1.022 (Simulation time: 02 hr 48 min 57 sec)
Heartbeat CPU 0 instructions: 1320000202 cycles: 1293531802 heartbeat IPC: 0.8248 cumulative IPC: 1.02 (Simulation time: 02 hr 50 min 36 sec)
Heartbeat CPU 0 instructions: 1330000202 cycles: 1305921279 heartbeat IPC: 0.8071 cumulative IPC: 1.018 (Simulation time: 02 hr 52 min 20 sec)
[ERROR_CYCLE] Error added at CPU cycle 1311009175, next at 1370592850, pending count: 1
[DRAM_CYCLE_ERROR] Cycle-based error applied! address=0x4e2d92980 additional_latency=173500 cycles
Heartbeat CPU 0 instructions: 1340000202 cycles: 1316292960 heartbeat IPC: 0.9642 cumulative IPC: 1.018 (Simulation time: 02 hr 53 min 49 sec)
Heartbeat CPU 0 instructions: 1350000203 cycles: 1326016567 heartbeat IPC: 1.028 cumulative IPC: 1.018 (Simulation time: 02 hr 55 min 13 sec)
Heartbeat CPU 0 instructions: 1360000204 cycles: 1335311632 heartbeat IPC: 1.076 cumulative IPC: 1.018 (Simulation time: 02 hr 56 min 31 sec)
Heartbeat CPU 0 instructions: 1370000205 cycles: 1343334194 heartbeat IPC: 1.246 cumulative IPC: 1.02 (Simulation time: 02 hr 57 min 44 sec)
Heartbeat CPU 0 instructions: 1380000206 cycles: 1350888771 heartbeat IPC: 1.324 cumulative IPC: 1.022 (Simulation time: 02 hr 58 min 54 sec)
Heartbeat CPU 0 instructions: 1390000210 cycles: 1360201954 heartbeat IPC: 1.074 cumulative IPC: 1.022 (Simulation time: 03 hr 00 min 15 sec)
[ERROR_CYCLE] Error added at CPU cycle 1370592850, next at 1384134719, pending count: 1
[DRAM_CYCLE_ERROR] Cycle-based error applied! address=0x34511b6b8 additional_latency=173500 cycles
Heartbeat CPU 0 instructions: 1400000210 cycles: 1373656021 heartbeat IPC: 0.7433 cumulative IPC: 1.019 (Simulation time: 03 hr 02 min 04 sec)
[ERROR_CYCLE] Error added at CPU cycle 1384134720, next at 1387121723, pending count: 1
[DRAM_CYCLE_ERROR] Cycle-based error applied! address=0x336fa98d8 additional_latency=173500 cycles
Heartbeat CPU 0 instructions: 1410000214 cycles: 1384846614 heartbeat IPC: 0.8936 cumulative IPC: 1.018 (Simulation time: 03 hr 03 min 36 sec)
[ERROR_CYCLE] Error added at CPU cycle 1387121723, next at 1393135226, pending count: 1
[DRAM_CYCLE_ERROR] Cycle-based error applied! address=0x40f4bc888 additional_latency=173500 cycles
[ERROR_CYCLE] Error added at CPU cycle 1393135226, next at 1410245518, pending count: 1
[DRAM_CYCLE_ERROR] Cycle-based error applied! address=0x5bb26e7f0 additional_latency=173500 cycles
Heartbeat CPU 0 instructions: 1420000215 cycles: 1395068019 heartbeat IPC: 0.9783 cumulative IPC: 1.018 (Simulation time: 03 hr 05 min 02 sec)
Heartbeat CPU 0 instructions: 1430000218 cycles: 1404686354 heartbeat IPC: 1.04 cumulative IPC: 1.018 (Simulation time: 03 hr 06 min 06 sec)
[ERROR_CYCLE] Error added at CPU cycle 1410245519, next at 1495091885, pending count: 1
[DRAM_CYCLE_ERROR] Cycle-based error applied! address=0x59d2cc710 additional_latency=173500 cycles
Heartbeat CPU 0 instructions: 1440000219 cycles: 1413945333 heartbeat IPC: 1.08 cumulative IPC: 1.018 (Simulation time: 03 hr 07 min 24 sec)
Heartbeat CPU 0 instructions: 1450000219 cycles: 1422248544 heartbeat IPC: 1.204 cumulative IPC: 1.02 (Simulation time: 03 hr 08 min 37 sec)
Heartbeat CPU 0 instructions: 1460000222 cycles: 1429441481 heartbeat IPC: 1.39 cumulative IPC: 1.021 (Simulation time: 03 hr 09 min 45 sec)
Heartbeat CPU 0 instructions: 1470000225 cycles: 1437809211 heartbeat IPC: 1.195 cumulative IPC: 1.022 (Simulation time: 03 hr 11 min 01 sec)
Heartbeat CPU 0 instructions: 1480000225 cycles: 1448161701 heartbeat IPC: 0.966 cumulative IPC: 1.022 (Simulation time: 03 hr 12 min 19 sec)
Heartbeat CPU 0 instructions: 1490000229 cycles: 1461637205 heartbeat IPC: 0.7421 cumulative IPC: 1.019 (Simulation time: 03 hr 13 min 48 sec)
Heartbeat CPU 0 instructions: 1500000229 cycles: 1474734253 heartbeat IPC: 0.7635 cumulative IPC: 1.017 (Simulation time: 03 hr 15 min 27 sec)
Heartbeat CPU 0 instructions: 1510000232 cycles: 1487150938 heartbeat IPC: 0.8054 cumulative IPC: 1.015 (Simulation time: 03 hr 17 min 12 sec)
[ERROR_CYCLE] Error added at CPU cycle 1495091886, next at 1497338352, pending count: 1
[DRAM_CYCLE_ERROR] Cycle-based error applied! address=0x4ff699738 additional_latency=173500 cycles
[ERROR_CYCLE] Error added at CPU cycle 1497338352, next at 1510038978, pending count: 1
[DRAM_CYCLE_ERROR] Cycle-based error applied! address=0x497083f38 additional_latency=173500 cycles
Heartbeat CPU 0 instructions: 1520000235 cycles: 1499343708 heartbeat IPC: 0.8202 cumulative IPC: 1.014 (Simulation time: 03 hr 18 min 56 sec)
[ERROR_CYCLE] Error added at CPU cycle 1510038979, next at 1510994162, pending count: 1
[DRAM_CYCLE_ERROR] Cycle-based error applied! address=0x11232a7e0 additional_latency=173500 cycles
[ERROR_CYCLE] Error added at CPU cycle 1510994163, next at 1517546185, pending count: 1
[DRAM_CYCLE_ERROR] Cycle-based error applied! address=0x4acd95898 additional_latency=173500 cycles
Heartbeat CPU 0 instructions: 1530000235 cycles: 1511711735 heartbeat IPC: 0.8085 cumulative IPC: 1.012 (Simulation time: 03 hr 20 min 41 sec)
[ERROR_CYCLE] Error added at CPU cycle 1517546186, next at 1535864889, pending count: 1
[DRAM_CYCLE_ERROR] Cycle-based error applied! address=0x1a8fe7ac0 additional_latency=173500 cycles
Heartbeat CPU 0 instructions: 1540000235 cycles: 1523984263 heartbeat IPC: 0.8148 cumulative IPC: 1.011 (Simulation time: 03 hr 22 min 25 sec)
[ERROR_CYCLE] Error added at CPU cycle 1535864889, next at 1536104601, pending count: 1
[DRAM_CYCLE_ERROR] Cycle-based error applied! address=0x60afeae80 additional_latency=173500 cycles
[ERROR_CYCLE] Error added at CPU cycle 1536104602, next at 1536200138, pending count: 1
Heartbeat CPU 0 instructions: 1550000235 cycles: 1536105640 heartbeat IPC: 0.825 cumulative IPC: 1.009 (Simulation time: 03 hr 24 min 07 sec)
[DRAM_CYCLE_ERROR] Cycle-based error applied! address=0x53c5aa840 additional_latency=173500 cycles
[ERROR_CYCLE] Error added at CPU cycle 1536200139, next at 1536529969, pending count: 1
[DRAM_CYCLE_ERROR] Cycle-based error applied! address=0x700b7fe80 additional_latency=173500 cycles
[ERROR_CYCLE] Error added at CPU cycle 1536529970, next at 1546953656, pending count: 1
[DRAM_CYCLE_ERROR] Cycle-based error applied! address=0x143fb1670 additional_latency=173500 cycles
Heartbeat CPU 0 instructions: 1560000235 cycles: 1546587549 heartbeat IPC: 0.954 cumulative IPC: 1.009 (Simulation time: 03 hr 25 min 37 sec)
[ERROR_CYCLE] Error added at CPU cycle 1546953657, next at 1550817592, pending count: 1
[DRAM_CYCLE_ERROR] Cycle-based error applied! address=0x1cea0c800 additional_latency=173500 cycles
[ERROR_CYCLE] Error added at CPU cycle 1550817592, next at 1552955133, pending count: 1
[DRAM_CYCLE_ERROR] Cycle-based error applied! address=0x26985b7e0 additional_latency=173500 cycles
[ERROR_CYCLE] Error added at CPU cycle 1552955133, next at 1564110624, pending count: 1
[DRAM_CYCLE_ERROR] Cycle-based error applied! address=0xa942d08 additional_latency=173500 cycles
Heartbeat CPU 0 instructions: 1570000236 cycles: 1556380765 heartbeat IPC: 1.021 cumulative IPC: 1.009 (Simulation time: 03 hr 27 min 02 sec)
[ERROR_CYCLE] Error added at CPU cycle 1564110624, next at 1586732392, pending count: 1
[DRAM_CYCLE_ERROR] Cycle-based error applied! address=0x19de5980 additional_latency=173500 cycles
Heartbeat CPU 0 instructions: 1580000236 cycles: 1565751705 heartbeat IPC: 1.067 cumulative IPC: 1.009 (Simulation time: 03 hr 28 min 24 sec)
Heartbeat CPU 0 instructions: 1590000236 cycles: 1574822380 heartbeat IPC: 1.102 cumulative IPC: 1.01 (Simulation time: 03 hr 29 min 27 sec)
Heartbeat CPU 0 instructions: 1600000236 cycles: 1583468442 heartbeat IPC: 1.157 cumulative IPC: 1.01 (Simulation time: 03 hr 30 min 31 sec)
[ERROR_CYCLE] Error added at CPU cycle 1586732392, next at 1601477251, pending count: 1
[DRAM_CYCLE_ERROR] Cycle-based error applied! address=0x46dd6bb10 additional_latency=173500 cycles
Heartbeat CPU 0 instructions: 1610000239 cycles: 1590229129 heartbeat IPC: 1.479 cumulative IPC: 1.012 (Simulation time: 03 hr 31 min 35 sec)
Heartbeat CPU 0 instructions: 1620000240 cycles: 1597503346 heartbeat IPC: 1.375 cumulative IPC: 1.014 (Simulation time: 03 hr 32 min 45 sec)
[ERROR_CYCLE] Error added at CPU cycle 1601477251, next at 1609406957, pending count: 1
[DRAM_CYCLE_ERROR] Cycle-based error applied! address=0x3ad1fc3e0 additional_latency=173500 cycles
Heartbeat CPU 0 instructions: 1630000242 cycles: 1605700295 heartbeat IPC: 1.22 cumulative IPC: 1.015 (Simulation time: 03 hr 33 min 56 sec)
[ERROR_CYCLE] Error added at CPU cycle 1609406957, next at 1625268224, pending count: 1
[DRAM_CYCLE_ERROR] Cycle-based error applied! address=0x6c1d28bf0 additional_latency=173500 cycles
Heartbeat CPU 0 instructions: 1640000242 cycles: 1615543926 heartbeat IPC: 1.016 cumulative IPC: 1.015 (Simulation time: 03 hr 35 min 05 sec)
[ERROR_CYCLE] Error added at CPU cycle 1625268225, next at 1650504061, pending count: 1
[DRAM_CYCLE_ERROR] Cycle-based error applied! address=0x472167f0 additional_latency=173500 cycles
Heartbeat CPU 0 instructions: 1650000245 cycles: 1629346822 heartbeat IPC: 0.7245 cumulative IPC: 1.013 (Simulation time: 03 hr 36 min 56 sec)
Heartbeat CPU 0 instructions: 1660000247 cycles: 1642327691 heartbeat IPC: 0.7704 cumulative IPC: 1.011 (Simulation time: 03 hr 38 min 13 sec)
[ERROR_CYCLE] Error added at CPU cycle 1650504061, next at 1660874937, pending count: 1
[DRAM_CYCLE_ERROR] Cycle-based error applied! address=0x5bb26e7f0 additional_latency=173500 cycles
Heartbeat CPU 0 instructions: 1670000248 cycles: 1654650578 heartbeat IPC: 0.8115 cumulative IPC: 1.009 (Simulation time: 03 hr 39 min 28 sec)
[ERROR_CYCLE] Error added at CPU cycle 1660874938, next at 1677870285, pending count: 1
[DRAM_CYCLE_ERROR] Cycle-based error applied! address=0x68f913780 additional_latency=173500 cycles
Heartbeat CPU 0 instructions: 1680000248 cycles: 1665518334 heartbeat IPC: 0.9202 cumulative IPC: 1.009 (Simulation time: 03 hr 40 min 39 sec)
Heartbeat CPU 0 instructions: 1690000248 cycles: 1675596593 heartbeat IPC: 0.9922 cumulative IPC: 1.009 (Simulation time: 03 hr 42 min 06 sec)
[ERROR_CYCLE] Error added at CPU cycle 1677870285, next at 1723608311, pending count: 1
[DRAM_CYCLE_ERROR] Cycle-based error applied! address=0xeab907c0 additional_latency=173500 cycles
Heartbeat CPU 0 instructions: 1700000250 cycles: 1685158485 heartbeat IPC: 1.046 cumulative IPC: 1.009 (Simulation time: 03 hr 43 min 23 sec)
Heartbeat CPU 0 instructions: 1710000250 cycles: 1693365591 heartbeat IPC: 1.218 cumulative IPC: 1.01 (Simulation time: 03 hr 44 min 26 sec)
Heartbeat CPU 0 instructions: 1720000251 cycles: 1701324328 heartbeat IPC: 1.256 cumulative IPC: 1.011 (Simulation time: 03 hr 45 min 28 sec)
Heartbeat CPU 0 instructions: 1730000251 cycles: 1711882521 heartbeat IPC: 0.9471 cumulative IPC: 1.011 (Simulation time: 03 hr 46 min 59 sec)
[ERROR_CYCLE] Error added at CPU cycle 1723608312, next at 1728278484, pending count: 1
[DRAM_CYCLE_ERROR] Cycle-based error applied! address=0x38657da10 additional_latency=173500 cycles
Heartbeat CPU 0 instructions: 1740000253 cycles: 1726463693 heartbeat IPC: 0.6858 cumulative IPC: 1.008 (Simulation time: 03 hr 48 min 55 sec)
[ERROR_CYCLE] Error added at CPU cycle 1728278484, next at 1766089605, pending count: 1
[DRAM_CYCLE_ERROR] Cycle-based error applied! address=0x5f8b7f28 additional_latency=173500 cycles
Heartbeat CPU 0 instructions: 1750000256 cycles: 1737409294 heartbeat IPC: 0.9136 cumulative IPC: 1.007 (Simulation time: 03 hr 50 min 30 sec)
Heartbeat CPU 0 instructions: 1760000257 cycles: 1748745819 heartbeat IPC: 0.8821 cumulative IPC: 1.006 (Simulation time: 03 hr 52 min 09 sec)
Heartbeat CPU 0 instructions: 1770000258 cycles: 1760590579 heartbeat IPC: 0.8443 cumulative IPC: 1.005 (Simulation time: 03 hr 53 min 42 sec)
[ERROR_CYCLE] Error added at CPU cycle 1766089606, next at 1770934277, pending count: 1
[DRAM_CYCLE_ERROR] Cycle-based error applied! address=0x105530248 additional_latency=173500 cycles
[ERROR_CYCLE] Error added at CPU cycle 1770934277, next at 1774352128, pending count: 1
[DRAM_CYCLE_ERROR] Cycle-based error applied! address=0x80c3cae8 additional_latency=173500 cycles
Heartbeat CPU 0 instructions: 1780000259 cycles: 1771316701 heartbeat IPC: 0.9323 cumulative IPC: 1.005 (Simulation time: 03 hr 54 min 50 sec)
[ERROR_CYCLE] Error added at CPU cycle 1774352128, next at 1782866587, pending count: 1
[DRAM_CYCLE_ERROR] Cycle-based error applied! address=0x120743f00 additional_latency=173500 cycles
Heartbeat CPU 0 instructions: 1790000259 cycles: 1781346888 heartbeat IPC: 0.997 cumulative IPC: 1.005 (Simulation time: 03 hr 56 min 05 sec)
[ERROR_CYCLE] Error added at CPU cycle 1782866587, next at 1820284123, pending count: 1
[DRAM_CYCLE_ERROR] Cycle-based error applied! address=0x2e9b46568 additional_latency=173500 cycles
Heartbeat CPU 0 instructions: 1800000262 cycles: 1790926219 heartbeat IPC: 1.044 cumulative IPC: 1.005 (Simulation time: 03 hr 57 min 16 sec)
Heartbeat CPU 0 instructions: 1810000266 cycles: 1800144807 heartbeat IPC: 1.085 cumulative IPC: 1.005 (Simulation time: 03 hr 58 min 40 sec)
Heartbeat CPU 0 instructions: 1820000267 cycles: 1809147019 heartbeat IPC: 1.111 cumulative IPC: 1.006 (Simulation time: 04 hr 00 min 01 sec)
Heartbeat CPU 0 instructions: 1830000267 cycles: 1817821610 heartbeat IPC: 1.153 cumulative IPC: 1.007 (Simulation time: 04 hr 01 min 14 sec)
[ERROR_CYCLE] Error added at CPU cycle 1820284123, next at 1824911850, pending count: 1
[DRAM_CYCLE_ERROR] Cycle-based error applied! address=0x29484c030 additional_latency=173500 cycles
[ERROR_CYCLE] Error added at CPU cycle 1824911850, next at 1840904991, pending count: 1
[DRAM_CYCLE_ERROR] Cycle-based error applied! address=0x42635cfe0 additional_latency=173500 cycles
Heartbeat CPU 0 instructions: 1840000271 cycles: 1826374993 heartbeat IPC: 1.169 cumulative IPC: 1.007 (Simulation time: 04 hr 02 min 26 sec)
Heartbeat CPU 0 instructions: 1850000272 cycles: 1834740015 heartbeat IPC: 1.195 cumulative IPC: 1.008 (Simulation time: 04 hr 03 min 42 sec)
[ERROR_CYCLE] Error added at CPU cycle 1840904991, next at 1850717951, pending count: 1
[DRAM_CYCLE_ERROR] Cycle-based error applied! address=0x346b05678 additional_latency=173500 cycles
Heartbeat CPU 0 instructions: 1860000273 cycles: 1842886154 heartbeat IPC: 1.228 cumulative IPC: 1.009 (Simulation time: 04 hr 04 min 57 sec)
[ERROR_CYCLE] Error added at CPU cycle 1850717952, next at 1856417162, pending count: 1
[DRAM_CYCLE_ERROR] Cycle-based error applied! address=0x135e58438 additional_latency=173500 cycles
Heartbeat CPU 0 instructions: 1870000274 cycles: 1850876927 heartbeat IPC: 1.251 cumulative IPC: 1.01 (Simulation time: 04 hr 06 min 12 sec)
[ERROR_CYCLE] Error added at CPU cycle 1856417162, next at 1871102489, pending count: 1
[DRAM_CYCLE_ERROR] Cycle-based error applied! address=0x39f018148 additional_latency=173500 cycles
Heartbeat CPU 0 instructions: 1880000276 cycles: 1858818176 heartbeat IPC: 1.259 cumulative IPC: 1.011 (Simulation time: 04 hr 07 min 26 sec)
Heartbeat CPU 0 instructions: 1890000276 cycles: 1864780473 heartbeat IPC: 1.677 cumulative IPC: 1.014 (Simulation time: 04 hr 08 min 27 sec)
Heartbeat CPU 0 instructions: 1900000276 cycles: 1870706376 heartbeat IPC: 1.688 cumulative IPC: 1.016 (Simulation time: 04 hr 09 min 26 sec)
[ERROR_CYCLE] Error added at CPU cycle 1871102489, next at 1880555423, pending count: 1
[DRAM_CYCLE_ERROR] Cycle-based error applied! address=0x492ec62b0 additional_latency=173500 cycles
Heartbeat CPU 0 instructions: 1910000279 cycles: 1876823138 heartbeat IPC: 1.635 cumulative IPC: 1.018 (Simulation time: 04 hr 10 min 27 sec)
[ERROR_CYCLE] Error added at CPU cycle 1880555424, next at 1882723832, pending count: 1
[DRAM_CYCLE_ERROR] Cycle-based error applied! address=0x3165ff1e0 additional_latency=173500 cycles
[ERROR_CYCLE] Error added at CPU cycle 1882723832, next at 1888263422, pending count: 1
[DRAM_CYCLE_ERROR] Cycle-based error applied! address=0x9cff23f0 additional_latency=173500 cycles
Heartbeat CPU 0 instructions: 1920000280 cycles: 1883269721 heartbeat IPC: 1.551 cumulative IPC: 1.02 (Simulation time: 04 hr 11 min 29 sec)
[ERROR_CYCLE] Error added at CPU cycle 1888263423, next at 1931662504, pending count: 1
[DRAM_CYCLE_ERROR] Cycle-based error applied! address=0x454c79e08 additional_latency=173500 cycles
Heartbeat CPU 0 instructions: 1930000281 cycles: 1890048828 heartbeat IPC: 1.475 cumulative IPC: 1.021 (Simulation time: 04 hr 12 min 33 sec)
Heartbeat CPU 0 instructions: 1940000283 cycles: 1897231389 heartbeat IPC: 1.392 cumulative IPC: 1.023 (Simulation time: 04 hr 13 min 40 sec)
Heartbeat CPU 0 instructions: 1950000283 cycles: 1904751844 heartbeat IPC: 1.33 cumulative IPC: 1.024 (Simulation time: 04 hr 14 min 49 sec)
Heartbeat CPU 0 instructions: 1960000284 cycles: 1912709042 heartbeat IPC: 1.257 cumulative IPC: 1.025 (Simulation time: 04 hr 16 min 00 sec)
Heartbeat CPU 0 instructions: 1970000286 cycles: 1921311331 heartbeat IPC: 1.162 cumulative IPC: 1.025 (Simulation time: 04 hr 17 min 16 sec)
Heartbeat CPU 0 instructions: 1980000287 cycles: 1930447338 heartbeat IPC: 1.095 cumulative IPC: 1.026 (Simulation time: 04 hr 18 min 34 sec)
[ERROR_CYCLE] Error added at CPU cycle 1931662505, next at 1956460230, pending count: 1
[DRAM_CYCLE_ERROR] Cycle-based error applied! address=0x72acc7eb0 additional_latency=173500 cycles
Heartbeat CPU 0 instructions: 1990000288 cycles: 1940446574 heartbeat IPC: 1 cumulative IPC: 1.026 (Simulation time: 04 hr 19 min 58 sec)

=== ERROR PAGE STATISTICS ===
Mode: CYCLE
Error Cycle Interval: 20000000 CPU cycles
Total Error Accesses: 108
==============================
Simulation finished CPU 0 instructions: 1999999979 cycles: 1951961546 cumulative IPC: 1.025 (Simulation time: 04 hr 21 min 32 sec)
Simulation complete CPU 0 instructions: 1999999979 cycles: 1951961546 cumulative IPC: 1.025 (Simulation time: 04 hr 21 min 32 sec)

ChampSim completed all CPUs

=== Simulation ===
CPU 0 runs test_traces/623.xalancbmk_s-592B.champsimtrace.xz

Region of Interest Statistics

CPU 0 cumulative IPC: 1.025 instructions: 1999999979 cycles: 1951961546
CPU 0 Branch Prediction Accuracy: 97.16% MPKI: 8.552 Average ROB Occupancy at Mispredict: 25.05
Branch type MPKI
BRANCH_DIRECT_JUMP: 0.08608
BRANCH_INDIRECT: 0.2696
BRANCH_CONDITIONAL: 6.772
BRANCH_DIRECT_CALL: 0.0003155
BRANCH_INDIRECT_CALL: 0.2909
BRANCH_RETURN: 1.133

cpu0->cpu0_STLB TOTAL        ACCESS:   47191069 HIT:   44719358 MISS:    2471711 MSHR_MERGE:          0
cpu0->cpu0_STLB LOAD         ACCESS:   47191069 HIT:   44719358 MISS:    2471711 MSHR_MERGE:          0
cpu0->cpu0_STLB RFO          ACCESS:          0 HIT:          0 MISS:          0 MSHR_MERGE:          0
cpu0->cpu0_STLB PREFETCH     ACCESS:          0 HIT:          0 MISS:          0 MSHR_MERGE:          0
cpu0->cpu0_STLB WRITE        ACCESS:          0 HIT:          0 MISS:          0 MSHR_MERGE:          0
cpu0->cpu0_STLB TRANSLATION  ACCESS:          0 HIT:          0 MISS:          0 MSHR_MERGE:          0
cpu0->cpu0_STLB PREFETCH REQUESTED:          0 ISSUED:          0 USEFUL:          0 USELESS:          0
cpu0->cpu0_STLB AVERAGE MISS LATENCY: 167.2 cycles
cpu0->cpu0_L2C TOTAL        ACCESS:  105792460 HIT:   99867328 MISS:    5925132 MSHR_MERGE:          0
cpu0->cpu0_L2C LOAD         ACCESS:   96653653 HIT:   93810908 MISS:    2842745 MSHR_MERGE:          0
cpu0->cpu0_L2C RFO          ACCESS:    3685452 HIT:     603089 MISS:    3082363 MSHR_MERGE:          0
cpu0->cpu0_L2C PREFETCH     ACCESS:          0 HIT:          0 MISS:          0 MSHR_MERGE:          0
cpu0->cpu0_L2C WRITE        ACCESS:    5453355 HIT:    5453331 MISS:         24 MSHR_MERGE:          0
cpu0->cpu0_L2C TRANSLATION  ACCESS:          0 HIT:          0 MISS:          0 MSHR_MERGE:          0
cpu0->cpu0_L2C PREFETCH REQUESTED:          0 ISSUED:          0 USEFUL:          0 USELESS:          0
cpu0->cpu0_L2C AVERAGE MISS LATENCY: 72.01 cycles
cpu0->cpu0_L1I TOTAL        ACCESS:  363970298 HIT:  358573462 MISS:    5396836 MSHR_MERGE:    1492489
cpu0->cpu0_L1I LOAD         ACCESS:  363970298 HIT:  358573462 MISS:    5396836 MSHR_MERGE:    1492489
cpu0->cpu0_L1I RFO          ACCESS:          0 HIT:          0 MISS:          0 MSHR_MERGE:          0
cpu0->cpu0_L1I PREFETCH     ACCESS:          0 HIT:          0 MISS:          0 MSHR_MERGE:          0
cpu0->cpu0_L1I WRITE        ACCESS:          0 HIT:          0 MISS:          0 MSHR_MERGE:          0
cpu0->cpu0_L1I TRANSLATION  ACCESS:          0 HIT:          0 MISS:          0 MSHR_MERGE:          0
cpu0->cpu0_L1I PREFETCH REQUESTED:          0 ISSUED:          0 USEFUL:          0 USELESS:          0
cpu0->cpu0_L1I AVERAGE MISS LATENCY: 7.927 cycles
cpu0->cpu0_L1D TOTAL        ACCESS:  535940437 HIT:  359539758 MISS:  176400679 MSHR_MERGE:   79965837
cpu0->cpu0_L1D LOAD         ACCESS:  418896314 HIT:  256178407 MISS:  162717907 MSHR_MERGE:   69968526
cpu0->cpu0_L1D RFO          ACCESS:          0 HIT:          0 MISS:          0 MSHR_MERGE:          0
cpu0->cpu0_L1D PREFETCH     ACCESS:          0 HIT:          0 MISS:          0 MSHR_MERGE:          0
cpu0->cpu0_L1D WRITE        ACCESS:  117044123 HIT:  103361351 MISS:   13682772 MSHR_MERGE:    9997311
cpu0->cpu0_L1D TRANSLATION  ACCESS:          0 HIT:          0 MISS:          0 MSHR_MERGE:          0
cpu0->cpu0_L1D PREFETCH REQUESTED:          0 ISSUED:          0 USEFUL:          0 USELESS:          0
cpu0->cpu0_L1D AVERAGE MISS LATENCY: 12.6 cycles
cpu0->cpu0_ITLB TOTAL        ACCESS:  343248034 HIT:  341961776 MISS:    1286258 MSHR_MERGE:     705825
cpu0->cpu0_ITLB LOAD         ACCESS:  343248034 HIT:  341961776 MISS:    1286258 MSHR_MERGE:     705825
cpu0->cpu0_ITLB RFO          ACCESS:          0 HIT:          0 MISS:          0 MSHR_MERGE:          0
cpu0->cpu0_ITLB PREFETCH     ACCESS:          0 HIT:          0 MISS:          0 MSHR_MERGE:          0
cpu0->cpu0_ITLB WRITE        ACCESS:          0 HIT:          0 MISS:          0 MSHR_MERGE:          0
cpu0->cpu0_ITLB TRANSLATION  ACCESS:          0 HIT:          0 MISS:          0 MSHR_MERGE:          0
cpu0->cpu0_ITLB PREFETCH REQUESTED:          0 ISSUED:          0 USEFUL:          0 USELESS:          0
cpu0->cpu0_ITLB AVERAGE MISS LATENCY: 13.17 cycles
cpu0->cpu0_DTLB TOTAL        ACCESS:  464618825 HIT:  401221949 MISS:   63396876 MSHR_MERGE:   16786240
cpu0->cpu0_DTLB LOAD         ACCESS:  464618825 HIT:  401221949 MISS:   63396876 MSHR_MERGE:   16786240
cpu0->cpu0_DTLB RFO          ACCESS:          0 HIT:          0 MISS:          0 MSHR_MERGE:          0
cpu0->cpu0_DTLB PREFETCH     ACCESS:          0 HIT:          0 MISS:          0 MSHR_MERGE:          0
cpu0->cpu0_DTLB WRITE        ACCESS:          0 HIT:          0 MISS:          0 MSHR_MERGE:          0
cpu0->cpu0_DTLB TRANSLATION  ACCESS:          0 HIT:          0 MISS:          0 MSHR_MERGE:          0
cpu0->cpu0_DTLB PREFETCH REQUESTED:          0 ISSUED:          0 USEFUL:          0 USELESS:          0
cpu0->cpu0_DTLB AVERAGE MISS LATENCY: 13.85 cycles
cpu0->LLC TOTAL        ACCESS:    9426830 HIT:    6153861 MISS:    3272969 MSHR_MERGE:          0
cpu0->LLC LOAD         ACCESS:    2842744 HIT:    2431627 MISS:     411117 MSHR_MERGE:          0
cpu0->LLC RFO          ACCESS:    3082363 HIT:     236158 MISS:    2846205 MSHR_MERGE:          0
cpu0->LLC PREFETCH     ACCESS:          0 HIT:          0 MISS:          0 MSHR_MERGE:          0
cpu0->LLC WRITE        ACCESS:    3501723 HIT:    3486076 MISS:      15647 MSHR_MERGE:          0
cpu0->LLC TRANSLATION  ACCESS:          0 HIT:          0 MISS:          0 MSHR_MERGE:          0
cpu0->LLC PREFETCH REQUESTED:          0 ISSUED:          0 USEFUL:          0 USELESS:          0
cpu0->LLC AVERAGE MISS LATENCY: 102.2 cycles

DRAM Statistics

Channel 0 RQ ROW_BUFFER_HIT:      59439
  ROW_BUFFER_MISS:    4100357
  AVG DBUS CONGESTED CYCLE: 8.118
Channel 0 WQ ROW_BUFFER_HIT:      86250
  ROW_BUFFER_MISS:    1457633
  FULL:          0
Channel 0 REFRESHES ISSUED:     162653

Channel 1 RQ ROW_BUFFER_HIT:      70838
  ROW_BUFFER_MISS:    3979721
  AVG DBUS CONGESTED CYCLE: 8.129
Channel 1 WQ ROW_BUFFER_HIT:      87195
  ROW_BUFFER_MISS:    1455443
  FULL:         93
Channel 1 REFRESHES ISSUED:     162653
