[VMEM] WARNING: physical memory size is smaller than virtual memory size.

*** ChampSim Multicore Out-of-Order Simulator ***
Warmup Instructions: 0
Simulation Instructions: 9223372036854775807
Number of CPUs: 1
Page size: 2097152

Off-chip DRAM Size: 32 GiB Channels: 2 Width: 32-bit Data Rate: 4807 MT/s
[ERROR_PAGE_MANAGER] Error latency: 1990500 
[ERROR_PAGE_MANAGER] Random seed: 54321 (fixed for preload reproducibility)
[ERROR_PAGE_MANAGER] Cycle-based error modeling enabled
[ERROR_PAGE_MANAGER] Errors per interval: 1
[ERROR_PAGE_MANAGER] Error cycle interval: 200000000 cycles

=== ERROR PAGE STATISTICS ===
Mode: CYCLE
Error Cycle Interval: 200000000 CPU cycles
Total Error Accesses: 0
==============================
Warmup finished CPU 0 instructions: 0 cycles: 1 cumulative IPC: 0 (Simulation time: 00 hr 00 min 00 sec)
Warmup complete CPU 0 instructions: 0 cycles: 1 cumulative IPC: 0 (Simulation time: 00 hr 00 min 00 sec)
Heartbeat CPU 0 instructions: 10000002 cycles: 25834124 heartbeat IPC: 0.3871 cumulative IPC: 0.3871 (Simulation time: 00 hr 02 min 04 sec)
Heartbeat CPU 0 instructions: 20000002 cycles: 51497107 heartbeat IPC: 0.3897 cumulative IPC: 0.3884 (Simulation time: 00 hr 04 min 37 sec)
Heartbeat CPU 0 instructions: 30000004 cycles: 77133567 heartbeat IPC: 0.3901 cumulative IPC: 0.3889 (Simulation time: 00 hr 06 min 52 sec)
Heartbeat CPU 0 instructions: 40000005 cycles: 102852925 heartbeat IPC: 0.3888 cumulative IPC: 0.3889 (Simulation time: 00 hr 09 min 30 sec)
Heartbeat CPU 0 instructions: 50000009 cycles: 128490449 heartbeat IPC: 0.3901 cumulative IPC: 0.3891 (Simulation time: 00 hr 12 min 08 sec)
[ERROR_CYCLE] Error added at CPU cycle 142556113, next at 183066125, pending count: 1
[DRAM_CYCLE_ERROR] Cycle-based error applied! address=0x69706bc08 additional_latency=1990500 cycles
Heartbeat CPU 0 instructions: 60000012 cycles: 154166815 heartbeat IPC: 0.3895 cumulative IPC: 0.3892 (Simulation time: 00 hr 14 min 45 sec)
Heartbeat CPU 0 instructions: 70000012 cycles: 179877686 heartbeat IPC: 0.3889 cumulative IPC: 0.3892 (Simulation time: 00 hr 16 min 57 sec)
[ERROR_CYCLE] Error added at CPU cycle 183066126, next at 513921280, pending count: 1
[DRAM_CYCLE_ERROR] Cycle-based error applied! address=0x1e21a2a10 additional_latency=1990500 cycles
Heartbeat CPU 0 instructions: 80000016 cycles: 205663011 heartbeat IPC: 0.3878 cumulative IPC: 0.389 (Simulation time: 00 hr 19 min 09 sec)
Heartbeat CPU 0 instructions: 90000018 cycles: 231320066 heartbeat IPC: 0.3898 cumulative IPC: 0.3891 (Simulation time: 00 hr 21 min 20 sec)
Heartbeat CPU 0 instructions: 100000020 cycles: 256939267 heartbeat IPC: 0.3903 cumulative IPC: 0.3892 (Simulation time: 00 hr 23 min 16 sec)
Heartbeat CPU 0 instructions: 110000020 cycles: 282632525 heartbeat IPC: 0.3892 cumulative IPC: 0.3892 (Simulation time: 00 hr 25 min 23 sec)
Heartbeat CPU 0 instructions: 120000024 cycles: 308337091 heartbeat IPC: 0.389 cumulative IPC: 0.3892 (Simulation time: 00 hr 27 min 22 sec)
Heartbeat CPU 0 instructions: 130000024 cycles: 334048135 heartbeat IPC: 0.3889 cumulative IPC: 0.3892 (Simulation time: 00 hr 29 min 03 sec)
Heartbeat CPU 0 instructions: 140000027 cycles: 359662699 heartbeat IPC: 0.3904 cumulative IPC: 0.3893 (Simulation time: 00 hr 31 min 03 sec)
Heartbeat CPU 0 instructions: 150000029 cycles: 385273130 heartbeat IPC: 0.3905 cumulative IPC: 0.3893 (Simulation time: 00 hr 33 min 41 sec)
Heartbeat CPU 0 instructions: 160000031 cycles: 410983542 heartbeat IPC: 0.3889 cumulative IPC: 0.3893 (Simulation time: 00 hr 36 min 20 sec)
Heartbeat CPU 0 instructions: 170000034 cycles: 436625035 heartbeat IPC: 0.39 cumulative IPC: 0.3894 (Simulation time: 00 hr 38 min 58 sec)
Heartbeat CPU 0 instructions: 180000036 cycles: 462270678 heartbeat IPC: 0.3899 cumulative IPC: 0.3894 (Simulation time: 00 hr 41 min 36 sec)
Heartbeat CPU 0 instructions: 190000039 cycles: 488010977 heartbeat IPC: 0.3885 cumulative IPC: 0.3893 (Simulation time: 00 hr 44 min 15 sec)
Heartbeat CPU 0 instructions: 200000040 cycles: 513614338 heartbeat IPC: 0.3906 cumulative IPC: 0.3894 (Simulation time: 00 hr 46 min 53 sec)
[ERROR_CYCLE] Error added at CPU cycle 513921281, next at 1069353794, pending count: 1
[DRAM_CYCLE_ERROR] Cycle-based error applied! address=0x581924d60 additional_latency=1990500 cycles
Heartbeat CPU 0 instructions: 210000042 cycles: 539242430 heartbeat IPC: 0.3902 cumulative IPC: 0.3894 (Simulation time: 00 hr 49 min 32 sec)
Heartbeat CPU 0 instructions: 220000045 cycles: 564940899 heartbeat IPC: 0.3891 cumulative IPC: 0.3894 (Simulation time: 00 hr 52 min 10 sec)
Heartbeat CPU 0 instructions: 230000046 cycles: 590608923 heartbeat IPC: 0.3896 cumulative IPC: 0.3894 (Simulation time: 00 hr 54 min 49 sec)
Heartbeat CPU 0 instructions: 240000047 cycles: 616290264 heartbeat IPC: 0.3894 cumulative IPC: 0.3894 (Simulation time: 00 hr 57 min 28 sec)
Heartbeat CPU 0 instructions: 250000047 cycles: 641917059 heartbeat IPC: 0.3902 cumulative IPC: 0.3895 (Simulation time: 01 hr 00 min 06 sec)
Heartbeat CPU 0 instructions: 260000051 cycles: 667599866 heartbeat IPC: 0.3894 cumulative IPC: 0.3895 (Simulation time: 01 hr 02 min 45 sec)
Heartbeat CPU 0 instructions: 270000051 cycles: 693279116 heartbeat IPC: 0.3894 cumulative IPC: 0.3895 (Simulation time: 01 hr 05 min 09 sec)
Heartbeat CPU 0 instructions: 280000052 cycles: 718928491 heartbeat IPC: 0.3899 cumulative IPC: 0.3895 (Simulation time: 01 hr 07 min 06 sec)
Heartbeat CPU 0 instructions: 290000052 cycles: 744556314 heartbeat IPC: 0.3902 cumulative IPC: 0.3895 (Simulation time: 01 hr 09 min 11 sec)
Heartbeat CPU 0 instructions: 300000056 cycles: 770193939 heartbeat IPC: 0.3901 cumulative IPC: 0.3895 (Simulation time: 01 hr 11 min 48 sec)
Heartbeat CPU 0 instructions: 310000056 cycles: 795844848 heartbeat IPC: 0.3898 cumulative IPC: 0.3895 (Simulation time: 01 hr 14 min 10 sec)
Heartbeat CPU 0 instructions: 320000059 cycles: 821498433 heartbeat IPC: 0.3898 cumulative IPC: 0.3895 (Simulation time: 01 hr 16 min 10 sec)
Heartbeat CPU 0 instructions: 330000059 cycles: 847143882 heartbeat IPC: 0.3899 cumulative IPC: 0.3895 (Simulation time: 01 hr 18 min 33 sec)
Heartbeat CPU 0 instructions: 340000061 cycles: 872812865 heartbeat IPC: 0.3896 cumulative IPC: 0.3895 (Simulation time: 01 hr 21 min 05 sec)
Heartbeat CPU 0 instructions: 350000063 cycles: 898448427 heartbeat IPC: 0.3901 cumulative IPC: 0.3896 (Simulation time: 01 hr 23 min 32 sec)
Heartbeat CPU 0 instructions: 360000064 cycles: 924073916 heartbeat IPC: 0.3902 cumulative IPC: 0.3896 (Simulation time: 01 hr 25 min 46 sec)
Heartbeat CPU 0 instructions: 370000067 cycles: 949684912 heartbeat IPC: 0.3905 cumulative IPC: 0.3896 (Simulation time: 01 hr 27 min 51 sec)
Heartbeat CPU 0 instructions: 380000068 cycles: 975376068 heartbeat IPC: 0.3892 cumulative IPC: 0.3896 (Simulation time: 01 hr 30 min 26 sec)
Heartbeat CPU 0 instructions: 390000071 cycles: 1001058939 heartbeat IPC: 0.3894 cumulative IPC: 0.3896 (Simulation time: 01 hr 32 min 46 sec)
Heartbeat CPU 0 instructions: 400000074 cycles: 1026748839 heartbeat IPC: 0.3893 cumulative IPC: 0.3896 (Simulation time: 01 hr 35 min 01 sec)
Heartbeat CPU 0 instructions: 410000076 cycles: 1052422376 heartbeat IPC: 0.3895 cumulative IPC: 0.3896 (Simulation time: 01 hr 37 min 29 sec)
[ERROR_CYCLE] Error added at CPU cycle 1069353795, next at 1075364498, pending count: 1
[DRAM_CYCLE_ERROR] Cycle-based error applied! address=0x3e67c1180 additional_latency=1990500 cycles
[ERROR_CYCLE] Error added at CPU cycle 1075364499, next at 1382772839, pending count: 1
[DRAM_CYCLE_ERROR] Cycle-based error applied! address=0x1a68761a0 additional_latency=1990500 cycles
Heartbeat CPU 0 instructions: 420000076 cycles: 1078105400 heartbeat IPC: 0.3894 cumulative IPC: 0.3896 (Simulation time: 01 hr 39 min 42 sec)
Heartbeat CPU 0 instructions: 430000076 cycles: 1103724010 heartbeat IPC: 0.3903 cumulative IPC: 0.3896 (Simulation time: 01 hr 41 min 52 sec)
Heartbeat CPU 0 instructions: 440000080 cycles: 1129375843 heartbeat IPC: 0.3898 cumulative IPC: 0.3896 (Simulation time: 01 hr 44 min 28 sec)
Heartbeat CPU 0 instructions: 450000081 cycles: 1155016319 heartbeat IPC: 0.39 cumulative IPC: 0.3896 (Simulation time: 01 hr 47 min 04 sec)
Heartbeat CPU 0 instructions: 460000083 cycles: 1180600897 heartbeat IPC: 0.3909 cumulative IPC: 0.3896 (Simulation time: 01 hr 49 min 21 sec)
Heartbeat CPU 0 instructions: 470000085 cycles: 1206169077 heartbeat IPC: 0.3911 cumulative IPC: 0.3897 (Simulation time: 01 hr 51 min 55 sec)
Heartbeat CPU 0 instructions: 480000086 cycles: 1231751441 heartbeat IPC: 0.3909 cumulative IPC: 0.3897 (Simulation time: 01 hr 53 min 59 sec)
Heartbeat CPU 0 instructions: 490000086 cycles: 1257316878 heartbeat IPC: 0.3912 cumulative IPC: 0.3897 (Simulation time: 01 hr 56 min 07 sec)
Heartbeat CPU 0 instructions: 500000086 cycles: 1282994427 heartbeat IPC: 0.3894 cumulative IPC: 0.3897 (Simulation time: 01 hr 58 min 26 sec)
Heartbeat CPU 0 instructions: 510000087 cycles: 1308612342 heartbeat IPC: 0.3904 cumulative IPC: 0.3897 (Simulation time: 02 hr 00 min 36 sec)
Heartbeat CPU 0 instructions: 520000087 cycles: 1334202169 heartbeat IPC: 0.3908 cumulative IPC: 0.3897 (Simulation time: 02 hr 02 min 47 sec)
Heartbeat CPU 0 instructions: 530000091 cycles: 1359815698 heartbeat IPC: 0.3904 cumulative IPC: 0.3898 (Simulation time: 02 hr 05 min 16 sec)
[ERROR_CYCLE] Error added at CPU cycle 1382772839, next at 1418568864, pending count: 1
[DRAM_CYCLE_ERROR] Cycle-based error applied! address=0x63c250ef0 additional_latency=1990500 cycles
Heartbeat CPU 0 instructions: 540000093 cycles: 1385501085 heartbeat IPC: 0.3893 cumulative IPC: 0.3898 (Simulation time: 02 hr 07 min 53 sec)
Heartbeat CPU 0 instructions: 550000093 cycles: 1411103723 heartbeat IPC: 0.3906 cumulative IPC: 0.3898 (Simulation time: 02 hr 10 min 29 sec)
[ERROR_CYCLE] Error added at CPU cycle 1418568864, next at 1532348430, pending count: 1
[DRAM_CYCLE_ERROR] Cycle-based error applied! address=0x4ec79cac8 additional_latency=1990500 cycles
Heartbeat CPU 0 instructions: 560000095 cycles: 1436746356 heartbeat IPC: 0.39 cumulative IPC: 0.3898 (Simulation time: 02 hr 13 min 06 sec)
Heartbeat CPU 0 instructions: 570000095 cycles: 1462383069 heartbeat IPC: 0.3901 cumulative IPC: 0.3898 (Simulation time: 02 hr 15 min 43 sec)
Heartbeat CPU 0 instructions: 580000099 cycles: 1488023683 heartbeat IPC: 0.39 cumulative IPC: 0.3898 (Simulation time: 02 hr 18 min 20 sec)
Heartbeat CPU 0 instructions: 590000102 cycles: 1513661400 heartbeat IPC: 0.3901 cumulative IPC: 0.3898 (Simulation time: 02 hr 20 min 39 sec)
[ERROR_CYCLE] Error added at CPU cycle 1532348430, next at 1703137205, pending count: 1
[DRAM_CYCLE_ERROR] Cycle-based error applied! address=0x7335cbd40 additional_latency=1990500 cycles
Heartbeat CPU 0 instructions: 600000104 cycles: 1539350370 heartbeat IPC: 0.3893 cumulative IPC: 0.3898 (Simulation time: 02 hr 23 min 16 sec)
Heartbeat CPU 0 instructions: 610000105 cycles: 1565037721 heartbeat IPC: 0.3893 cumulative IPC: 0.3898 (Simulation time: 02 hr 25 min 53 sec)
Heartbeat CPU 0 instructions: 620000107 cycles: 1592679949 heartbeat IPC: 0.3618 cumulative IPC: 0.3893 (Simulation time: 02 hr 28 min 41 sec)
Heartbeat CPU 0 instructions: 630000107 cycles: 1619114332 heartbeat IPC: 0.3783 cumulative IPC: 0.3891 (Simulation time: 02 hr 31 min 22 sec)
Heartbeat CPU 0 instructions: 640000107 cycles: 1645100697 heartbeat IPC: 0.3848 cumulative IPC: 0.389 (Simulation time: 02 hr 34 min 01 sec)
Heartbeat CPU 0 instructions: 650000107 cycles: 1671299881 heartbeat IPC: 0.3817 cumulative IPC: 0.3889 (Simulation time: 02 hr 36 min 39 sec)
Heartbeat CPU 0 instructions: 660000108 cycles: 1697071316 heartbeat IPC: 0.388 cumulative IPC: 0.3889 (Simulation time: 02 hr 39 min 17 sec)
[ERROR_CYCLE] Error added at CPU cycle 1703137205, next at 1752067520, pending count: 1
[DRAM_CYCLE_ERROR] Cycle-based error applied! address=0x9d5f7a80 additional_latency=1990500 cycles
Heartbeat CPU 0 instructions: 670000109 cycles: 1722768315 heartbeat IPC: 0.3892 cumulative IPC: 0.3889 (Simulation time: 02 hr 41 min 54 sec)
Heartbeat CPU 0 instructions: 680000110 cycles: 1748410922 heartbeat IPC: 0.39 cumulative IPC: 0.3889 (Simulation time: 02 hr 43 min 57 sec)
[ERROR_CYCLE] Error added at CPU cycle 1752067521, next at 2107259108, pending count: 1
[DRAM_CYCLE_ERROR] Cycle-based error applied! address=0x7e00e4758 additional_latency=1990500 cycles
Heartbeat CPU 0 instructions: 690000111 cycles: 1773978121 heartbeat IPC: 0.3911 cumulative IPC: 0.389 (Simulation time: 02 hr 46 min 02 sec)
Heartbeat CPU 0 instructions: 700000115 cycles: 1799528630 heartbeat IPC: 0.3914 cumulative IPC: 0.389 (Simulation time: 02 hr 48 min 38 sec)
Heartbeat CPU 0 instructions: 710000116 cycles: 1825088059 heartbeat IPC: 0.3912 cumulative IPC: 0.389 (Simulation time: 02 hr 50 min 37 sec)
Heartbeat CPU 0 instructions: 720000117 cycles: 1850639701 heartbeat IPC: 0.3914 cumulative IPC: 0.3891 (Simulation time: 02 hr 53 min 05 sec)
Heartbeat CPU 0 instructions: 730000120 cycles: 1876249430 heartbeat IPC: 0.3905 cumulative IPC: 0.3891 (Simulation time: 02 hr 55 min 41 sec)
Heartbeat CPU 0 instructions: 740000121 cycles: 1901922312 heartbeat IPC: 0.3895 cumulative IPC: 0.3891 (Simulation time: 02 hr 58 min 18 sec)
Heartbeat CPU 0 instructions: 750000122 cycles: 1927565688 heartbeat IPC: 0.39 cumulative IPC: 0.3891 (Simulation time: 03 hr 00 min 54 sec)
Heartbeat CPU 0 instructions: 760000122 cycles: 1953224849 heartbeat IPC: 0.3897 cumulative IPC: 0.3891 (Simulation time: 03 hr 03 min 31 sec)
Heartbeat CPU 0 instructions: 770000122 cycles: 1978848006 heartbeat IPC: 0.3903 cumulative IPC: 0.3891 (Simulation time: 03 hr 06 min 07 sec)
Heartbeat CPU 0 instructions: 780000124 cycles: 2004465199 heartbeat IPC: 0.3904 cumulative IPC: 0.3891 (Simulation time: 03 hr 08 min 43 sec)
Heartbeat CPU 0 instructions: 790000127 cycles: 2030027732 heartbeat IPC: 0.3912 cumulative IPC: 0.3892 (Simulation time: 03 hr 11 min 03 sec)
Heartbeat CPU 0 instructions: 800000128 cycles: 2055695606 heartbeat IPC: 0.3896 cumulative IPC: 0.3892 (Simulation time: 03 hr 13 min 42 sec)
Heartbeat CPU 0 instructions: 810000128 cycles: 2081314070 heartbeat IPC: 0.3903 cumulative IPC: 0.3892 (Simulation time: 03 hr 16 min 21 sec)
Heartbeat CPU 0 instructions: 820000128 cycles: 2106950629 heartbeat IPC: 0.3901 cumulative IPC: 0.3892 (Simulation time: 03 hr 18 min 59 sec)
[ERROR_CYCLE] Error added at CPU cycle 2107259108, next at 2178462766, pending count: 1
[DRAM_CYCLE_ERROR] Cycle-based error applied! address=0x24b546958 additional_latency=1990500 cycles
Heartbeat CPU 0 instructions: 830000128 cycles: 2132588762 heartbeat IPC: 0.39 cumulative IPC: 0.3892 (Simulation time: 03 hr 21 min 22 sec)
Heartbeat CPU 0 instructions: 840000128 cycles: 2158219776 heartbeat IPC: 0.3902 cumulative IPC: 0.3892 (Simulation time: 03 hr 23 min 34 sec)
[ERROR_CYCLE] Error added at CPU cycle 2178462767, next at 2267979990, pending count: 1
[DRAM_CYCLE_ERROR] Cycle-based error applied! address=0x14b0119d0 additional_latency=1990500 cycles
Heartbeat CPU 0 instructions: 850000131 cycles: 2183868623 heartbeat IPC: 0.3899 cumulative IPC: 0.3892 (Simulation time: 03 hr 26 min 13 sec)
Heartbeat CPU 0 instructions: 860000134 cycles: 2209413807 heartbeat IPC: 0.3915 cumulative IPC: 0.3892 (Simulation time: 03 hr 28 min 47 sec)
Heartbeat CPU 0 instructions: 870000134 cycles: 2234983337 heartbeat IPC: 0.3911 cumulative IPC: 0.3893 (Simulation time: 03 hr 31 min 26 sec)
Heartbeat CPU 0 instructions: 880000136 cycles: 2260533724 heartbeat IPC: 0.3914 cumulative IPC: 0.3893 (Simulation time: 03 hr 34 min 04 sec)
[ERROR_CYCLE] Error added at CPU cycle 2267979990, next at 2675036714, pending count: 1
[DRAM_CYCLE_ERROR] Cycle-based error applied! address=0x72a61ba58 additional_latency=1990500 cycles
Heartbeat CPU 0 instructions: 890000137 cycles: 2286144103 heartbeat IPC: 0.3905 cumulative IPC: 0.3893 (Simulation time: 03 hr 36 min 43 sec)
Heartbeat CPU 0 instructions: 900000137 cycles: 2311731599 heartbeat IPC: 0.3908 cumulative IPC: 0.3893 (Simulation time: 03 hr 39 min 23 sec)
Heartbeat CPU 0 instructions: 910000140 cycles: 2337319962 heartbeat IPC: 0.3908 cumulative IPC: 0.3893 (Simulation time: 03 hr 42 min 02 sec)
Heartbeat CPU 0 instructions: 920000140 cycles: 2362882800 heartbeat IPC: 0.3912 cumulative IPC: 0.3894 (Simulation time: 03 hr 44 min 40 sec)
Heartbeat CPU 0 instructions: 930000140 cycles: 2388448933 heartbeat IPC: 0.3911 cumulative IPC: 0.3894 (Simulation time: 03 hr 47 min 20 sec)
Heartbeat CPU 0 instructions: 940000144 cycles: 2414030950 heartbeat IPC: 0.3909 cumulative IPC: 0.3894 (Simulation time: 03 hr 49 min 59 sec)
Heartbeat CPU 0 instructions: 950000147 cycles: 2439597247 heartbeat IPC: 0.3911 cumulative IPC: 0.3894 (Simulation time: 03 hr 52 min 12 sec)
Heartbeat CPU 0 instructions: 960000147 cycles: 2465160997 heartbeat IPC: 0.3912 cumulative IPC: 0.3894 (Simulation time: 03 hr 54 min 30 sec)
Heartbeat CPU 0 instructions: 970000149 cycles: 2490714748 heartbeat IPC: 0.3913 cumulative IPC: 0.3894 (Simulation time: 03 hr 57 min 03 sec)
Heartbeat CPU 0 instructions: 980000150 cycles: 2516281280 heartbeat IPC: 0.3911 cumulative IPC: 0.3895 (Simulation time: 03 hr 59 min 37 sec)
Heartbeat CPU 0 instructions: 990000150 cycles: 2541820374 heartbeat IPC: 0.3916 cumulative IPC: 0.3895 (Simulation time: 04 hr 02 min 11 sec)
Heartbeat CPU 0 instructions: 1000000152 cycles: 2567411380 heartbeat IPC: 0.3908 cumulative IPC: 0.3895 (Simulation time: 04 hr 04 min 44 sec)
Heartbeat CPU 0 instructions: 1010000153 cycles: 2592965523 heartbeat IPC: 0.3913 cumulative IPC: 0.3895 (Simulation time: 04 hr 07 min 18 sec)
Heartbeat CPU 0 instructions: 1020000155 cycles: 2618509833 heartbeat IPC: 0.3915 cumulative IPC: 0.3895 (Simulation time: 04 hr 09 min 35 sec)
Heartbeat CPU 0 instructions: 1030000155 cycles: 2644076623 heartbeat IPC: 0.3911 cumulative IPC: 0.3896 (Simulation time: 04 hr 11 min 41 sec)
Heartbeat CPU 0 instructions: 1040000157 cycles: 2669646225 heartbeat IPC: 0.3911 cumulative IPC: 0.3896 (Simulation time: 04 hr 13 min 43 sec)
[ERROR_CYCLE] Error added at CPU cycle 2675036715, next at 2677487211, pending count: 1
[DRAM_CYCLE_ERROR] Cycle-based error applied! address=0x46e889c10 additional_latency=1990500 cycles
[ERROR_CYCLE] Error added at CPU cycle 2677487211, next at 2902477298, pending count: 1
[DRAM_CYCLE_ERROR] Cycle-based error applied! address=0x46e98a188 additional_latency=1990500 cycles
Heartbeat CPU 0 instructions: 1050000160 cycles: 2695207473 heartbeat IPC: 0.3912 cumulative IPC: 0.3896 (Simulation time: 04 hr 16 min 09 sec)
Heartbeat CPU 0 instructions: 1060000161 cycles: 2720779601 heartbeat IPC: 0.3911 cumulative IPC: 0.3896 (Simulation time: 04 hr 18 min 47 sec)
Heartbeat CPU 0 instructions: 1070000162 cycles: 2746331053 heartbeat IPC: 0.3914 cumulative IPC: 0.3896 (Simulation time: 04 hr 21 min 13 sec)
Heartbeat CPU 0 instructions: 1080000163 cycles: 2771907058 heartbeat IPC: 0.391 cumulative IPC: 0.3896 (Simulation time: 04 hr 23 min 51 sec)
Heartbeat CPU 0 instructions: 1090000163 cycles: 2797475727 heartbeat IPC: 0.3911 cumulative IPC: 0.3896 (Simulation time: 04 hr 26 min 29 sec)
Heartbeat CPU 0 instructions: 1100000164 cycles: 2823084358 heartbeat IPC: 0.3905 cumulative IPC: 0.3896 (Simulation time: 04 hr 29 min 07 sec)
Heartbeat CPU 0 instructions: 1110000164 cycles: 2848669259 heartbeat IPC: 0.3909 cumulative IPC: 0.3897 (Simulation time: 04 hr 31 min 45 sec)
Heartbeat CPU 0 instructions: 1120000166 cycles: 2874234692 heartbeat IPC: 0.3912 cumulative IPC: 0.3897 (Simulation time: 04 hr 33 min 54 sec)
Heartbeat CPU 0 instructions: 1130000166 cycles: 2899791449 heartbeat IPC: 0.3913 cumulative IPC: 0.3897 (Simulation time: 04 hr 36 min 20 sec)
[ERROR_CYCLE] Error added at CPU cycle 2902477299, next at 3033742300, pending count: 1
[DRAM_CYCLE_ERROR] Cycle-based error applied! address=0x3755c3200 additional_latency=1990500 cycles
Heartbeat CPU 0 instructions: 1140000169 cycles: 2925358556 heartbeat IPC: 0.3911 cumulative IPC: 0.3897 (Simulation time: 04 hr 38 min 21 sec)
Heartbeat CPU 0 instructions: 1150000169 cycles: 2950980886 heartbeat IPC: 0.3903 cumulative IPC: 0.3897 (Simulation time: 04 hr 40 min 53 sec)
Heartbeat CPU 0 instructions: 1160000171 cycles: 2976564730 heartbeat IPC: 0.3909 cumulative IPC: 0.3897 (Simulation time: 04 hr 43 min 09 sec)
Heartbeat CPU 0 instructions: 1170000172 cycles: 3001911954 heartbeat IPC: 0.3945 cumulative IPC: 0.3898 (Simulation time: 04 hr 45 min 30 sec)
Heartbeat CPU 0 instructions: 1180000173 cycles: 3027430741 heartbeat IPC: 0.3919 cumulative IPC: 0.3898 (Simulation time: 04 hr 47 min 59 sec)
[ERROR_CYCLE] Error added at CPU cycle 3033742300, next at 3790529692, pending count: 1
[DRAM_CYCLE_ERROR] Cycle-based error applied! address=0x201e97cd8 additional_latency=1990500 cycles
Heartbeat CPU 0 instructions: 1190000173 cycles: 3052999146 heartbeat IPC: 0.3911 cumulative IPC: 0.3898 (Simulation time: 04 hr 50 min 32 sec)
Heartbeat CPU 0 instructions: 1200000173 cycles: 3078545114 heartbeat IPC: 0.3915 cumulative IPC: 0.3898 (Simulation time: 04 hr 52 min 18 sec)
Heartbeat CPU 0 instructions: 1210000174 cycles: 3104113498 heartbeat IPC: 0.3911 cumulative IPC: 0.3898 (Simulation time: 04 hr 54 min 19 sec)
Heartbeat CPU 0 instructions: 1220000178 cycles: 3129674403 heartbeat IPC: 0.3912 cumulative IPC: 0.3898 (Simulation time: 04 hr 56 min 13 sec)
Heartbeat CPU 0 instructions: 1230000181 cycles: 3155129822 heartbeat IPC: 0.3928 cumulative IPC: 0.3898 (Simulation time: 04 hr 58 min 24 sec)
Heartbeat CPU 0 instructions: 1240000182 cycles: 3180651585 heartbeat IPC: 0.3918 cumulative IPC: 0.3899 (Simulation time: 05 hr 01 min 02 sec)
Heartbeat CPU 0 instructions: 1250000185 cycles: 3206212040 heartbeat IPC: 0.3912 cumulative IPC: 0.3899 (Simulation time: 05 hr 03 min 30 sec)
Heartbeat CPU 0 instructions: 1260000185 cycles: 3231691758 heartbeat IPC: 0.3925 cumulative IPC: 0.3899 (Simulation time: 05 hr 05 min 54 sec)
Heartbeat CPU 0 instructions: 1270000185 cycles: 3257250937 heartbeat IPC: 0.3912 cumulative IPC: 0.3899 (Simulation time: 05 hr 08 min 28 sec)
Heartbeat CPU 0 instructions: 1280000186 cycles: 3282896675 heartbeat IPC: 0.3899 cumulative IPC: 0.3899 (Simulation time: 05 hr 11 min 03 sec)
Heartbeat CPU 0 instructions: 1290000186 cycles: 3308584297 heartbeat IPC: 0.3893 cumulative IPC: 0.3899 (Simulation time: 05 hr 13 min 31 sec)
Heartbeat CPU 0 instructions: 1300000190 cycles: 3334191028 heartbeat IPC: 0.3905 cumulative IPC: 0.3899 (Simulation time: 05 hr 15 min 20 sec)
Heartbeat CPU 0 instructions: 1310000190 cycles: 3359870891 heartbeat IPC: 0.3894 cumulative IPC: 0.3899 (Simulation time: 05 hr 17 min 53 sec)
Heartbeat CPU 0 instructions: 1320000190 cycles: 3385531375 heartbeat IPC: 0.3897 cumulative IPC: 0.3899 (Simulation time: 05 hr 20 min 32 sec)
Heartbeat CPU 0 instructions: 1330000190 cycles: 3411197078 heartbeat IPC: 0.3896 cumulative IPC: 0.3899 (Simulation time: 05 hr 23 min 02 sec)
Heartbeat CPU 0 instructions: 1340000190 cycles: 3436774350 heartbeat IPC: 0.391 cumulative IPC: 0.3899 (Simulation time: 05 hr 25 min 13 sec)
Heartbeat CPU 0 instructions: 1350000192 cycles: 3462315795 heartbeat IPC: 0.3915 cumulative IPC: 0.3899 (Simulation time: 05 hr 27 min 42 sec)
Heartbeat CPU 0 instructions: 1360000193 cycles: 3487854284 heartbeat IPC: 0.3916 cumulative IPC: 0.3899 (Simulation time: 05 hr 29 min 45 sec)
Heartbeat CPU 0 instructions: 1370000194 cycles: 3513455745 heartbeat IPC: 0.3906 cumulative IPC: 0.3899 (Simulation time: 05 hr 32 min 24 sec)
Heartbeat CPU 0 instructions: 1380000197 cycles: 3539050429 heartbeat IPC: 0.3907 cumulative IPC: 0.3899 (Simulation time: 05 hr 34 min 55 sec)
Heartbeat CPU 0 instructions: 1390000201 cycles: 3564592436 heartbeat IPC: 0.3915 cumulative IPC: 0.3899 (Simulation time: 05 hr 36 min 36 sec)
Heartbeat CPU 0 instructions: 1400000204 cycles: 3590173477 heartbeat IPC: 0.3909 cumulative IPC: 0.39 (Simulation time: 05 hr 38 min 44 sec)
Heartbeat CPU 0 instructions: 1410000206 cycles: 3615781768 heartbeat IPC: 0.3905 cumulative IPC: 0.39 (Simulation time: 05 hr 41 min 24 sec)
Heartbeat CPU 0 instructions: 1420000206 cycles: 3641536669 heartbeat IPC: 0.3883 cumulative IPC: 0.3899 (Simulation time: 05 hr 44 min 04 sec)
Heartbeat CPU 0 instructions: 1430000209 cycles: 3667420370 heartbeat IPC: 0.3863 cumulative IPC: 0.3899 (Simulation time: 05 hr 46 min 44 sec)
Heartbeat CPU 0 instructions: 1440000211 cycles: 3694985556 heartbeat IPC: 0.3628 cumulative IPC: 0.3897 (Simulation time: 05 hr 49 min 37 sec)
Heartbeat CPU 0 instructions: 1450000214 cycles: 3720329039 heartbeat IPC: 0.3946 cumulative IPC: 0.3898 (Simulation time: 05 hr 51 min 47 sec)
Heartbeat CPU 0 instructions: 1460000214 cycles: 3745934802 heartbeat IPC: 0.3905 cumulative IPC: 0.3898 (Simulation time: 05 hr 54 min 10 sec)
Heartbeat CPU 0 instructions: 1470000214 cycles: 3771525382 heartbeat IPC: 0.3908 cumulative IPC: 0.3898 (Simulation time: 05 hr 56 min 49 sec)
[ERROR_CYCLE] Error added at CPU cycle 3790529693, next at 3837918575, pending count: 1
[DRAM_CYCLE_ERROR] Cycle-based error applied! address=0x4314c63f0 additional_latency=1990500 cycles
Heartbeat CPU 0 instructions: 1480000216 cycles: 3797123509 heartbeat IPC: 0.3907 cumulative IPC: 0.3898 (Simulation time: 05 hr 59 min 30 sec)
Heartbeat CPU 0 instructions: 1490000220 cycles: 3822691716 heartbeat IPC: 0.3911 cumulative IPC: 0.3898 (Simulation time: 06 hr 02 min 09 sec)
[ERROR_CYCLE] Error added at CPU cycle 3837918576, next at 3885940555, pending count: 1
[DRAM_CYCLE_ERROR] Cycle-based error applied! address=0x72c73f018 additional_latency=1990500 cycles
Heartbeat CPU 0 instructions: 1500000220 cycles: 3848280422 heartbeat IPC: 0.3908 cumulative IPC: 0.3898 (Simulation time: 06 hr 04 min 49 sec)
Heartbeat CPU 0 instructions: 1510000220 cycles: 3873828583 heartbeat IPC: 0.3914 cumulative IPC: 0.3898 (Simulation time: 06 hr 06 min 46 sec)
[ERROR_CYCLE] Error added at CPU cycle 3885940556, next at 4462380683, pending count: 1
[DRAM_CYCLE_ERROR] Cycle-based error applied! address=0x5ec973508 additional_latency=1990500 cycles
Heartbeat CPU 0 instructions: 1520000222 cycles: 3899481955 heartbeat IPC: 0.3898 cumulative IPC: 0.3898 (Simulation time: 06 hr 08 min 55 sec)
Heartbeat CPU 0 instructions: 1530000222 cycles: 3925122764 heartbeat IPC: 0.39 cumulative IPC: 0.3898 (Simulation time: 06 hr 11 min 31 sec)
Heartbeat CPU 0 instructions: 1540000223 cycles: 3950650263 heartbeat IPC: 0.3917 cumulative IPC: 0.3898 (Simulation time: 06 hr 14 min 06 sec)
Heartbeat CPU 0 instructions: 1550000223 cycles: 3976031911 heartbeat IPC: 0.394 cumulative IPC: 0.3898 (Simulation time: 06 hr 16 min 38 sec)
Heartbeat CPU 0 instructions: 1560000225 cycles: 4001518683 heartbeat IPC: 0.3924 cumulative IPC: 0.3899 (Simulation time: 06 hr 19 min 09 sec)
Heartbeat CPU 0 instructions: 1570000225 cycles: 4026940900 heartbeat IPC: 0.3934 cumulative IPC: 0.3899 (Simulation time: 06 hr 21 min 13 sec)
Heartbeat CPU 0 instructions: 1580000227 cycles: 4052418781 heartbeat IPC: 0.3925 cumulative IPC: 0.3899 (Simulation time: 06 hr 23 min 16 sec)
Heartbeat CPU 0 instructions: 1590000231 cycles: 4077890046 heartbeat IPC: 0.3926 cumulative IPC: 0.3899 (Simulation time: 06 hr 25 min 38 sec)
Heartbeat CPU 0 instructions: 1600000231 cycles: 4103368400 heartbeat IPC: 0.3925 cumulative IPC: 0.3899 (Simulation time: 06 hr 28 min 14 sec)
Heartbeat CPU 0 instructions: 1610000231 cycles: 4128844038 heartbeat IPC: 0.3925 cumulative IPC: 0.3899 (Simulation time: 06 hr 30 min 40 sec)
Heartbeat CPU 0 instructions: 1620000232 cycles: 4154322563 heartbeat IPC: 0.3925 cumulative IPC: 0.39 (Simulation time: 06 hr 32 min 47 sec)
Heartbeat CPU 0 instructions: 1630000233 cycles: 4179812384 heartbeat IPC: 0.3923 cumulative IPC: 0.39 (Simulation time: 06 hr 34 min 32 sec)
Heartbeat CPU 0 instructions: 1640000234 cycles: 4205298024 heartbeat IPC: 0.3924 cumulative IPC: 0.39 (Simulation time: 06 hr 36 min 45 sec)
Heartbeat CPU 0 instructions: 1650000235 cycles: 4230786649 heartbeat IPC: 0.3923 cumulative IPC: 0.39 (Simulation time: 06 hr 39 min 23 sec)
Heartbeat CPU 0 instructions: 1660000235 cycles: 4256265803 heartbeat IPC: 0.3925 cumulative IPC: 0.39 (Simulation time: 06 hr 41 min 50 sec)
Heartbeat CPU 0 instructions: 1670000235 cycles: 4281742855 heartbeat IPC: 0.3925 cumulative IPC: 0.39 (Simulation time: 06 hr 44 min 16 sec)
Heartbeat CPU 0 instructions: 1680000237 cycles: 4307213153 heartbeat IPC: 0.3926 cumulative IPC: 0.39 (Simulation time: 06 hr 46 min 41 sec)
Heartbeat CPU 0 instructions: 1690000237 cycles: 4332719635 heartbeat IPC: 0.3921 cumulative IPC: 0.3901 (Simulation time: 06 hr 49 min 01 sec)
Heartbeat CPU 0 instructions: 1700000241 cycles: 4358198604 heartbeat IPC: 0.3925 cumulative IPC: 0.3901 (Simulation time: 06 hr 51 min 36 sec)
Heartbeat CPU 0 instructions: 1710000242 cycles: 4383661549 heartbeat IPC: 0.3927 cumulative IPC: 0.3901 (Simulation time: 06 hr 53 min 36 sec)
Heartbeat CPU 0 instructions: 1720000243 cycles: 4409112995 heartbeat IPC: 0.3929 cumulative IPC: 0.3901 (Simulation time: 06 hr 55 min 57 sec)
Heartbeat CPU 0 instructions: 1730000243 cycles: 4434601259 heartbeat IPC: 0.3923 cumulative IPC: 0.3901 (Simulation time: 06 hr 58 min 36 sec)
Heartbeat CPU 0 instructions: 1740000246 cycles: 4460080820 heartbeat IPC: 0.3925 cumulative IPC: 0.3901 (Simulation time: 07 hr 01 min 15 sec)
[ERROR_CYCLE] Error added at CPU cycle 4462380683, next at 4541334176, pending count: 1
[DRAM_CYCLE_ERROR] Cycle-based error applied! address=0x8b5e2e08 additional_latency=1990500 cycles
Heartbeat CPU 0 instructions: 1750000247 cycles: 4485568055 heartbeat IPC: 0.3924 cumulative IPC: 0.3901 (Simulation time: 07 hr 03 min 54 sec)
Heartbeat CPU 0 instructions: 1760000248 cycles: 4511054679 heartbeat IPC: 0.3924 cumulative IPC: 0.3902 (Simulation time: 07 hr 06 min 27 sec)
Heartbeat CPU 0 instructions: 1770000252 cycles: 4536533200 heartbeat IPC: 0.3925 cumulative IPC: 0.3902 (Simulation time: 07 hr 08 min 43 sec)
[ERROR_CYCLE] Error added at CPU cycle 4541334177, next at 5396929851, pending count: 1
[DRAM_CYCLE_ERROR] Cycle-based error applied! address=0x2d6cf0f00 additional_latency=1990500 cycles
Heartbeat CPU 0 instructions: 1780000252 cycles: 4562023638 heartbeat IPC: 0.3923 cumulative IPC: 0.3902 (Simulation time: 07 hr 11 min 01 sec)
Heartbeat CPU 0 instructions: 1790000252 cycles: 4587510724 heartbeat IPC: 0.3924 cumulative IPC: 0.3902 (Simulation time: 07 hr 13 min 40 sec)
Heartbeat CPU 0 instructions: 1800000252 cycles: 4613015308 heartbeat IPC: 0.3921 cumulative IPC: 0.3902 (Simulation time: 07 hr 16 min 19 sec)
Heartbeat CPU 0 instructions: 1810000253 cycles: 4638490388 heartbeat IPC: 0.3925 cumulative IPC: 0.3902 (Simulation time: 07 hr 18 min 58 sec)
Heartbeat CPU 0 instructions: 1820000255 cycles: 4663947024 heartbeat IPC: 0.3928 cumulative IPC: 0.3902 (Simulation time: 07 hr 21 min 36 sec)
Heartbeat CPU 0 instructions: 1830000257 cycles: 4689441640 heartbeat IPC: 0.3922 cumulative IPC: 0.3902 (Simulation time: 07 hr 24 min 14 sec)
Heartbeat CPU 0 instructions: 1840000259 cycles: 4714903868 heartbeat IPC: 0.3927 cumulative IPC: 0.3903 (Simulation time: 07 hr 26 min 34 sec)
Heartbeat CPU 0 instructions: 1850000259 cycles: 4740374454 heartbeat IPC: 0.3926 cumulative IPC: 0.3903 (Simulation time: 07 hr 29 min 11 sec)
Heartbeat CPU 0 instructions: 1860000262 cycles: 4765849249 heartbeat IPC: 0.3925 cumulative IPC: 0.3903 (Simulation time: 07 hr 31 min 40 sec)
Heartbeat CPU 0 instructions: 1870000263 cycles: 4791326941 heartbeat IPC: 0.3925 cumulative IPC: 0.3903 (Simulation time: 07 hr 34 min 18 sec)
Heartbeat CPU 0 instructions: 1880000264 cycles: 4816828711 heartbeat IPC: 0.3921 cumulative IPC: 0.3903 (Simulation time: 07 hr 36 min 57 sec)
Heartbeat CPU 0 instructions: 1890000267 cycles: 4842307187 heartbeat IPC: 0.3925 cumulative IPC: 0.3903 (Simulation time: 07 hr 39 min 35 sec)
Heartbeat CPU 0 instructions: 1900000271 cycles: 4867801319 heartbeat IPC: 0.3922 cumulative IPC: 0.3903 (Simulation time: 07 hr 42 min 13 sec)
Heartbeat CPU 0 instructions: 1910000274 cycles: 4893289206 heartbeat IPC: 0.3923 cumulative IPC: 0.3903 (Simulation time: 07 hr 44 min 52 sec)
Heartbeat CPU 0 instructions: 1920000278 cycles: 4918723039 heartbeat IPC: 0.3932 cumulative IPC: 0.3903 (Simulation time: 07 hr 47 min 30 sec)
Heartbeat CPU 0 instructions: 1930000280 cycles: 4944212082 heartbeat IPC: 0.3923 cumulative IPC: 0.3904 (Simulation time: 07 hr 50 min 08 sec)
Heartbeat CPU 0 instructions: 1940000280 cycles: 4969697445 heartbeat IPC: 0.3924 cumulative IPC: 0.3904 (Simulation time: 07 hr 52 min 46 sec)
Heartbeat CPU 0 instructions: 1950000281 cycles: 4995153622 heartbeat IPC: 0.3928 cumulative IPC: 0.3904 (Simulation time: 07 hr 55 min 23 sec)
Heartbeat CPU 0 instructions: 1960000284 cycles: 5020616291 heartbeat IPC: 0.3927 cumulative IPC: 0.3904 (Simulation time: 07 hr 58 min 00 sec)
Heartbeat CPU 0 instructions: 1970000284 cycles: 5046072756 heartbeat IPC: 0.3928 cumulative IPC: 0.3904 (Simulation time: 08 hr 00 min 38 sec)
Heartbeat CPU 0 instructions: 1980000285 cycles: 5071570196 heartbeat IPC: 0.3922 cumulative IPC: 0.3904 (Simulation time: 08 hr 03 min 03 sec)
Heartbeat CPU 0 instructions: 1990000285 cycles: 5097066585 heartbeat IPC: 0.3922 cumulative IPC: 0.3904 (Simulation time: 08 hr 05 min 42 sec)

=== ERROR PAGE STATISTICS ===
Mode: CYCLE
Error Cycle Interval: 200000000 CPU cycles
Total Error Accesses: 22
==============================
Simulation finished CPU 0 instructions: 1999999981 cycles: 5122536075 cumulative IPC: 0.3904 (Simulation time: 08 hr 08 min 20 sec)
Simulation complete CPU 0 instructions: 1999999981 cycles: 5122536075 cumulative IPC: 0.3904 (Simulation time: 08 hr 08 min 20 sec)

ChampSim completed all CPUs

=== Simulation ===
CPU 0 runs test_traces/602.gcc_s-1850B.champsimtrace.xz

Region of Interest Statistics

CPU 0 cumulative IPC: 0.3904 instructions: 1999999981 cycles: 5122536075
CPU 0 Branch Prediction Accuracy: 92.26% MPKI: 19.84 Average ROB Occupancy at Mispredict: 28.45
Branch type MPKI
BRANCH_DIRECT_JUMP: 0.0104
BRANCH_INDIRECT: 0
BRANCH_CONDITIONAL: 19.83
BRANCH_DIRECT_CALL: 8.5e-06
BRANCH_INDIRECT_CALL: 0
BRANCH_RETURN: 7e-06

cpu0->cpu0_STLB TOTAL        ACCESS:      15986 HIT:      12647 MISS:       3339 MSHR_MERGE:          0
cpu0->cpu0_STLB LOAD         ACCESS:      15986 HIT:      12647 MISS:       3339 MSHR_MERGE:          0
cpu0->cpu0_STLB RFO          ACCESS:          0 HIT:          0 MISS:          0 MSHR_MERGE:          0
cpu0->cpu0_STLB PREFETCH     ACCESS:          0 HIT:          0 MISS:          0 MSHR_MERGE:          0
cpu0->cpu0_STLB WRITE        ACCESS:          0 HIT:          0 MISS:          0 MSHR_MERGE:          0
cpu0->cpu0_STLB TRANSLATION  ACCESS:          0 HIT:          0 MISS:          0 MSHR_MERGE:          0
cpu0->cpu0_STLB PREFETCH REQUESTED:          0 ISSUED:          0 USEFUL:          0 USELESS:          0
cpu0->cpu0_STLB AVERAGE MISS LATENCY: 6449 cycles
cpu0->cpu0_L2C TOTAL        ACCESS:   48249156 HIT:   12598006 MISS:   35651150 MSHR_MERGE:          0
cpu0->cpu0_L2C LOAD         ACCESS:   48104279 HIT:   12470012 MISS:   35634267 MSHR_MERGE:          0
cpu0->cpu0_L2C RFO          ACCESS:      16945 HIT:        111 MISS:      16834 MSHR_MERGE:          0
cpu0->cpu0_L2C PREFETCH     ACCESS:          0 HIT:          0 MISS:          0 MSHR_MERGE:          0
cpu0->cpu0_L2C WRITE        ACCESS:     127932 HIT:     127883 MISS:         49 MSHR_MERGE:          0
cpu0->cpu0_L2C TRANSLATION  ACCESS:          0 HIT:          0 MISS:          0 MSHR_MERGE:          0
cpu0->cpu0_L2C PREFETCH REQUESTED:          0 ISSUED:          0 USEFUL:          0 USELESS:          0
cpu0->cpu0_L2C AVERAGE MISS LATENCY: 91.38 cycles
cpu0->cpu0_L1I TOTAL        ACCESS:      78268 HIT:      78208 MISS:         60 MSHR_MERGE:          3
cpu0->cpu0_L1I LOAD         ACCESS:      78268 HIT:      78208 MISS:         60 MSHR_MERGE:          3
cpu0->cpu0_L1I RFO          ACCESS:          0 HIT:          0 MISS:          0 MSHR_MERGE:          0
cpu0->cpu0_L1I PREFETCH     ACCESS:          0 HIT:          0 MISS:          0 MSHR_MERGE:          0
cpu0->cpu0_L1I WRITE        ACCESS:          0 HIT:          0 MISS:          0 MSHR_MERGE:          0
cpu0->cpu0_L1I TRANSLATION  ACCESS:          0 HIT:          0 MISS:          0 MSHR_MERGE:          0
cpu0->cpu0_L1I PREFETCH REQUESTED:          0 ISSUED:          0 USEFUL:          0 USELESS:          0
cpu0->cpu0_L1I AVERAGE MISS LATENCY: 112.8 cycles
cpu0->cpu0_L1D TOTAL        ACCESS:  605689841 HIT:  522317642 MISS:   83372199 MSHR_MERGE:   35251032
cpu0->cpu0_L1D LOAD         ACCESS:  433067286 HIT:  349712475 MISS:   83354811 MSHR_MERGE:   35250589
cpu0->cpu0_L1D RFO          ACCESS:          0 HIT:          0 MISS:          0 MSHR_MERGE:          0
cpu0->cpu0_L1D PREFETCH     ACCESS:          0 HIT:          0 MISS:          0 MSHR_MERGE:          0
cpu0->cpu0_L1D WRITE        ACCESS:  172622555 HIT:  172605167 MISS:      17388 MSHR_MERGE:        443
cpu0->cpu0_L1D TRANSLATION  ACCESS:          0 HIT:          0 MISS:          0 MSHR_MERGE:          0
cpu0->cpu0_L1D PREFETCH REQUESTED:          0 ISSUED:          0 USEFUL:          0 USELESS:          0
cpu0->cpu0_L1D AVERAGE MISS LATENCY: 76.44 cycles
cpu0->cpu0_ITLB TOTAL        ACCESS:      73592 HIT:      73589 MISS:          3 MSHR_MERGE:          1
cpu0->cpu0_ITLB LOAD         ACCESS:      73592 HIT:      73589 MISS:          3 MSHR_MERGE:          1
cpu0->cpu0_ITLB RFO          ACCESS:          0 HIT:          0 MISS:          0 MSHR_MERGE:          0
cpu0->cpu0_ITLB PREFETCH     ACCESS:          0 HIT:          0 MISS:          0 MSHR_MERGE:          0
cpu0->cpu0_ITLB WRITE        ACCESS:          0 HIT:          0 MISS:          0 MSHR_MERGE:          0
cpu0->cpu0_ITLB TRANSLATION  ACCESS:          0 HIT:          0 MISS:          0 MSHR_MERGE:          0
cpu0->cpu0_ITLB PREFETCH REQUESTED:          0 ISSUED:          0 USEFUL:          0 USELESS:          0
cpu0->cpu0_ITLB AVERAGE MISS LATENCY: 1.293e+04 cycles
cpu0->cpu0_DTLB TOTAL        ACCESS:  551964308 HIT:  551939610 MISS:      24698 MSHR_MERGE:       8714
cpu0->cpu0_DTLB LOAD         ACCESS:  551964308 HIT:  551939610 MISS:      24698 MSHR_MERGE:       8714
cpu0->cpu0_DTLB RFO          ACCESS:          0 HIT:          0 MISS:          0 MSHR_MERGE:          0
cpu0->cpu0_DTLB PREFETCH     ACCESS:          0 HIT:          0 MISS:          0 MSHR_MERGE:          0
cpu0->cpu0_DTLB WRITE        ACCESS:          0 HIT:          0 MISS:          0 MSHR_MERGE:          0
cpu0->cpu0_DTLB TRANSLATION  ACCESS:          0 HIT:          0 MISS:          0 MSHR_MERGE:          0
cpu0->cpu0_DTLB PREFETCH REQUESTED:          0 ISSUED:          0 USEFUL:          0 USELESS:          0
cpu0->cpu0_DTLB AVERAGE MISS LATENCY: 1351 cycles
cpu0->LLC TOTAL        ACCESS:   35701266 HIT:     113972 MISS:   35587294 MSHR_MERGE:          0
cpu0->LLC LOAD         ACCESS:   35634267 HIT:      63993 MISS:   35570274 MSHR_MERGE:          0
cpu0->LLC RFO          ACCESS:      16834 HIT:         95 MISS:      16739 MSHR_MERGE:          0
cpu0->LLC PREFETCH     ACCESS:          0 HIT:          0 MISS:          0 MSHR_MERGE:          0
cpu0->LLC WRITE        ACCESS:      50165 HIT:      49884 MISS:        281 MSHR_MERGE:          0
cpu0->LLC TRANSLATION  ACCESS:          0 HIT:          0 MISS:          0 MSHR_MERGE:          0
cpu0->LLC PREFETCH REQUESTED:          0 ISSUED:          0 USEFUL:          0 USELESS:          0
cpu0->LLC AVERAGE MISS LATENCY: 75.52 cycles

DRAM Statistics

Channel 0 RQ ROW_BUFFER_HIT:    3612580
  ROW_BUFFER_MISS:   14185038
  AVG DBUS CONGESTED CYCLE: 13.75
Channel 0 WQ ROW_BUFFER_HIT:       3384
  ROW_BUFFER_MISS:      21802
  FULL:          0
Channel 0 REFRESHES ISSUED:     426850

Channel 1 RQ ROW_BUFFER_HIT:    3613322
  ROW_BUFFER_MISS:   14182762
  AVG DBUS CONGESTED CYCLE: 13.69
Channel 1 WQ ROW_BUFFER_HIT:       3250
  ROW_BUFFER_MISS:      21647
  FULL:          0
Channel 1 REFRESHES ISSUED:     426850
