[VMEM] WARNING: physical memory size is smaller than virtual memory size.

*** ChampSim Multicore Out-of-Order Simulator ***
Warmup Instructions: 0
Simulation Instructions: 9223372036854775807
Number of CPUs: 1
Page size: 4096

Off-chip DRAM Size: 32 GiB Channels: 2 Width: 32-bit Data Rate: 4807 MT/s
[ERROR_PAGE_MANAGER] Error latency: 173500 
[ERROR_PAGE_MANAGER] Random seed: 54321 (fixed for preload reproducibility)
[ERROR_PAGE_MANAGER] Cycle-based error modeling enabled
[ERROR_PAGE_MANAGER] Errors per interval: 1
[ERROR_PAGE_MANAGER] Error cycle interval: 20000000 cycles

=== ERROR PAGE STATISTICS ===
Mode: CYCLE
Error Cycle Interval: 20000000 CPU cycles
Total Error Accesses: 0
==============================
Warmup finished CPU 0 instructions: 0 cycles: 1 cumulative IPC: 0 (Simulation time: 00 hr 00 min 00 sec)
Warmup complete CPU 0 instructions: 0 cycles: 1 cumulative IPC: 0 (Simulation time: 00 hr 00 min 00 sec)
Heartbeat CPU 0 instructions: 10000000 cycles: 9202935 heartbeat IPC: 1.087 cumulative IPC: 1.087 (Simulation time: 00 hr 01 min 04 sec)
[ERROR_CYCLE] Error added at CPU cycle 14255611, next at 18306612, pending count: 1
[DRAM_CYCLE_ERROR] Cycle-based error applied! address=0x5ba0dd200 additional_latency=173500 cycles
[ERROR_CYCLE] Error added at CPU cycle 18306612, next at 51392127, pending count: 1
[DRAM_CYCLE_ERROR] Cycle-based error applied! address=0x16d025980 additional_latency=173500 cycles
Heartbeat CPU 0 instructions: 20000000 cycles: 18356024 heartbeat IPC: 1.093 cumulative IPC: 1.09 (Simulation time: 00 hr 02 min 07 sec)
Heartbeat CPU 0 instructions: 30000000 cycles: 27540226 heartbeat IPC: 1.089 cumulative IPC: 1.089 (Simulation time: 00 hr 03 min 18 sec)
Heartbeat CPU 0 instructions: 40000001 cycles: 36702970 heartbeat IPC: 1.091 cumulative IPC: 1.09 (Simulation time: 00 hr 04 min 19 sec)
[ERROR_CYCLE] Error added at CPU cycle 51392127, next at 106935378, pending count: 1
[DRAM_CYCLE_ERROR] Cycle-based error applied! address=0x560d581c8 additional_latency=173500 cycles
Heartbeat CPU 0 instructions: 50000005 cycles: 52418650 heartbeat IPC: 0.6363 cumulative IPC: 0.9539 (Simulation time: 00 hr 06 min 26 sec)
Heartbeat CPU 0 instructions: 60000005 cycles: 71865400 heartbeat IPC: 0.5142 cumulative IPC: 0.8349 (Simulation time: 00 hr 08 min 56 sec)
Heartbeat CPU 0 instructions: 70000008 cycles: 80973325 heartbeat IPC: 1.098 cumulative IPC: 0.8645 (Simulation time: 00 hr 09 min 58 sec)
Heartbeat CPU 0 instructions: 80000011 cycles: 90046429 heartbeat IPC: 1.102 cumulative IPC: 0.8884 (Simulation time: 00 hr 10 min 54 sec)
Heartbeat CPU 0 instructions: 90000011 cycles: 99107609 heartbeat IPC: 1.104 cumulative IPC: 0.9081 (Simulation time: 00 hr 11 min 44 sec)
[ERROR_CYCLE] Error added at CPU cycle 106935379, next at 107536449, pending count: 1
[DRAM_CYCLE_ERROR] Cycle-based error applied! address=0x6ba3c8c0 additional_latency=173500 cycles
[ERROR_CYCLE] Error added at CPU cycle 107536449, next at 138277283, pending count: 1
[DRAM_CYCLE_ERROR] Cycle-based error applied! address=0x1a9f30040 additional_latency=173500 cycles
Heartbeat CPU 0 instructions: 100000014 cycles: 108171332 heartbeat IPC: 1.103 cumulative IPC: 0.9245 (Simulation time: 00 hr 12 min 46 sec)
Heartbeat CPU 0 instructions: 110000014 cycles: 117237167 heartbeat IPC: 1.103 cumulative IPC: 0.9383 (Simulation time: 00 hr 13 min 56 sec)
Heartbeat CPU 0 instructions: 120000018 cycles: 128670104 heartbeat IPC: 0.8747 cumulative IPC: 0.9326 (Simulation time: 00 hr 15 min 29 sec)
[ERROR_CYCLE] Error added at CPU cycle 138277283, next at 141856885, pending count: 1
[DRAM_CYCLE_ERROR] Cycle-based error applied! address=0x7b06453c8 additional_latency=173500 cycles
[ERROR_CYCLE] Error added at CPU cycle 141856885, next at 153234841, pending count: 1
[DRAM_CYCLE_ERROR] Cycle-based error applied! address=0x49b069600 additional_latency=173500 cycles
Heartbeat CPU 0 instructions: 130000019 cycles: 147335115 heartbeat IPC: 0.5358 cumulative IPC: 0.8823 (Simulation time: 00 hr 18 min 08 sec)
[ERROR_CYCLE] Error added at CPU cycle 153234841, next at 170313718, pending count: 1
[DRAM_CYCLE_ERROR] Cycle-based error applied! address=0x76df52740 additional_latency=173500 cycles
Heartbeat CPU 0 instructions: 140000019 cycles: 156408215 heartbeat IPC: 1.102 cumulative IPC: 0.8951 (Simulation time: 00 hr 19 min 17 sec)
Heartbeat CPU 0 instructions: 150000019 cycles: 165463013 heartbeat IPC: 1.104 cumulative IPC: 0.9065 (Simulation time: 00 hr 20 min 11 sec)
[ERROR_CYCLE] Error added at CPU cycle 170313718, next at 175206749, pending count: 1
[DRAM_CYCLE_ERROR] Cycle-based error applied! address=0x7a29d99c0 additional_latency=173500 cycles
Heartbeat CPU 0 instructions: 160000020 cycles: 174529405 heartbeat IPC: 1.103 cumulative IPC: 0.9168 (Simulation time: 00 hr 20 min 59 sec)
[ERROR_CYCLE] Error added at CPU cycle 175206749, next at 210725907, pending count: 1
[DRAM_CYCLE_ERROR] Cycle-based error applied! address=0x498e54080 additional_latency=173500 cycles
Heartbeat CPU 0 instructions: 170000020 cycles: 183583293 heartbeat IPC: 1.104 cumulative IPC: 0.926 (Simulation time: 00 hr 21 min 54 sec)
Heartbeat CPU 0 instructions: 180000023 cycles: 192656756 heartbeat IPC: 1.102 cumulative IPC: 0.9343 (Simulation time: 00 hr 23 min 03 sec)
Heartbeat CPU 0 instructions: 190000026 cycles: 201708349 heartbeat IPC: 1.105 cumulative IPC: 0.942 (Simulation time: 00 hr 24 min 12 sec)
[ERROR_CYCLE] Error added at CPU cycle 210725908, next at 217846273, pending count: 1
[DRAM_CYCLE_ERROR] Cycle-based error applied! address=0x7e131f5c0 additional_latency=173500 cycles
[ERROR_CYCLE] Error added at CPU cycle 217846274, next at 226797996, pending count: 1
[DRAM_CYCLE_ERROR] Cycle-based error applied! address=0x5ede58700 additional_latency=173500 cycles
Heartbeat CPU 0 instructions: 200000027 cycles: 219031488 heartbeat IPC: 0.5773 cumulative IPC: 0.9131 (Simulation time: 00 hr 26 min 37 sec)
[ERROR_CYCLE] Error added at CPU cycle 226797996, next at 267503668, pending count: 1
[DRAM_CYCLE_ERROR] Cycle-based error applied! address=0x72ef19980 additional_latency=173500 cycles
Heartbeat CPU 0 instructions: 210000029 cycles: 231765945 heartbeat IPC: 0.7853 cumulative IPC: 0.9061 (Simulation time: 00 hr 28 min 14 sec)
Heartbeat CPU 0 instructions: 220000033 cycles: 240822193 heartbeat IPC: 1.104 cumulative IPC: 0.9135 (Simulation time: 00 hr 29 min 24 sec)
Heartbeat CPU 0 instructions: 230000036 cycles: 249888020 heartbeat IPC: 1.103 cumulative IPC: 0.9204 (Simulation time: 00 hr 30 min 33 sec)
Heartbeat CPU 0 instructions: 240000039 cycles: 258945608 heartbeat IPC: 1.104 cumulative IPC: 0.9268 (Simulation time: 00 hr 31 min 43 sec)
[ERROR_CYCLE] Error added at CPU cycle 267503668, next at 267748717, pending count: 1
[DRAM_CYCLE_ERROR] Cycle-based error applied! address=0x50bc81500 additional_latency=173500 cycles
[ERROR_CYCLE] Error added at CPU cycle 267748717, next at 290247725, pending count: 1
[DRAM_CYCLE_ERROR] Cycle-based error applied! address=0x4ff699880 additional_latency=173500 cycles
Heartbeat CPU 0 instructions: 250000039 cycles: 268013680 heartbeat IPC: 1.103 cumulative IPC: 0.9328 (Simulation time: 00 hr 32 min 52 sec)
Heartbeat CPU 0 instructions: 260000039 cycles: 277070787 heartbeat IPC: 1.104 cumulative IPC: 0.9384 (Simulation time: 00 hr 34 min 01 sec)
[ERROR_CYCLE] Error added at CPU cycle 290247726, next at 303374226, pending count: 1
[DRAM_CYCLE_ERROR] Cycle-based error applied! address=0x23269940 additional_latency=173500 cycles
Heartbeat CPU 0 instructions: 270000040 cycles: 290875528 heartbeat IPC: 0.7244 cumulative IPC: 0.9282 (Simulation time: 00 hr 35 min 57 sec)
[ERROR_CYCLE] Error added at CPU cycle 303374226, next at 379052965, pending count: 1
[DRAM_CYCLE_ERROR] Cycle-based error applied! address=0x34f7f57c0 additional_latency=173500 cycles
Heartbeat CPU 0 instructions: 280000044 cycles: 307080044 heartbeat IPC: 0.6171 cumulative IPC: 0.9118 (Simulation time: 00 hr 38 min 07 sec)
Heartbeat CPU 0 instructions: 290000047 cycles: 316142473 heartbeat IPC: 1.103 cumulative IPC: 0.9173 (Simulation time: 00 hr 39 min 16 sec)
Heartbeat CPU 0 instructions: 300000048 cycles: 325200664 heartbeat IPC: 1.104 cumulative IPC: 0.9225 (Simulation time: 00 hr 40 min 20 sec)
Heartbeat CPU 0 instructions: 310000050 cycles: 334264544 heartbeat IPC: 1.103 cumulative IPC: 0.9274 (Simulation time: 00 hr 41 min 12 sec)
Heartbeat CPU 0 instructions: 320000054 cycles: 343323290 heartbeat IPC: 1.104 cumulative IPC: 0.9321 (Simulation time: 00 hr 42 min 14 sec)
Heartbeat CPU 0 instructions: 330000056 cycles: 352391081 heartbeat IPC: 1.103 cumulative IPC: 0.9365 (Simulation time: 00 hr 43 min 10 sec)
Heartbeat CPU 0 instructions: 340000059 cycles: 362760402 heartbeat IPC: 0.9644 cumulative IPC: 0.9373 (Simulation time: 00 hr 44 min 10 sec)
[ERROR_CYCLE] Error added at CPU cycle 379052966, next at 383791854, pending count: 1
[DRAM_CYCLE_ERROR] Cycle-based error applied! address=0x3d4e8db80 additional_latency=173500 cycles
Heartbeat CPU 0 instructions: 350000059 cycles: 381508878 heartbeat IPC: 0.5334 cumulative IPC: 0.9174 (Simulation time: 00 hr 46 min 21 sec)
[ERROR_CYCLE] Error added at CPU cycle 383791855, next at 388594052, pending count: 1
[DRAM_CYCLE_ERROR] Cycle-based error applied! address=0x301a4e500 additional_latency=173500 cycles
[ERROR_CYCLE] Error added at CPU cycle 388594053, next at 446238065, pending count: 1
[DRAM_CYCLE_ERROR] Cycle-based error applied! address=0x44fc92c80 additional_latency=173500 cycles
Heartbeat CPU 0 instructions: 360000060 cycles: 391879421 heartbeat IPC: 0.9643 cumulative IPC: 0.9187 (Simulation time: 00 hr 47 min 16 sec)
Heartbeat CPU 0 instructions: 370000062 cycles: 402241507 heartbeat IPC: 0.9651 cumulative IPC: 0.9198 (Simulation time: 00 hr 48 min 13 sec)
Heartbeat CPU 0 instructions: 380000062 cycles: 412604025 heartbeat IPC: 0.965 cumulative IPC: 0.921 (Simulation time: 00 hr 49 min 20 sec)
Heartbeat CPU 0 instructions: 390000062 cycles: 425215913 heartbeat IPC: 0.7929 cumulative IPC: 0.9172 (Simulation time: 00 hr 50 min 59 sec)
Heartbeat CPU 0 instructions: 400000062 cycles: 439097670 heartbeat IPC: 0.7204 cumulative IPC: 0.911 (Simulation time: 00 hr 53 min 01 sec)
[ERROR_CYCLE] Error added at CPU cycle 446238066, next at 454133415, pending count: 1
[DRAM_CYCLE_ERROR] Cycle-based error applied! address=0xd21914c0 additional_latency=173500 cycles
Heartbeat CPU 0 instructions: 410000062 cycles: 446394491 heartbeat IPC: 1.37 cumulative IPC: 0.9185 (Simulation time: 00 hr 54 min 19 sec)
[ERROR_CYCLE] Error added at CPU cycle 454133415, next at 539692982, pending count: 1
[DRAM_CYCLE_ERROR] Cycle-based error applied! address=0x31d2fde40 additional_latency=173500 cycles
Heartbeat CPU 0 instructions: 420000064 cycles: 454138891 heartbeat IPC: 1.291 cumulative IPC: 0.9248 (Simulation time: 00 hr 55 min 39 sec)
Heartbeat CPU 0 instructions: 430000067 cycles: 463527223 heartbeat IPC: 1.065 cumulative IPC: 0.9277 (Simulation time: 00 hr 57 min 12 sec)
Heartbeat CPU 0 instructions: 440000067 cycles: 473262003 heartbeat IPC: 1.027 cumulative IPC: 0.9297 (Simulation time: 00 hr 58 min 48 sec)
Heartbeat CPU 0 instructions: 450000067 cycles: 482606790 heartbeat IPC: 1.07 cumulative IPC: 0.9324 (Simulation time: 01 hr 00 min 21 sec)
Heartbeat CPU 0 instructions: 460000069 cycles: 491948183 heartbeat IPC: 1.071 cumulative IPC: 0.9351 (Simulation time: 01 hr 01 min 55 sec)
Heartbeat CPU 0 instructions: 470000073 cycles: 501350415 heartbeat IPC: 1.064 cumulative IPC: 0.9375 (Simulation time: 01 hr 03 min 28 sec)
Heartbeat CPU 0 instructions: 480000074 cycles: 510790956 heartbeat IPC: 1.059 cumulative IPC: 0.9397 (Simulation time: 01 hr 04 min 55 sec)
Heartbeat CPU 0 instructions: 490000074 cycles: 520353752 heartbeat IPC: 1.046 cumulative IPC: 0.9417 (Simulation time: 01 hr 06 min 31 sec)
Heartbeat CPU 0 instructions: 500000076 cycles: 529657681 heartbeat IPC: 1.075 cumulative IPC: 0.944 (Simulation time: 01 hr 08 min 06 sec)
Heartbeat CPU 0 instructions: 510000079 cycles: 539070292 heartbeat IPC: 1.062 cumulative IPC: 0.9461 (Simulation time: 01 hr 09 min 41 sec)
[ERROR_CYCLE] Error added at CPU cycle 539692982, next at 551194342, pending count: 1
[DRAM_CYCLE_ERROR] Cycle-based error applied! address=0x7c7a06300 additional_latency=173500 cycles
Heartbeat CPU 0 instructions: 520000083 cycles: 548488983 heartbeat IPC: 1.062 cumulative IPC: 0.9481 (Simulation time: 01 hr 11 min 05 sec)
[ERROR_CYCLE] Error added at CPU cycle 551194342, next at 618463271, pending count: 1
[DRAM_CYCLE_ERROR] Cycle-based error applied! address=0x703be7c00 additional_latency=173500 cycles
Heartbeat CPU 0 instructions: 530000087 cycles: 558112981 heartbeat IPC: 1.039 cumulative IPC: 0.9496 (Simulation time: 01 hr 12 min 38 sec)
Heartbeat CPU 0 instructions: 540000087 cycles: 567562140 heartbeat IPC: 1.058 cumulative IPC: 0.9514 (Simulation time: 01 hr 14 min 07 sec)
Heartbeat CPU 0 instructions: 550000089 cycles: 576955384 heartbeat IPC: 1.065 cumulative IPC: 0.9533 (Simulation time: 01 hr 15 min 21 sec)
Heartbeat CPU 0 instructions: 560000093 cycles: 586332671 heartbeat IPC: 1.066 cumulative IPC: 0.9551 (Simulation time: 01 hr 16 min 33 sec)
Heartbeat CPU 0 instructions: 570000097 cycles: 595730016 heartbeat IPC: 1.064 cumulative IPC: 0.9568 (Simulation time: 01 hr 17 min 50 sec)
Heartbeat CPU 0 instructions: 580000100 cycles: 605437828 heartbeat IPC: 1.03 cumulative IPC: 0.958 (Simulation time: 01 hr 19 min 06 sec)
Heartbeat CPU 0 instructions: 590000101 cycles: 614726624 heartbeat IPC: 1.077 cumulative IPC: 0.9598 (Simulation time: 01 hr 20 min 09 sec)
[ERROR_CYCLE] Error added at CPU cycle 618463271, next at 624429521, pending count: 1
[DRAM_CYCLE_ERROR] Cycle-based error applied! address=0x1f61ab7f8 additional_latency=173500 cycles
Heartbeat CPU 0 instructions: 600000102 cycles: 624091413 heartbeat IPC: 1.068 cumulative IPC: 0.9614 (Simulation time: 01 hr 21 min 28 sec)
[ERROR_CYCLE] Error added at CPU cycle 624429521, next at 652969032, pending count: 1
[DRAM_CYCLE_ERROR] Cycle-based error applied! address=0x47ac6b500 additional_latency=173500 cycles
Heartbeat CPU 0 instructions: 610000102 cycles: 631663271 heartbeat IPC: 1.321 cumulative IPC: 0.9657 (Simulation time: 01 hr 22 min 42 sec)
Heartbeat CPU 0 instructions: 620000102 cycles: 638947258 heartbeat IPC: 1.373 cumulative IPC: 0.9703 (Simulation time: 01 hr 23 min 47 sec)
Heartbeat CPU 0 instructions: 630000104 cycles: 646241541 heartbeat IPC: 1.371 cumulative IPC: 0.9749 (Simulation time: 01 hr 24 min 54 sec)
[ERROR_CYCLE] Error added at CPU cycle 652969033, next at 657238516, pending count: 1
[DRAM_CYCLE_ERROR] Cycle-based error applied! address=0x4738f28c0 additional_latency=173500 cycles
Heartbeat CPU 0 instructions: 640000104 cycles: 653529127 heartbeat IPC: 1.372 cumulative IPC: 0.9793 (Simulation time: 01 hr 26 min 12 sec)
[ERROR_CYCLE] Error added at CPU cycle 657238516, next at 663890677, pending count: 1
[DRAM_CYCLE_ERROR] Cycle-based error applied! address=0x8248a700 additional_latency=173500 cycles
Heartbeat CPU 0 instructions: 650000108 cycles: 660614605 heartbeat IPC: 1.411 cumulative IPC: 0.9839 (Simulation time: 01 hr 27 min 28 sec)
[ERROR_CYCLE] Error added at CPU cycle 663890677, next at 693244034, pending count: 1
[DRAM_CYCLE_ERROR] Cycle-based error applied! address=0x5f3616800 additional_latency=173500 cycles
Heartbeat CPU 0 instructions: 660000109 cycles: 667646514 heartbeat IPC: 1.422 cumulative IPC: 0.9885 (Simulation time: 01 hr 28 min 44 sec)
Heartbeat CPU 0 instructions: 670000109 cycles: 674705577 heartbeat IPC: 1.417 cumulative IPC: 0.993 (Simulation time: 01 hr 30 min 00 sec)
Heartbeat CPU 0 instructions: 680000109 cycles: 682724361 heartbeat IPC: 1.247 cumulative IPC: 0.996 (Simulation time: 01 hr 31 min 24 sec)
Heartbeat CPU 0 instructions: 690000110 cycles: 690890282 heartbeat IPC: 1.225 cumulative IPC: 0.9987 (Simulation time: 01 hr 32 min 49 sec)
[ERROR_CYCLE] Error added at CPU cycle 693244035, next at 693408343, pending count: 1
[DRAM_CYCLE_ERROR] Cycle-based error applied! address=0x199737fc0 additional_latency=173500 cycles
[ERROR_CYCLE] Error added at CPU cycle 693408343, next at 702111115, pending count: 1
[DRAM_CYCLE_ERROR] Cycle-based error applied! address=0xd17f1e80 additional_latency=173500 cycles
Heartbeat CPU 0 instructions: 700000110 cycles: 697960201 heartbeat IPC: 1.414 cumulative IPC: 1.003 (Simulation time: 01 hr 34 min 06 sec)
[ERROR_CYCLE] Error added at CPU cycle 702111115, next at 707431038, pending count: 1
[DRAM_CYCLE_ERROR] Cycle-based error applied! address=0x49fff12c0 additional_latency=173500 cycles
Heartbeat CPU 0 instructions: 710000112 cycles: 705673306 heartbeat IPC: 1.296 cumulative IPC: 1.006 (Simulation time: 01 hr 35 min 26 sec)
[ERROR_CYCLE] Error added at CPU cycle 707431038, next at 717157141, pending count: 1
[DRAM_CYCLE_ERROR] Cycle-based error applied! address=0x510986b00 additional_latency=173500 cycles
Heartbeat CPU 0 instructions: 720000115 cycles: 715374897 heartbeat IPC: 1.031 cumulative IPC: 1.006 (Simulation time: 01 hr 37 min 01 sec)
[ERROR_CYCLE] Error added at CPU cycle 717157141, next at 719468166, pending count: 1
[DRAM_CYCLE_ERROR] Cycle-based error applied! address=0x277ae53c0 additional_latency=173500 cycles
[ERROR_CYCLE] Error added at CPU cycle 719468166, next at 729931125, pending count: 1
[DRAM_CYCLE_ERROR] Cycle-based error applied! address=0x54c5d36c0 additional_latency=173500 cycles
Heartbeat CPU 0 instructions: 730000115 cycles: 724748998 heartbeat IPC: 1.067 cumulative IPC: 1.007 (Simulation time: 01 hr 38 min 36 sec)
[ERROR_CYCLE] Error added at CPU cycle 729931125, next at 740327757, pending count: 1
[DRAM_CYCLE_ERROR] Cycle-based error applied! address=0x76f6fc100 additional_latency=173500 cycles
Heartbeat CPU 0 instructions: 740000118 cycles: 734082333 heartbeat IPC: 1.071 cumulative IPC: 1.008 (Simulation time: 01 hr 40 min 10 sec)
[ERROR_CYCLE] Error added at CPU cycle 740327757, next at 769723378, pending count: 1
[DRAM_CYCLE_ERROR] Cycle-based error applied! address=0x7844f3c00 additional_latency=173500 cycles
Heartbeat CPU 0 instructions: 750000118 cycles: 743418398 heartbeat IPC: 1.071 cumulative IPC: 1.009 (Simulation time: 01 hr 41 min 46 sec)
Heartbeat CPU 0 instructions: 760000118 cycles: 752839048 heartbeat IPC: 1.061 cumulative IPC: 1.01 (Simulation time: 01 hr 43 min 21 sec)
Heartbeat CPU 0 instructions: 770000120 cycles: 762521962 heartbeat IPC: 1.033 cumulative IPC: 1.01 (Simulation time: 01 hr 44 min 58 sec)
[ERROR_CYCLE] Error added at CPU cycle 769723378, next at 806610107, pending count: 1
[DRAM_CYCLE_ERROR] Cycle-based error applied! address=0x67d9bb140 additional_latency=173500 cycles
Heartbeat CPU 0 instructions: 780000123 cycles: 771826146 heartbeat IPC: 1.075 cumulative IPC: 1.011 (Simulation time: 01 hr 46 min 33 sec)
Heartbeat CPU 0 instructions: 790000123 cycles: 781184888 heartbeat IPC: 1.069 cumulative IPC: 1.011 (Simulation time: 01 hr 48 min 09 sec)
Heartbeat CPU 0 instructions: 800000125 cycles: 790582578 heartbeat IPC: 1.064 cumulative IPC: 1.012 (Simulation time: 01 hr 49 min 38 sec)
Heartbeat CPU 0 instructions: 810000126 cycles: 800099131 heartbeat IPC: 1.051 cumulative IPC: 1.012 (Simulation time: 01 hr 51 min 09 sec)
[ERROR_CYCLE] Error added at CPU cycle 806610107, next at 816598203, pending count: 1
[DRAM_CYCLE_ERROR] Cycle-based error applied! address=0x7782ce4c0 additional_latency=173500 cycles
Heartbeat CPU 0 instructions: 820000126 cycles: 809563858 heartbeat IPC: 1.057 cumulative IPC: 1.013 (Simulation time: 01 hr 52 min 41 sec)
[ERROR_CYCLE] Error added at CPU cycle 816598204, next at 829157728, pending count: 1
[DRAM_CYCLE_ERROR] Cycle-based error applied! address=0xe1911a80 additional_latency=173500 cycles
Heartbeat CPU 0 instructions: 830000126 cycles: 818905774 heartbeat IPC: 1.07 cumulative IPC: 1.014 (Simulation time: 01 hr 54 min 12 sec)
Heartbeat CPU 0 instructions: 840000127 cycles: 828305691 heartbeat IPC: 1.064 cumulative IPC: 1.014 (Simulation time: 01 hr 55 min 44 sec)
[ERROR_CYCLE] Error added at CPU cycle 829157728, next at 831354542, pending count: 1
[DRAM_CYCLE_ERROR] Cycle-based error applied! address=0x372921ac0 additional_latency=173500 cycles
[ERROR_CYCLE] Error added at CPU cycle 831354542, next at 835587951, pending count: 1
[DRAM_CYCLE_ERROR] Cycle-based error applied! address=0xd256c200 additional_latency=173500 cycles
[ERROR_CYCLE] Error added at CPU cycle 835587951, next at 857924333, pending count: 1
[DRAM_CYCLE_ERROR] Cycle-based error applied! address=0x4feee0ac0 additional_latency=173500 cycles
Heartbeat CPU 0 instructions: 850000127 cycles: 837625130 heartbeat IPC: 1.073 cumulative IPC: 1.015 (Simulation time: 01 hr 57 min 17 sec)
Heartbeat CPU 0 instructions: 860000130 cycles: 847410889 heartbeat IPC: 1.022 cumulative IPC: 1.015 (Simulation time: 01 hr 58 min 53 sec)
Heartbeat CPU 0 instructions: 870000133 cycles: 856682713 heartbeat IPC: 1.079 cumulative IPC: 1.016 (Simulation time: 02 hr 00 min 26 sec)
[ERROR_CYCLE] Error added at CPU cycle 857924334, next at 870797452, pending count: 1
[DRAM_CYCLE_ERROR] Cycle-based error applied! address=0x510ac0e00 additional_latency=173500 cycles
Heartbeat CPU 0 instructions: 880000137 cycles: 866044227 heartbeat IPC: 1.068 cumulative IPC: 1.016 (Simulation time: 02 hr 01 min 49 sec)
[ERROR_CYCLE] Error added at CPU cycle 870797452, next at 903141115, pending count: 1
[DRAM_CYCLE_ERROR] Cycle-based error applied! address=0x2123e8d00 additional_latency=173500 cycles
Heartbeat CPU 0 instructions: 890000138 cycles: 875466944 heartbeat IPC: 1.061 cumulative IPC: 1.017 (Simulation time: 02 hr 02 min 57 sec)
Heartbeat CPU 0 instructions: 900000138 cycles: 885012616 heartbeat IPC: 1.048 cumulative IPC: 1.017 (Simulation time: 02 hr 04 min 27 sec)
Heartbeat CPU 0 instructions: 910000139 cycles: 894482464 heartbeat IPC: 1.056 cumulative IPC: 1.017 (Simulation time: 02 hr 06 min 02 sec)
[ERROR_CYCLE] Error added at CPU cycle 903141115, next at 908832379, pending count: 1
[DRAM_CYCLE_ERROR] Cycle-based error applied! address=0x344879580 additional_latency=173500 cycles
Heartbeat CPU 0 instructions: 920000139 cycles: 903822720 heartbeat IPC: 1.071 cumulative IPC: 1.018 (Simulation time: 02 hr 07 min 17 sec)
[ERROR_CYCLE] Error added at CPU cycle 908832379, next at 935886573, pending count: 1
[DRAM_CYCLE_ERROR] Cycle-based error applied! address=0x3896fae40 additional_latency=173500 cycles
Heartbeat CPU 0 instructions: 930000141 cycles: 913212257 heartbeat IPC: 1.065 cumulative IPC: 1.018 (Simulation time: 02 hr 08 min 24 sec)
Heartbeat CPU 0 instructions: 940000141 cycles: 922520232 heartbeat IPC: 1.074 cumulative IPC: 1.019 (Simulation time: 02 hr 09 min 52 sec)
Heartbeat CPU 0 instructions: 950000141 cycles: 932250022 heartbeat IPC: 1.028 cumulative IPC: 1.019 (Simulation time: 02 hr 11 min 13 sec)
[ERROR_CYCLE] Error added at CPU cycle 935886573, next at 958300697, pending count: 1
[DRAM_CYCLE_ERROR] Cycle-based error applied! address=0x71e2c98c0 additional_latency=173500 cycles
Heartbeat CPU 0 instructions: 960000143 cycles: 941564977 heartbeat IPC: 1.074 cumulative IPC: 1.02 (Simulation time: 02 hr 12 min 48 sec)
Heartbeat CPU 0 instructions: 970000147 cycles: 950954659 heartbeat IPC: 1.065 cumulative IPC: 1.02 (Simulation time: 02 hr 14 min 09 sec)
[ERROR_CYCLE] Error added at CPU cycle 958300698, next at 979637607, pending count: 1
[DRAM_CYCLE_ERROR] Cycle-based error applied! address=0x139c2a9f8 additional_latency=173500 cycles
Heartbeat CPU 0 instructions: 980000148 cycles: 960440695 heartbeat IPC: 1.054 cumulative IPC: 1.02 (Simulation time: 02 hr 15 min 27 sec)
Heartbeat CPU 0 instructions: 990000149 cycles: 969873323 heartbeat IPC: 1.06 cumulative IPC: 1.021 (Simulation time: 02 hr 16 min 34 sec)
Heartbeat CPU 0 instructions: 1000000153 cycles: 979451342 heartbeat IPC: 1.044 cumulative IPC: 1.021 (Simulation time: 02 hr 18 min 06 sec)
[ERROR_CYCLE] Error added at CPU cycle 979637607, next at 984398776, pending count: 1
[DRAM_CYCLE_ERROR] Cycle-based error applied! address=0x2ee9a2180 additional_latency=173500 cycles
[ERROR_CYCLE] Error added at CPU cycle 984398776, next at 1002210124, pending count: 1
[DRAM_CYCLE_ERROR] Cycle-based error applied! address=0x28f661080 additional_latency=173500 cycles
Heartbeat CPU 0 instructions: 1010000154 cycles: 988787431 heartbeat IPC: 1.071 cumulative IPC: 1.021 (Simulation time: 02 hr 19 min 25 sec)
Heartbeat CPU 0 instructions: 1020000155 cycles: 998139527 heartbeat IPC: 1.069 cumulative IPC: 1.022 (Simulation time: 02 hr 20 min 48 sec)
[ERROR_CYCLE] Error added at CPU cycle 1002210124, next at 1032827874, pending count: 1
[DRAM_CYCLE_ERROR] Cycle-based error applied! address=0x1ba4677c0 additional_latency=173500 cycles
Heartbeat CPU 0 instructions: 1030000158 cycles: 1007513706 heartbeat IPC: 1.067 cumulative IPC: 1.022 (Simulation time: 02 hr 22 min 18 sec)
Heartbeat CPU 0 instructions: 1040000158 cycles: 1017181550 heartbeat IPC: 1.034 cumulative IPC: 1.022 (Simulation time: 02 hr 23 min 57 sec)
Heartbeat CPU 0 instructions: 1050000158 cycles: 1026587872 heartbeat IPC: 1.063 cumulative IPC: 1.023 (Simulation time: 02 hr 25 min 32 sec)
[ERROR_CYCLE] Error added at CPU cycle 1032827875, next at 1046516285, pending count: 1
[DRAM_CYCLE_ERROR] Cycle-based error applied! address=0x27d278480 additional_latency=173500 cycles
Heartbeat CPU 0 instructions: 1060000162 cycles: 1035977367 heartbeat IPC: 1.065 cumulative IPC: 1.023 (Simulation time: 02 hr 26 min 59 sec)
Heartbeat CPU 0 instructions: 1070000166 cycles: 1045338858 heartbeat IPC: 1.068 cumulative IPC: 1.024 (Simulation time: 02 hr 28 min 31 sec)
[ERROR_CYCLE] Error added at CPU cycle 1046516285, next at 1048641051, pending count: 1
[DRAM_CYCLE_ERROR] Cycle-based error applied! address=0x2307fa940 additional_latency=173500 cycles
[ERROR_CYCLE] Error added at CPU cycle 1048641052, next at 1090842597, pending count: 1
[DRAM_CYCLE_ERROR] Cycle-based error applied! address=0x14df18e80 additional_latency=173500 cycles
Heartbeat CPU 0 instructions: 1080000166 cycles: 1054801660 heartbeat IPC: 1.057 cumulative IPC: 1.024 (Simulation time: 02 hr 30 min 05 sec)
Heartbeat CPU 0 instructions: 1090000168 cycles: 1064425728 heartbeat IPC: 1.039 cumulative IPC: 1.024 (Simulation time: 02 hr 31 min 40 sec)
Heartbeat CPU 0 instructions: 1100000171 cycles: 1073735779 heartbeat IPC: 1.074 cumulative IPC: 1.024 (Simulation time: 02 hr 33 min 12 sec)
Heartbeat CPU 0 instructions: 1110000175 cycles: 1083151511 heartbeat IPC: 1.062 cumulative IPC: 1.025 (Simulation time: 02 hr 34 min 45 sec)
[ERROR_CYCLE] Error added at CPU cycle 1090842598, next at 1110023097, pending count: 1
[DRAM_CYCLE_ERROR] Cycle-based error applied! address=0x285a2aa80 additional_latency=173500 cycles
Heartbeat CPU 0 instructions: 1120000175 cycles: 1092602892 heartbeat IPC: 1.058 cumulative IPC: 1.025 (Simulation time: 02 hr 36 min 20 sec)
Heartbeat CPU 0 instructions: 1130000175 cycles: 1102143280 heartbeat IPC: 1.048 cumulative IPC: 1.025 (Simulation time: 02 hr 37 min 45 sec)
[ERROR_CYCLE] Error added at CPU cycle 1110023098, next at 1133414207, pending count: 1
[DRAM_CYCLE_ERROR] Cycle-based error applied! address=0x7889f1b80 additional_latency=173500 cycles
Heartbeat CPU 0 instructions: 1140000178 cycles: 1111638947 heartbeat IPC: 1.053 cumulative IPC: 1.026 (Simulation time: 02 hr 39 min 02 sec)
Heartbeat CPU 0 instructions: 1150000182 cycles: 1121065165 heartbeat IPC: 1.061 cumulative IPC: 1.026 (Simulation time: 02 hr 40 min 30 sec)
Heartbeat CPU 0 instructions: 1160000183 cycles: 1130412053 heartbeat IPC: 1.07 cumulative IPC: 1.026 (Simulation time: 02 hr 41 min 52 sec)
[ERROR_CYCLE] Error added at CPU cycle 1133414207, next at 1204668974, pending count: 1
[DRAM_CYCLE_ERROR] Cycle-based error applied! address=0x3bd4301c0 additional_latency=173500 cycles
Heartbeat CPU 0 instructions: 1170000184 cycles: 1139854393 heartbeat IPC: 1.059 cumulative IPC: 1.026 (Simulation time: 02 hr 43 min 12 sec)
Heartbeat CPU 0 instructions: 1180000184 cycles: 1149601628 heartbeat IPC: 1.026 cumulative IPC: 1.026 (Simulation time: 02 hr 44 min 30 sec)
Heartbeat CPU 0 instructions: 1190000184 cycles: 1158917457 heartbeat IPC: 1.073 cumulative IPC: 1.027 (Simulation time: 02 hr 45 min 57 sec)
Heartbeat CPU 0 instructions: 1200000188 cycles: 1168305338 heartbeat IPC: 1.065 cumulative IPC: 1.027 (Simulation time: 02 hr 47 min 24 sec)
Heartbeat CPU 0 instructions: 1210000189 cycles: 1177770489 heartbeat IPC: 1.057 cumulative IPC: 1.027 (Simulation time: 02 hr 48 min 57 sec)
Heartbeat CPU 0 instructions: 1220000190 cycles: 1187335226 heartbeat IPC: 1.046 cumulative IPC: 1.028 (Simulation time: 02 hr 50 min 29 sec)
Heartbeat CPU 0 instructions: 1230000193 cycles: 1196807954 heartbeat IPC: 1.056 cumulative IPC: 1.028 (Simulation time: 02 hr 51 min 49 sec)
[ERROR_CYCLE] Error added at CPU cycle 1204668974, next at 1215603388, pending count: 1
[DRAM_CYCLE_ERROR] Cycle-based error applied! address=0xdb1e4940 additional_latency=173500 cycles
Heartbeat CPU 0 instructions: 1240000193 cycles: 1206193281 heartbeat IPC: 1.065 cumulative IPC: 1.028 (Simulation time: 02 hr 53 min 17 sec)
Heartbeat CPU 0 instructions: 1250000196 cycles: 1215565369 heartbeat IPC: 1.067 cumulative IPC: 1.028 (Simulation time: 02 hr 54 min 54 sec)
[ERROR_CYCLE] Error added at CPU cycle 1215603389, next at 1217087080, pending count: 1
[DRAM_CYCLE_ERROR] Cycle-based error applied! address=0x761fdee00 additional_latency=173500 cycles
[ERROR_CYCLE] Error added at CPU cycle 1217087081, next at 1221310176, pending count: 1
[DRAM_CYCLE_ERROR] Cycle-based error applied! address=0x4ba04c200 additional_latency=173500 cycles
[ERROR_CYCLE] Error added at CPU cycle 1221310177, next at 1226438693, pending count: 1
[DRAM_CYCLE_ERROR] Cycle-based error applied! address=0x432529780 additional_latency=173500 cycles
Heartbeat CPU 0 instructions: 1260000199 cycles: 1224979651 heartbeat IPC: 1.062 cumulative IPC: 1.029 (Simulation time: 02 hr 56 min 30 sec)
[ERROR_CYCLE] Error added at CPU cycle 1226438693, next at 1227461842, pending count: 1
[DRAM_CYCLE_ERROR] Cycle-based error applied! address=0x240f0cc88 additional_latency=173500 cycles
[ERROR_CYCLE] Error added at CPU cycle 1227461842, next at 1231373065, pending count: 1
[DRAM_CYCLE_ERROR] Cycle-based error applied! address=0x642050dc0 additional_latency=173500 cycles
[ERROR_CYCLE] Error added at CPU cycle 1231373065, next at 1247660783, pending count: 1
[DRAM_CYCLE_ERROR] Cycle-based error applied! address=0x106c64080 additional_latency=173500 cycles
Heartbeat CPU 0 instructions: 1270000199 cycles: 1234702080 heartbeat IPC: 1.029 cumulative IPC: 1.029 (Simulation time: 02 hr 58 min 07 sec)
Heartbeat CPU 0 instructions: 1280000199 cycles: 1243954163 heartbeat IPC: 1.081 cumulative IPC: 1.029 (Simulation time: 02 hr 59 min 40 sec)
[ERROR_CYCLE] Error added at CPU cycle 1247660783, next at 1311009174, pending count: 1
[DRAM_CYCLE_ERROR] Cycle-based error applied! address=0x51b66b2c0 additional_latency=173500 cycles
Heartbeat CPU 0 instructions: 1290000203 cycles: 1253357919 heartbeat IPC: 1.063 cumulative IPC: 1.029 (Simulation time: 03 hr 01 min 15 sec)
Heartbeat CPU 0 instructions: 1300000205 cycles: 1262776597 heartbeat IPC: 1.062 cumulative IPC: 1.029 (Simulation time: 03 hr 02 min 49 sec)
Heartbeat CPU 0 instructions: 1310000207 cycles: 1272242204 heartbeat IPC: 1.056 cumulative IPC: 1.03 (Simulation time: 03 hr 04 min 24 sec)
Heartbeat CPU 0 instructions: 1320000211 cycles: 1281781085 heartbeat IPC: 1.048 cumulative IPC: 1.03 (Simulation time: 03 hr 06 min 00 sec)
Heartbeat CPU 0 instructions: 1330000212 cycles: 1291112644 heartbeat IPC: 1.072 cumulative IPC: 1.03 (Simulation time: 03 hr 07 min 32 sec)
Heartbeat CPU 0 instructions: 1340000212 cycles: 1300481659 heartbeat IPC: 1.067 cumulative IPC: 1.03 (Simulation time: 03 hr 09 min 00 sec)
Heartbeat CPU 0 instructions: 1350000216 cycles: 1309865846 heartbeat IPC: 1.066 cumulative IPC: 1.031 (Simulation time: 03 hr 10 min 36 sec)
[ERROR_CYCLE] Error added at CPU cycle 1311009175, next at 1370592850, pending count: 1
[DRAM_CYCLE_ERROR] Cycle-based error applied! address=0x36d107380 additional_latency=173500 cycles
Heartbeat CPU 0 instructions: 1360000216 cycles: 1319530724 heartbeat IPC: 1.035 cumulative IPC: 1.031 (Simulation time: 03 hr 11 min 48 sec)
Heartbeat CPU 0 instructions: 1370000217 cycles: 1328865223 heartbeat IPC: 1.071 cumulative IPC: 1.031 (Simulation time: 03 hr 13 min 09 sec)
Heartbeat CPU 0 instructions: 1380000221 cycles: 1338232514 heartbeat IPC: 1.068 cumulative IPC: 1.031 (Simulation time: 03 hr 14 min 45 sec)
Heartbeat CPU 0 instructions: 1390000225 cycles: 1347532540 heartbeat IPC: 1.075 cumulative IPC: 1.032 (Simulation time: 03 hr 16 min 19 sec)
Heartbeat CPU 0 instructions: 1400000227 cycles: 1357000857 heartbeat IPC: 1.056 cumulative IPC: 1.032 (Simulation time: 03 hr 17 min 56 sec)
Heartbeat CPU 0 instructions: 1410000228 cycles: 1366623051 heartbeat IPC: 1.039 cumulative IPC: 1.032 (Simulation time: 03 hr 19 min 34 sec)
[ERROR_CYCLE] Error added at CPU cycle 1370592850, next at 1384134719, pending count: 1
[DRAM_CYCLE_ERROR] Cycle-based error applied! address=0x41c6e2940 additional_latency=173500 cycles
Heartbeat CPU 0 instructions: 1420000228 cycles: 1375923748 heartbeat IPC: 1.075 cumulative IPC: 1.032 (Simulation time: 03 hr 20 min 57 sec)
[ERROR_CYCLE] Error added at CPU cycle 1384134720, next at 1387121723, pending count: 1
[DRAM_CYCLE_ERROR] Cycle-based error applied! address=0x73bb114c0 additional_latency=173500 cycles
Heartbeat CPU 0 instructions: 1430000232 cycles: 1385286302 heartbeat IPC: 1.068 cumulative IPC: 1.032 (Simulation time: 03 hr 22 min 33 sec)
[ERROR_CYCLE] Error added at CPU cycle 1387121723, next at 1393135226, pending count: 1
[DRAM_CYCLE_ERROR] Cycle-based error applied! address=0x6dbfe9680 additional_latency=173500 cycles
[ERROR_CYCLE] Error added at CPU cycle 1393135226, next at 1410245518, pending count: 1
[DRAM_CYCLE_ERROR] Cycle-based error applied! address=0x3980afec0 additional_latency=173500 cycles
Heartbeat CPU 0 instructions: 1440000234 cycles: 1394675757 heartbeat IPC: 1.065 cumulative IPC: 1.032 (Simulation time: 03 hr 24 min 09 sec)
Heartbeat CPU 0 instructions: 1450000236 cycles: 1401642081 heartbeat IPC: 1.435 cumulative IPC: 1.035 (Simulation time: 03 hr 25 min 25 sec)
Heartbeat CPU 0 instructions: 1460000237 cycles: 1408630874 heartbeat IPC: 1.431 cumulative IPC: 1.036 (Simulation time: 03 hr 26 min 36 sec)
[ERROR_CYCLE] Error added at CPU cycle 1410245519, next at 1495091885, pending count: 1
[DRAM_CYCLE_ERROR] Cycle-based error applied! address=0x601f35100 additional_latency=173500 cycles
Heartbeat CPU 0 instructions: 1470000238 cycles: 1415617571 heartbeat IPC: 1.431 cumulative IPC: 1.038 (Simulation time: 03 hr 27 min 47 sec)
Heartbeat CPU 0 instructions: 1480000242 cycles: 1422624551 heartbeat IPC: 1.427 cumulative IPC: 1.04 (Simulation time: 03 hr 29 min 00 sec)
Heartbeat CPU 0 instructions: 1490000244 cycles: 1429620034 heartbeat IPC: 1.429 cumulative IPC: 1.042 (Simulation time: 03 hr 30 min 13 sec)
Heartbeat CPU 0 instructions: 1500000244 cycles: 1436610288 heartbeat IPC: 1.431 cumulative IPC: 1.044 (Simulation time: 03 hr 31 min 25 sec)
Heartbeat CPU 0 instructions: 1510000244 cycles: 1443628572 heartbeat IPC: 1.425 cumulative IPC: 1.046 (Simulation time: 03 hr 32 min 25 sec)
Heartbeat CPU 0 instructions: 1520000248 cycles: 1450620069 heartbeat IPC: 1.43 cumulative IPC: 1.048 (Simulation time: 03 hr 33 min 29 sec)
Heartbeat CPU 0 instructions: 1530000248 cycles: 1457649701 heartbeat IPC: 1.423 cumulative IPC: 1.05 (Simulation time: 03 hr 34 min 29 sec)
Heartbeat CPU 0 instructions: 1540000248 cycles: 1464684232 heartbeat IPC: 1.422 cumulative IPC: 1.051 (Simulation time: 03 hr 35 min 29 sec)
Heartbeat CPU 0 instructions: 1550000251 cycles: 1471747187 heartbeat IPC: 1.416 cumulative IPC: 1.053 (Simulation time: 03 hr 36 min 42 sec)
Heartbeat CPU 0 instructions: 1560000252 cycles: 1478714263 heartbeat IPC: 1.435 cumulative IPC: 1.055 (Simulation time: 03 hr 37 min 54 sec)
Heartbeat CPU 0 instructions: 1570000256 cycles: 1485572124 heartbeat IPC: 1.458 cumulative IPC: 1.057 (Simulation time: 03 hr 39 min 06 sec)
Heartbeat CPU 0 instructions: 1580000257 cycles: 1492119652 heartbeat IPC: 1.527 cumulative IPC: 1.059 (Simulation time: 03 hr 40 min 15 sec)
[ERROR_CYCLE] Error added at CPU cycle 1495091886, next at 1497338352, pending count: 1
[DRAM_CYCLE_ERROR] Cycle-based error applied! address=0x1f8ef8cc0 additional_latency=173500 cycles
[ERROR_CYCLE] Error added at CPU cycle 1497338352, next at 1510038978, pending count: 1
[DRAM_CYCLE_ERROR] Cycle-based error applied! address=0x51b66b580 additional_latency=173500 cycles
Heartbeat CPU 0 instructions: 1590000258 cycles: 1499003416 heartbeat IPC: 1.453 cumulative IPC: 1.061 (Simulation time: 03 hr 41 min 27 sec)
Heartbeat CPU 0 instructions: 1600000258 cycles: 1505956716 heartbeat IPC: 1.438 cumulative IPC: 1.062 (Simulation time: 03 hr 42 min 40 sec)
[ERROR_CYCLE] Error added at CPU cycle 1510038979, next at 1510994162, pending count: 1
[DRAM_CYCLE_ERROR] Cycle-based error applied! address=0x6bf110b00 additional_latency=173500 cycles
[ERROR_CYCLE] Error added at CPU cycle 1510994163, next at 1517546185, pending count: 1
[DRAM_CYCLE_ERROR] Cycle-based error applied! address=0x46abf7d00 additional_latency=173500 cycles
Heartbeat CPU 0 instructions: 1610000260 cycles: 1512945225 heartbeat IPC: 1.431 cumulative IPC: 1.064 (Simulation time: 03 hr 43 min 53 sec)
[ERROR_CYCLE] Error added at CPU cycle 1517546186, next at 1535864889, pending count: 1
[DRAM_CYCLE_ERROR] Cycle-based error applied! address=0x2278a6740 additional_latency=173500 cycles
Heartbeat CPU 0 instructions: 1620000261 cycles: 1519887427 heartbeat IPC: 1.44 cumulative IPC: 1.066 (Simulation time: 03 hr 45 min 06 sec)
Heartbeat CPU 0 instructions: 1630000262 cycles: 1526879574 heartbeat IPC: 1.43 cumulative IPC: 1.068 (Simulation time: 03 hr 46 min 19 sec)
Heartbeat CPU 0 instructions: 1640000266 cycles: 1533915592 heartbeat IPC: 1.421 cumulative IPC: 1.069 (Simulation time: 03 hr 47 min 32 sec)
[ERROR_CYCLE] Error added at CPU cycle 1535864889, next at 1536104601, pending count: 1
[DRAM_CYCLE_ERROR] Cycle-based error applied! address=0x6e0595080 additional_latency=173500 cycles
[ERROR_CYCLE] Error added at CPU cycle 1536104602, next at 1536200138, pending count: 1
[DRAM_CYCLE_ERROR] Cycle-based error applied! address=0x3b1d94540 additional_latency=173500 cycles
[ERROR_CYCLE] Error added at CPU cycle 1536200139, next at 1536529969, pending count: 1
[DRAM_CYCLE_ERROR] Cycle-based error applied! address=0x672a459c0 additional_latency=173500 cycles
[ERROR_CYCLE] Error added at CPU cycle 1536529970, next at 1546953656, pending count: 1
[DRAM_CYCLE_ERROR] Cycle-based error applied! address=0x57df63e78 additional_latency=173500 cycles
Heartbeat CPU 0 instructions: 1650000268 cycles: 1540977976 heartbeat IPC: 1.416 cumulative IPC: 1.071 (Simulation time: 03 hr 48 min 46 sec)
[ERROR_CYCLE] Error added at CPU cycle 1546953657, next at 1550817592, pending count: 1
[DRAM_CYCLE_ERROR] Cycle-based error applied! address=0x6338ca600 additional_latency=173500 cycles
Heartbeat CPU 0 instructions: 1660000268 cycles: 1547977323 heartbeat IPC: 1.429 cumulative IPC: 1.072 (Simulation time: 03 hr 50 min 00 sec)
[ERROR_CYCLE] Error added at CPU cycle 1550817592, next at 1552955133, pending count: 1
[DRAM_CYCLE_ERROR] Cycle-based error applied! address=0x74ccccbc0 additional_latency=173500 cycles
[ERROR_CYCLE] Error added at CPU cycle 1552955133, next at 1564110624, pending count: 1
[DRAM_CYCLE_ERROR] Cycle-based error applied! address=0x6755c3c00 additional_latency=173500 cycles
Heartbeat CPU 0 instructions: 1670000268 cycles: 1555011995 heartbeat IPC: 1.422 cumulative IPC: 1.074 (Simulation time: 03 hr 51 min 13 sec)
Heartbeat CPU 0 instructions: 1680000269 cycles: 1562111355 heartbeat IPC: 1.409 cumulative IPC: 1.075 (Simulation time: 03 hr 52 min 26 sec)
[ERROR_CYCLE] Error added at CPU cycle 1564110624, next at 1586732392, pending count: 1
[DRAM_CYCLE_ERROR] Cycle-based error applied! address=0x6bbda8400 additional_latency=173500 cycles
Heartbeat CPU 0 instructions: 1690000271 cycles: 1569100904 heartbeat IPC: 1.431 cumulative IPC: 1.077 (Simulation time: 03 hr 53 min 39 sec)
Heartbeat CPU 0 instructions: 1700000271 cycles: 1576072581 heartbeat IPC: 1.434 cumulative IPC: 1.079 (Simulation time: 03 hr 54 min 52 sec)
Heartbeat CPU 0 instructions: 1710000272 cycles: 1583011717 heartbeat IPC: 1.441 cumulative IPC: 1.08 (Simulation time: 03 hr 56 min 07 sec)
[ERROR_CYCLE] Error added at CPU cycle 1586732392, next at 1601477251, pending count: 1
[DRAM_CYCLE_ERROR] Cycle-based error applied! address=0x1c83d3100 additional_latency=173500 cycles
Heartbeat CPU 0 instructions: 1720000274 cycles: 1589763972 heartbeat IPC: 1.481 cumulative IPC: 1.082 (Simulation time: 03 hr 57 min 20 sec)
Heartbeat CPU 0 instructions: 1730000275 cycles: 1596352993 heartbeat IPC: 1.518 cumulative IPC: 1.084 (Simulation time: 03 hr 58 min 32 sec)
[ERROR_CYCLE] Error added at CPU cycle 1601477251, next at 1609406957, pending count: 1
[DRAM_CYCLE_ERROR] Cycle-based error applied! address=0x77e29c680 additional_latency=173500 cycles
Heartbeat CPU 0 instructions: 1740000275 cycles: 1603448116 heartbeat IPC: 1.409 cumulative IPC: 1.085 (Simulation time: 03 hr 59 min 43 sec)
[ERROR_CYCLE] Error added at CPU cycle 1609406957, next at 1625268224, pending count: 1
[DRAM_CYCLE_ERROR] Cycle-based error applied! address=0x108ef3880 additional_latency=173500 cycles
Heartbeat CPU 0 instructions: 1750000278 cycles: 1610462841 heartbeat IPC: 1.426 cumulative IPC: 1.087 (Simulation time: 04 hr 00 min 58 sec)
Heartbeat CPU 0 instructions: 1760000282 cycles: 1617453884 heartbeat IPC: 1.43 cumulative IPC: 1.088 (Simulation time: 04 hr 02 min 11 sec)
Heartbeat CPU 0 instructions: 1770000283 cycles: 1624442877 heartbeat IPC: 1.431 cumulative IPC: 1.09 (Simulation time: 04 hr 03 min 18 sec)
[ERROR_CYCLE] Error added at CPU cycle 1625268225, next at 1650504061, pending count: 1
[DRAM_CYCLE_ERROR] Cycle-based error applied! address=0x4d0f33f00 additional_latency=173500 cycles
Heartbeat CPU 0 instructions: 1780000286 cycles: 1631428556 heartbeat IPC: 1.432 cumulative IPC: 1.091 (Simulation time: 04 hr 04 min 30 sec)
Heartbeat CPU 0 instructions: 1790000286 cycles: 1638419370 heartbeat IPC: 1.43 cumulative IPC: 1.093 (Simulation time: 04 hr 05 min 44 sec)
Heartbeat CPU 0 instructions: 1800000287 cycles: 1645461419 heartbeat IPC: 1.42 cumulative IPC: 1.094 (Simulation time: 04 hr 06 min 59 sec)
[ERROR_CYCLE] Error added at CPU cycle 1650504061, next at 1660874937, pending count: 1
[DRAM_CYCLE_ERROR] Cycle-based error applied! address=0x2165d74c0 additional_latency=173500 cycles
Heartbeat CPU 0 instructions: 1810000287 cycles: 1652522226 heartbeat IPC: 1.416 cumulative IPC: 1.095 (Simulation time: 04 hr 08 min 15 sec)
Heartbeat CPU 0 instructions: 1820000290 cycles: 1659561847 heartbeat IPC: 1.421 cumulative IPC: 1.097 (Simulation time: 04 hr 09 min 29 sec)
[ERROR_CYCLE] Error added at CPU cycle 1660874938, next at 1677870285, pending count: 1
[DRAM_CYCLE_ERROR] Cycle-based error applied! address=0x27e6a280 additional_latency=173500 cycles
Heartbeat CPU 0 instructions: 1830000292 cycles: 1666616520 heartbeat IPC: 1.418 cumulative IPC: 1.098 (Simulation time: 04 hr 10 min 44 sec)
Heartbeat CPU 0 instructions: 1840000293 cycles: 1673655780 heartbeat IPC: 1.421 cumulative IPC: 1.099 (Simulation time: 04 hr 11 min 59 sec)
[ERROR_CYCLE] Error added at CPU cycle 1677870285, next at 1723608311, pending count: 1
[DRAM_CYCLE_ERROR] Cycle-based error applied! address=0x61b417000 additional_latency=173500 cycles
Heartbeat CPU 0 instructions: 1850000295 cycles: 1680777716 heartbeat IPC: 1.404 cumulative IPC: 1.101 (Simulation time: 04 hr 13 min 15 sec)
Heartbeat CPU 0 instructions: 1860000295 cycles: 1687739007 heartbeat IPC: 1.437 cumulative IPC: 1.102 (Simulation time: 04 hr 14 min 26 sec)
Heartbeat CPU 0 instructions: 1870000298 cycles: 1694340062 heartbeat IPC: 1.515 cumulative IPC: 1.104 (Simulation time: 04 hr 15 min 29 sec)
Heartbeat CPU 0 instructions: 1880000300 cycles: 1701103840 heartbeat IPC: 1.478 cumulative IPC: 1.105 (Simulation time: 04 hr 16 min 25 sec)
Heartbeat CPU 0 instructions: 1890000301 cycles: 1708163171 heartbeat IPC: 1.417 cumulative IPC: 1.106 (Simulation time: 04 hr 17 min 25 sec)
Heartbeat CPU 0 instructions: 1900000301 cycles: 1715126551 heartbeat IPC: 1.436 cumulative IPC: 1.108 (Simulation time: 04 hr 18 min 17 sec)
Heartbeat CPU 0 instructions: 1910000302 cycles: 1722123516 heartbeat IPC: 1.429 cumulative IPC: 1.109 (Simulation time: 04 hr 19 min 17 sec)
[ERROR_CYCLE] Error added at CPU cycle 1723608312, next at 1728278484, pending count: 1
[DRAM_CYCLE_ERROR] Cycle-based error applied! address=0x11edd8000 additional_latency=173500 cycles
[ERROR_CYCLE] Error added at CPU cycle 1728278484, next at 1766089605, pending count: 1
[DRAM_CYCLE_ERROR] Cycle-based error applied! address=0x3d88c2600 additional_latency=173500 cycles
Heartbeat CPU 0 instructions: 1920000303 cycles: 1729151096 heartbeat IPC: 1.423 cumulative IPC: 1.11 (Simulation time: 04 hr 20 min 17 sec)
Heartbeat CPU 0 instructions: 1930000307 cycles: 1736158586 heartbeat IPC: 1.427 cumulative IPC: 1.112 (Simulation time: 04 hr 21 min 23 sec)
Heartbeat CPU 0 instructions: 1940000308 cycles: 1743207027 heartbeat IPC: 1.419 cumulative IPC: 1.113 (Simulation time: 04 hr 22 min 33 sec)
Heartbeat CPU 0 instructions: 1950000308 cycles: 1750226419 heartbeat IPC: 1.425 cumulative IPC: 1.114 (Simulation time: 04 hr 23 min 47 sec)
Heartbeat CPU 0 instructions: 1960000310 cycles: 1757234311 heartbeat IPC: 1.427 cumulative IPC: 1.115 (Simulation time: 04 hr 24 min 58 sec)
Heartbeat CPU 0 instructions: 1970000311 cycles: 1764248192 heartbeat IPC: 1.426 cumulative IPC: 1.117 (Simulation time: 04 hr 26 min 13 sec)
[ERROR_CYCLE] Error added at CPU cycle 1766089606, next at 1770934277, pending count: 1
[DRAM_CYCLE_ERROR] Cycle-based error applied! address=0x1db205e00 additional_latency=173500 cycles
[ERROR_CYCLE] Error added at CPU cycle 1770934277, next at 1774352128, pending count: 1
[DRAM_CYCLE_ERROR] Cycle-based error applied! address=0x556f14980 additional_latency=173500 cycles
Heartbeat CPU 0 instructions: 1980000312 cycles: 1771304929 heartbeat IPC: 1.417 cumulative IPC: 1.118 (Simulation time: 04 hr 27 min 28 sec)
[ERROR_CYCLE] Error added at CPU cycle 1774352128, next at 1782866587, pending count: 1
[DRAM_CYCLE_ERROR] Cycle-based error applied! address=0x6d276e180 additional_latency=173500 cycles
Heartbeat CPU 0 instructions: 1990000313 cycles: 1778323645 heartbeat IPC: 1.425 cumulative IPC: 1.119 (Simulation time: 04 hr 28 min 30 sec)
[ERROR_CYCLE] Error added at CPU cycle 1782866587, next at 1820284123, pending count: 1
[DRAM_CYCLE_ERROR] Cycle-based error applied! address=0x2f688b900 additional_latency=173500 cycles

=== ERROR PAGE STATISTICS ===
Mode: CYCLE
Error Cycle Interval: 20000000 CPU cycles
Total Error Accesses: 98
==============================
Simulation finished CPU 0 instructions: 1999999510 cycles: 1785312944 cumulative IPC: 1.12 (Simulation time: 04 hr 29 min 31 sec)
Simulation complete CPU 0 instructions: 1999999510 cycles: 1785312944 cumulative IPC: 1.12 (Simulation time: 04 hr 29 min 31 sec)

ChampSim completed all CPUs

=== Simulation ===
CPU 0 runs test_traces/654.roms_s-1007B.champsimtrace.xz

Region of Interest Statistics

CPU 0 cumulative IPC: 1.12 instructions: 1999999510 cycles: 1785312944
CPU 0 Branch Prediction Accuracy: 95.85% MPKI: 3.086 Average ROB Occupancy at Mispredict: 45.58
Branch type MPKI
BRANCH_DIRECT_JUMP: 9.8e-05
BRANCH_INDIRECT: 6e-06
BRANCH_CONDITIONAL: 1.593
BRANCH_DIRECT_CALL: 3.65e-05
BRANCH_INDIRECT_CALL: 0
BRANCH_RETURN: 1.493

cpu0->cpu0_STLB TOTAL        ACCESS:   68475855 HIT:   68267175 MISS:     208680 MSHR_MERGE:          0
cpu0->cpu0_STLB LOAD         ACCESS:   68475855 HIT:   68267175 MISS:     208680 MSHR_MERGE:          0
cpu0->cpu0_STLB RFO          ACCESS:          0 HIT:          0 MISS:          0 MSHR_MERGE:          0
cpu0->cpu0_STLB PREFETCH     ACCESS:          0 HIT:          0 MISS:          0 MSHR_MERGE:          0
cpu0->cpu0_STLB WRITE        ACCESS:          0 HIT:          0 MISS:          0 MSHR_MERGE:          0
cpu0->cpu0_STLB TRANSLATION  ACCESS:          0 HIT:          0 MISS:          0 MSHR_MERGE:          0
cpu0->cpu0_STLB PREFETCH REQUESTED:          0 ISSUED:          0 USEFUL:          0 USELESS:          0
cpu0->cpu0_STLB AVERAGE MISS LATENCY: 546.4 cycles
cpu0->cpu0_L2C TOTAL        ACCESS:   35192915 HIT:   15841280 MISS:   19351635 MSHR_MERGE:          0
cpu0->cpu0_L2C LOAD         ACCESS:   22568686 HIT:    7662048 MISS:   14906638 MSHR_MERGE:          0
cpu0->cpu0_L2C RFO          ACCESS:    5289590 HIT:     850457 MISS:    4439133 MSHR_MERGE:          0
cpu0->cpu0_L2C PREFETCH     ACCESS:          0 HIT:          0 MISS:          0 MSHR_MERGE:          0
cpu0->cpu0_L2C WRITE        ACCESS:    7334639 HIT:    7328775 MISS:       5864 MSHR_MERGE:          0
cpu0->cpu0_L2C TRANSLATION  ACCESS:          0 HIT:          0 MISS:          0 MSHR_MERGE:          0
cpu0->cpu0_L2C PREFETCH REQUESTED:          0 ISSUED:          0 USEFUL:          0 USELESS:          0
cpu0->cpu0_L2C AVERAGE MISS LATENCY: 63.67 cycles
cpu0->cpu0_L1I TOTAL        ACCESS:  424250647 HIT:  424250039 MISS:        608 MSHR_MERGE:        195
cpu0->cpu0_L1I LOAD         ACCESS:  424250647 HIT:  424250039 MISS:        608 MSHR_MERGE:        195
cpu0->cpu0_L1I RFO          ACCESS:          0 HIT:          0 MISS:          0 MSHR_MERGE:          0
cpu0->cpu0_L1I PREFETCH     ACCESS:          0 HIT:          0 MISS:          0 MSHR_MERGE:          0
cpu0->cpu0_L1I WRITE        ACCESS:          0 HIT:          0 MISS:          0 MSHR_MERGE:          0
cpu0->cpu0_L1I TRANSLATION  ACCESS:          0 HIT:          0 MISS:          0 MSHR_MERGE:          0
cpu0->cpu0_L1I PREFETCH REQUESTED:          0 ISSUED:          0 USEFUL:          0 USELESS:          0
cpu0->cpu0_L1I AVERAGE MISS LATENCY: 122.4 cycles
cpu0->cpu0_L1D TOTAL        ACCESS:  764771931 HIT:  726463241 MISS:   38308690 MSHR_MERGE:   10450396
cpu0->cpu0_L1D LOAD         ACCESS:  582517713 HIT:  553403030 MISS:   29114683 MSHR_MERGE:    6546408
cpu0->cpu0_L1D RFO          ACCESS:          0 HIT:          0 MISS:          0 MSHR_MERGE:          0
cpu0->cpu0_L1D PREFETCH     ACCESS:          0 HIT:          0 MISS:          0 MSHR_MERGE:          0
cpu0->cpu0_L1D WRITE        ACCESS:  182254218 HIT:  173060211 MISS:    9194007 MSHR_MERGE:    3903988
cpu0->cpu0_L1D TRANSLATION  ACCESS:          0 HIT:          0 MISS:          0 MSHR_MERGE:          0
cpu0->cpu0_L1D PREFETCH REQUESTED:          0 ISSUED:          0 USEFUL:          0 USELESS:          0
cpu0->cpu0_L1D AVERAGE MISS LATENCY: 52.96 cycles
cpu0->cpu0_ITLB TOTAL        ACCESS:  369262468 HIT:  369262411 MISS:         57 MSHR_MERGE:         31
cpu0->cpu0_ITLB LOAD         ACCESS:  369262468 HIT:  369262411 MISS:         57 MSHR_MERGE:         31
cpu0->cpu0_ITLB RFO          ACCESS:          0 HIT:          0 MISS:          0 MSHR_MERGE:          0
cpu0->cpu0_ITLB PREFETCH     ACCESS:          0 HIT:          0 MISS:          0 MSHR_MERGE:          0
cpu0->cpu0_ITLB WRITE        ACCESS:          0 HIT:          0 MISS:          0 MSHR_MERGE:          0
cpu0->cpu0_ITLB TRANSLATION  ACCESS:          0 HIT:          0 MISS:          0 MSHR_MERGE:          0
cpu0->cpu0_ITLB PREFETCH REQUESTED:          0 ISSUED:          0 USEFUL:          0 USELESS:          0
cpu0->cpu0_ITLB AVERAGE MISS LATENCY: 621.9 cycles
cpu0->cpu0_DTLB TOTAL        ACCESS:  678241951 HIT:  609377617 MISS:   68864334 MSHR_MERGE:     388505
cpu0->cpu0_DTLB LOAD         ACCESS:  678241951 HIT:  609377617 MISS:   68864334 MSHR_MERGE:     388505
cpu0->cpu0_DTLB RFO          ACCESS:          0 HIT:          0 MISS:          0 MSHR_MERGE:          0
cpu0->cpu0_DTLB PREFETCH     ACCESS:          0 HIT:          0 MISS:          0 MSHR_MERGE:          0
cpu0->cpu0_DTLB WRITE        ACCESS:          0 HIT:          0 MISS:          0 MSHR_MERGE:          0
cpu0->cpu0_DTLB TRANSLATION  ACCESS:          0 HIT:          0 MISS:          0 MSHR_MERGE:          0
cpu0->cpu0_DTLB PREFETCH REQUESTED:          0 ISSUED:          0 USEFUL:          0 USELESS:          0
cpu0->cpu0_DTLB AVERAGE MISS LATENCY: 6.725 cycles
cpu0->LLC TOTAL        ACCESS:   25307155 HIT:   15651313 MISS:    9655842 MSHR_MERGE:          0
cpu0->LLC LOAD         ACCESS:   14906637 HIT:    7078205 MISS:    7828432 MSHR_MERGE:          0
cpu0->LLC RFO          ACCESS:    4439133 HIT:    2615713 MISS:    1823420 MSHR_MERGE:          0
cpu0->LLC PREFETCH     ACCESS:          0 HIT:          0 MISS:          0 MSHR_MERGE:          0
cpu0->LLC WRITE        ACCESS:    5961385 HIT:    5957395 MISS:       3990 MSHR_MERGE:          0
cpu0->LLC TRANSLATION  ACCESS:          0 HIT:          0 MISS:          0 MSHR_MERGE:          0
cpu0->LLC PREFETCH REQUESTED:          0 ISSUED:          0 USEFUL:          0 USELESS:          0
cpu0->LLC AVERAGE MISS LATENCY: 96.53 cycles

DRAM Statistics

Channel 0 RQ ROW_BUFFER_HIT:      10651
  ROW_BUFFER_MISS:    5071344
  AVG DBUS CONGESTED CYCLE: 11.11
Channel 0 WQ ROW_BUFFER_HIT:     168548
  ROW_BUFFER_MISS:     860612
  FULL:          0
Channel 0 REFRESHES ISSUED:     148766

Channel 1 RQ ROW_BUFFER_HIT:      10750
  ROW_BUFFER_MISS:    5075595
  AVG DBUS CONGESTED CYCLE: 11.12
Channel 1 WQ ROW_BUFFER_HIT:     169791
  ROW_BUFFER_MISS:     858708
  FULL:          0
Channel 1 REFRESHES ISSUED:     148766
