
*** ChampSim Multicore Out-of-Order Simulator ***
Warmup Instructions: 0
Simulation Instructions: 9223372036854775807
Number of CPUs: 1
Page size: 2097152

Off-chip DRAM Size: 128 GiB Channels: 2 Width: 32-bit Data Rate: 4807 MT/s
[ERROR_PAGE_MANAGER] Error latency: 1990500 
[ERROR_PAGE_MANAGER] Random seed: 54321 (fixed for preload reproducibility)
[ERROR_PAGE_MANAGER] Cycle-based error modeling enabled
[ERROR_PAGE_MANAGER] Errors per interval: 1
[ERROR_PAGE_MANAGER] Error cycle interval: 80000000 cycles

=== ERROR PAGE STATISTICS ===
Mode: CYCLE
Error Cycle Interval: 80000000 CPU cycles
Total Error Accesses: 0
==============================
Warmup finished CPU 0 instructions: 0 cycles: 1 cumulative IPC: 0 (Simulation time: 00 hr 00 min 00 sec)
Warmup complete CPU 0 instructions: 0 cycles: 1 cumulative IPC: 0 (Simulation time: 00 hr 00 min 00 sec)
Heartbeat CPU 0 instructions: 10000002 cycles: 6872628 heartbeat IPC: 1.455 cumulative IPC: 1.455 (Simulation time: 00 hr 00 min 59 sec)
Heartbeat CPU 0 instructions: 20000003 cycles: 12771289 heartbeat IPC: 1.695 cumulative IPC: 1.566 (Simulation time: 00 hr 01 min 46 sec)
Heartbeat CPU 0 instructions: 30000006 cycles: 18646943 heartbeat IPC: 1.702 cumulative IPC: 1.609 (Simulation time: 00 hr 02 min 27 sec)
Heartbeat CPU 0 instructions: 40000006 cycles: 24520096 heartbeat IPC: 1.703 cumulative IPC: 1.631 (Simulation time: 00 hr 03 min 10 sec)
Heartbeat CPU 0 instructions: 50000010 cycles: 30268903 heartbeat IPC: 1.739 cumulative IPC: 1.652 (Simulation time: 00 hr 04 min 02 sec)
Heartbeat CPU 0 instructions: 60000011 cycles: 36001785 heartbeat IPC: 1.744 cumulative IPC: 1.667 (Simulation time: 00 hr 04 min 44 sec)
Heartbeat CPU 0 instructions: 70000011 cycles: 41558360 heartbeat IPC: 1.8 cumulative IPC: 1.684 (Simulation time: 00 hr 05 min 29 sec)
Heartbeat CPU 0 instructions: 80000014 cycles: 46885980 heartbeat IPC: 1.877 cumulative IPC: 1.706 (Simulation time: 00 hr 06 min 08 sec)
Heartbeat CPU 0 instructions: 90000016 cycles: 53035623 heartbeat IPC: 1.626 cumulative IPC: 1.697 (Simulation time: 00 hr 06 min 58 sec)
[ERROR_CYCLE] Error added at CPU cycle 57022446, next at 73226450, pending count: 1
[DRAM_CYCLE_ERROR] Cycle-based error applied! address=0x1b868bf4c0 additional_latency=1990500 cycles
Heartbeat CPU 0 instructions: 100000020 cycles: 58413994 heartbeat IPC: 1.859 cumulative IPC: 1.712 (Simulation time: 00 hr 07 min 47 sec)
Heartbeat CPU 0 instructions: 110000020 cycles: 63905651 heartbeat IPC: 1.821 cumulative IPC: 1.721 (Simulation time: 00 hr 08 min 37 sec)
Heartbeat CPU 0 instructions: 120000021 cycles: 69073086 heartbeat IPC: 1.935 cumulative IPC: 1.737 (Simulation time: 00 hr 09 min 11 sec)
[ERROR_CYCLE] Error added at CPU cycle 73226451, next at 205568512, pending count: 1
[DRAM_CYCLE_ERROR] Cycle-based error applied! address=0x1556bccbc0 additional_latency=1990500 cycles
Heartbeat CPU 0 instructions: 130000024 cycles: 73961287 heartbeat IPC: 2.046 cumulative IPC: 1.758 (Simulation time: 00 hr 09 min 47 sec)
Heartbeat CPU 0 instructions: 140000028 cycles: 78021763 heartbeat IPC: 2.463 cumulative IPC: 1.794 (Simulation time: 00 hr 10 min 20 sec)
Heartbeat CPU 0 instructions: 150000030 cycles: 82521838 heartbeat IPC: 2.222 cumulative IPC: 1.818 (Simulation time: 00 hr 10 min 56 sec)
Heartbeat CPU 0 instructions: 160000030 cycles: 86777887 heartbeat IPC: 2.35 cumulative IPC: 1.844 (Simulation time: 00 hr 11 min 27 sec)
Heartbeat CPU 0 instructions: 170000030 cycles: 91651889 heartbeat IPC: 2.052 cumulative IPC: 1.855 (Simulation time: 00 hr 12 min 02 sec)
Heartbeat CPU 0 instructions: 180000031 cycles: 97774060 heartbeat IPC: 1.633 cumulative IPC: 1.841 (Simulation time: 00 hr 12 min 49 sec)
Heartbeat CPU 0 instructions: 190000031 cycles: 103820676 heartbeat IPC: 1.654 cumulative IPC: 1.83 (Simulation time: 00 hr 13 min 31 sec)
Heartbeat CPU 0 instructions: 200000032 cycles: 109886420 heartbeat IPC: 1.649 cumulative IPC: 1.82 (Simulation time: 00 hr 14 min 19 sec)
Heartbeat CPU 0 instructions: 210000032 cycles: 115947215 heartbeat IPC: 1.65 cumulative IPC: 1.811 (Simulation time: 00 hr 15 min 03 sec)
Heartbeat CPU 0 instructions: 220000032 cycles: 121997025 heartbeat IPC: 1.653 cumulative IPC: 1.803 (Simulation time: 00 hr 15 min 56 sec)
Heartbeat CPU 0 instructions: 230000035 cycles: 128015343 heartbeat IPC: 1.662 cumulative IPC: 1.797 (Simulation time: 00 hr 16 min 48 sec)
Heartbeat CPU 0 instructions: 240000036 cycles: 133992458 heartbeat IPC: 1.673 cumulative IPC: 1.791 (Simulation time: 00 hr 17 min 41 sec)
Heartbeat CPU 0 instructions: 250000039 cycles: 139767571 heartbeat IPC: 1.732 cumulative IPC: 1.789 (Simulation time: 00 hr 18 min 32 sec)
Heartbeat CPU 0 instructions: 260000043 cycles: 145888742 heartbeat IPC: 1.634 cumulative IPC: 1.782 (Simulation time: 00 hr 19 min 23 sec)
Heartbeat CPU 0 instructions: 270000044 cycles: 151894022 heartbeat IPC: 1.665 cumulative IPC: 1.778 (Simulation time: 00 hr 20 min 12 sec)
Heartbeat CPU 0 instructions: 280000046 cycles: 157697978 heartbeat IPC: 1.723 cumulative IPC: 1.776 (Simulation time: 00 hr 21 min 03 sec)
Heartbeat CPU 0 instructions: 290000050 cycles: 163356696 heartbeat IPC: 1.767 cumulative IPC: 1.775 (Simulation time: 00 hr 21 min 56 sec)
Heartbeat CPU 0 instructions: 300000050 cycles: 168688512 heartbeat IPC: 1.876 cumulative IPC: 1.778 (Simulation time: 00 hr 22 min 43 sec)
Heartbeat CPU 0 instructions: 310000051 cycles: 173788212 heartbeat IPC: 1.961 cumulative IPC: 1.784 (Simulation time: 00 hr 23 min 27 sec)
Heartbeat CPU 0 instructions: 320000051 cycles: 178067734 heartbeat IPC: 2.337 cumulative IPC: 1.797 (Simulation time: 00 hr 24 min 05 sec)
Heartbeat CPU 0 instructions: 330000055 cycles: 183545405 heartbeat IPC: 1.826 cumulative IPC: 1.798 (Simulation time: 00 hr 24 min 48 sec)
Heartbeat CPU 0 instructions: 340000056 cycles: 188195502 heartbeat IPC: 2.15 cumulative IPC: 1.807 (Simulation time: 00 hr 25 min 27 sec)
Heartbeat CPU 0 instructions: 350000056 cycles: 193018355 heartbeat IPC: 2.073 cumulative IPC: 1.813 (Simulation time: 00 hr 26 min 09 sec)
Heartbeat CPU 0 instructions: 360000058 cycles: 199146457 heartbeat IPC: 1.632 cumulative IPC: 1.808 (Simulation time: 00 hr 27 min 00 sec)
Heartbeat CPU 0 instructions: 370000059 cycles: 205366268 heartbeat IPC: 1.608 cumulative IPC: 1.802 (Simulation time: 00 hr 27 min 54 sec)
[ERROR_CYCLE] Error added at CPU cycle 205568513, next at 427741518, pending count: 1
[DRAM_CYCLE_ERROR] Cycle-based error applied! address=0x1389fe0380 additional_latency=1990500 cycles
Heartbeat CPU 0 instructions: 380000059 cycles: 211583751 heartbeat IPC: 1.608 cumulative IPC: 1.796 (Simulation time: 00 hr 28 min 48 sec)
Heartbeat CPU 0 instructions: 390000059 cycles: 217817240 heartbeat IPC: 1.604 cumulative IPC: 1.79 (Simulation time: 00 hr 29 min 42 sec)
Heartbeat CPU 0 instructions: 400000059 cycles: 224016249 heartbeat IPC: 1.613 cumulative IPC: 1.786 (Simulation time: 00 hr 30 min 36 sec)
Heartbeat CPU 0 instructions: 410000063 cycles: 230189386 heartbeat IPC: 1.62 cumulative IPC: 1.781 (Simulation time: 00 hr 31 min 30 sec)
Heartbeat CPU 0 instructions: 420000063 cycles: 236288024 heartbeat IPC: 1.64 cumulative IPC: 1.777 (Simulation time: 00 hr 32 min 23 sec)
Heartbeat CPU 0 instructions: 430000065 cycles: 242241424 heartbeat IPC: 1.68 cumulative IPC: 1.775 (Simulation time: 00 hr 33 min 15 sec)
Heartbeat CPU 0 instructions: 440000065 cycles: 247620937 heartbeat IPC: 1.859 cumulative IPC: 1.777 (Simulation time: 00 hr 34 min 02 sec)
Heartbeat CPU 0 instructions: 450000066 cycles: 254549988 heartbeat IPC: 1.443 cumulative IPC: 1.768 (Simulation time: 00 hr 34 min 57 sec)
Heartbeat CPU 0 instructions: 460000069 cycles: 259873322 heartbeat IPC: 1.879 cumulative IPC: 1.77 (Simulation time: 00 hr 35 min 44 sec)
Heartbeat CPU 0 instructions: 470000072 cycles: 265814082 heartbeat IPC: 1.683 cumulative IPC: 1.768 (Simulation time: 00 hr 36 min 39 sec)
Heartbeat CPU 0 instructions: 480000072 cycles: 271253691 heartbeat IPC: 1.838 cumulative IPC: 1.77 (Simulation time: 00 hr 37 min 30 sec)
Heartbeat CPU 0 instructions: 490000072 cycles: 276042383 heartbeat IPC: 2.088 cumulative IPC: 1.775 (Simulation time: 00 hr 38 min 11 sec)
Heartbeat CPU 0 instructions: 500000075 cycles: 280706887 heartbeat IPC: 2.144 cumulative IPC: 1.781 (Simulation time: 00 hr 38 min 53 sec)
Heartbeat CPU 0 instructions: 510000076 cycles: 285360427 heartbeat IPC: 2.149 cumulative IPC: 1.787 (Simulation time: 00 hr 39 min 32 sec)
Heartbeat CPU 0 instructions: 520000078 cycles: 290867682 heartbeat IPC: 1.816 cumulative IPC: 1.788 (Simulation time: 00 hr 40 min 17 sec)
Heartbeat CPU 0 instructions: 530000079 cycles: 295278808 heartbeat IPC: 2.267 cumulative IPC: 1.795 (Simulation time: 00 hr 40 min 55 sec)
Heartbeat CPU 0 instructions: 540000079 cycles: 301150099 heartbeat IPC: 1.703 cumulative IPC: 1.793 (Simulation time: 00 hr 41 min 44 sec)
Heartbeat CPU 0 instructions: 550000079 cycles: 307231645 heartbeat IPC: 1.644 cumulative IPC: 1.79 (Simulation time: 00 hr 42 min 37 sec)
Heartbeat CPU 0 instructions: 560000081 cycles: 313345446 heartbeat IPC: 1.636 cumulative IPC: 1.787 (Simulation time: 00 hr 43 min 32 sec)
Heartbeat CPU 0 instructions: 570000084 cycles: 319472727 heartbeat IPC: 1.632 cumulative IPC: 1.784 (Simulation time: 00 hr 44 min 26 sec)
Heartbeat CPU 0 instructions: 580000084 cycles: 325594857 heartbeat IPC: 1.633 cumulative IPC: 1.781 (Simulation time: 00 hr 45 min 20 sec)
Heartbeat CPU 0 instructions: 590000084 cycles: 331690433 heartbeat IPC: 1.641 cumulative IPC: 1.779 (Simulation time: 00 hr 46 min 14 sec)
Heartbeat CPU 0 instructions: 600000087 cycles: 337722675 heartbeat IPC: 1.658 cumulative IPC: 1.777 (Simulation time: 00 hr 46 min 51 sec)
Heartbeat CPU 0 instructions: 610000090 cycles: 343802201 heartbeat IPC: 1.645 cumulative IPC: 1.774 (Simulation time: 00 hr 47 min 33 sec)
Heartbeat CPU 0 instructions: 620000094 cycles: 348573510 heartbeat IPC: 2.096 cumulative IPC: 1.779 (Simulation time: 00 hr 48 min 13 sec)
Heartbeat CPU 0 instructions: 630000096 cycles: 356402289 heartbeat IPC: 1.277 cumulative IPC: 1.768 (Simulation time: 00 hr 49 min 15 sec)
Heartbeat CPU 0 instructions: 640000096 cycles: 362283674 heartbeat IPC: 1.7 cumulative IPC: 1.767 (Simulation time: 00 hr 50 min 06 sec)
Heartbeat CPU 0 instructions: 650000097 cycles: 368040366 heartbeat IPC: 1.737 cumulative IPC: 1.766 (Simulation time: 00 hr 51 min 01 sec)
Heartbeat CPU 0 instructions: 660000097 cycles: 373730106 heartbeat IPC: 1.758 cumulative IPC: 1.766 (Simulation time: 00 hr 51 min 57 sec)
Heartbeat CPU 0 instructions: 670000097 cycles: 378332431 heartbeat IPC: 2.173 cumulative IPC: 1.771 (Simulation time: 00 hr 52 min 37 sec)
Heartbeat CPU 0 instructions: 680000098 cycles: 383737895 heartbeat IPC: 1.85 cumulative IPC: 1.772 (Simulation time: 00 hr 53 min 25 sec)
Heartbeat CPU 0 instructions: 690000101 cycles: 387328112 heartbeat IPC: 2.785 cumulative IPC: 1.781 (Simulation time: 00 hr 53 min 58 sec)
Heartbeat CPU 0 instructions: 700000105 cycles: 393670783 heartbeat IPC: 1.577 cumulative IPC: 1.778 (Simulation time: 00 hr 54 min 49 sec)
Heartbeat CPU 0 instructions: 710000108 cycles: 398423113 heartbeat IPC: 2.104 cumulative IPC: 1.782 (Simulation time: 00 hr 55 min 30 sec)
Heartbeat CPU 0 instructions: 720000109 cycles: 403770425 heartbeat IPC: 1.87 cumulative IPC: 1.783 (Simulation time: 00 hr 56 min 17 sec)
Heartbeat CPU 0 instructions: 730000109 cycles: 410206254 heartbeat IPC: 1.554 cumulative IPC: 1.78 (Simulation time: 00 hr 57 min 09 sec)
Heartbeat CPU 0 instructions: 740000109 cycles: 416293224 heartbeat IPC: 1.643 cumulative IPC: 1.778 (Simulation time: 00 hr 58 min 05 sec)
Heartbeat CPU 0 instructions: 750000112 cycles: 422418240 heartbeat IPC: 1.633 cumulative IPC: 1.775 (Simulation time: 00 hr 59 min 01 sec)
[ERROR_CYCLE] Error added at CPU cycle 427741518, next at 430145799, pending count: 1
[DRAM_CYCLE_ERROR] Cycle-based error applied! address=0x1418402100 additional_latency=1990500 cycles
Heartbeat CPU 0 instructions: 760000113 cycles: 428540988 heartbeat IPC: 1.633 cumulative IPC: 1.773 (Simulation time: 00 hr 59 min 57 sec)
[ERROR_CYCLE] Error added at CPU cycle 430145800, next at 553109136, pending count: 1
[DRAM_CYCLE_ERROR] Cycle-based error applied! address=0x1865976c0 additional_latency=1990500 cycles
Heartbeat CPU 0 instructions: 770000113 cycles: 434678345 heartbeat IPC: 1.629 cumulative IPC: 1.771 (Simulation time: 01 hr 00 min 53 sec)
Heartbeat CPU 0 instructions: 780000113 cycles: 440896515 heartbeat IPC: 1.608 cumulative IPC: 1.769 (Simulation time: 01 hr 01 min 48 sec)
Heartbeat CPU 0 instructions: 790000117 cycles: 447095408 heartbeat IPC: 1.613 cumulative IPC: 1.767 (Simulation time: 01 hr 02 min 44 sec)
Heartbeat CPU 0 instructions: 800000117 cycles: 452427193 heartbeat IPC: 1.876 cumulative IPC: 1.768 (Simulation time: 01 hr 03 min 33 sec)
Heartbeat CPU 0 instructions: 810000118 cycles: 459493638 heartbeat IPC: 1.415 cumulative IPC: 1.763 (Simulation time: 01 hr 04 min 28 sec)
Heartbeat CPU 0 instructions: 820000118 cycles: 465422165 heartbeat IPC: 1.687 cumulative IPC: 1.762 (Simulation time: 01 hr 05 min 17 sec)
Heartbeat CPU 0 instructions: 830000119 cycles: 470980500 heartbeat IPC: 1.799 cumulative IPC: 1.762 (Simulation time: 01 hr 06 min 04 sec)
Heartbeat CPU 0 instructions: 840000120 cycles: 476213108 heartbeat IPC: 1.911 cumulative IPC: 1.764 (Simulation time: 01 hr 06 min 54 sec)
Heartbeat CPU 0 instructions: 850000121 cycles: 481532170 heartbeat IPC: 1.88 cumulative IPC: 1.765 (Simulation time: 01 hr 07 min 41 sec)
Heartbeat CPU 0 instructions: 860000122 cycles: 486749041 heartbeat IPC: 1.917 cumulative IPC: 1.767 (Simulation time: 01 hr 08 min 27 sec)
Heartbeat CPU 0 instructions: 870000123 cycles: 490949125 heartbeat IPC: 2.381 cumulative IPC: 1.772 (Simulation time: 01 hr 09 min 04 sec)
Heartbeat CPU 0 instructions: 880000126 cycles: 497023378 heartbeat IPC: 1.646 cumulative IPC: 1.771 (Simulation time: 01 hr 09 min 53 sec)
Heartbeat CPU 0 instructions: 890000126 cycles: 502007539 heartbeat IPC: 2.006 cumulative IPC: 1.773 (Simulation time: 01 hr 10 min 36 sec)
Heartbeat CPU 0 instructions: 900000130 cycles: 506808462 heartbeat IPC: 2.083 cumulative IPC: 1.776 (Simulation time: 01 hr 11 min 15 sec)
Heartbeat CPU 0 instructions: 910000130 cycles: 512867660 heartbeat IPC: 1.65 cumulative IPC: 1.774 (Simulation time: 01 hr 12 min 03 sec)
Heartbeat CPU 0 instructions: 920000132 cycles: 518907741 heartbeat IPC: 1.656 cumulative IPC: 1.773 (Simulation time: 01 hr 12 min 58 sec)
Heartbeat CPU 0 instructions: 930000133 cycles: 524979908 heartbeat IPC: 1.647 cumulative IPC: 1.771 (Simulation time: 01 hr 13 min 54 sec)
Heartbeat CPU 0 instructions: 940000133 cycles: 531021085 heartbeat IPC: 1.655 cumulative IPC: 1.77 (Simulation time: 01 hr 14 min 49 sec)
Heartbeat CPU 0 instructions: 950000133 cycles: 537030381 heartbeat IPC: 1.664 cumulative IPC: 1.769 (Simulation time: 01 hr 15 min 43 sec)
Heartbeat CPU 0 instructions: 960000134 cycles: 543036191 heartbeat IPC: 1.665 cumulative IPC: 1.768 (Simulation time: 01 hr 16 min 38 sec)
Heartbeat CPU 0 instructions: 970000137 cycles: 549167100 heartbeat IPC: 1.631 cumulative IPC: 1.766 (Simulation time: 01 hr 17 min 34 sec)
[ERROR_CYCLE] Error added at CPU cycle 553109137, next at 567427547, pending count: 1
[DRAM_CYCLE_ERROR] Cycle-based error applied! address=0x126e844e00 additional_latency=1990500 cycles
Heartbeat CPU 0 instructions: 980000138 cycles: 555326446 heartbeat IPC: 1.624 cumulative IPC: 1.765 (Simulation time: 01 hr 18 min 29 sec)
Heartbeat CPU 0 instructions: 990000139 cycles: 560480817 heartbeat IPC: 1.94 cumulative IPC: 1.766 (Simulation time: 01 hr 19 min 16 sec)
[ERROR_CYCLE] Error added at CPU cycle 567427547, next at 612939373, pending count: 1
[DRAM_CYCLE_ERROR] Cycle-based error applied! address=0x126e99d200 additional_latency=1990500 cycles
Heartbeat CPU 0 instructions: 1000000141 cycles: 567718571 heartbeat IPC: 1.382 cumulative IPC: 1.761 (Simulation time: 01 hr 20 min 13 sec)
Heartbeat CPU 0 instructions: 1010000142 cycles: 573255710 heartbeat IPC: 1.806 cumulative IPC: 1.762 (Simulation time: 01 hr 21 min 04 sec)
Heartbeat CPU 0 instructions: 1020000143 cycles: 579091369 heartbeat IPC: 1.714 cumulative IPC: 1.761 (Simulation time: 01 hr 21 min 59 sec)
Heartbeat CPU 0 instructions: 1030000147 cycles: 584616884 heartbeat IPC: 1.81 cumulative IPC: 1.762 (Simulation time: 01 hr 22 min 52 sec)
Heartbeat CPU 0 instructions: 1040000147 cycles: 589537913 heartbeat IPC: 2.032 cumulative IPC: 1.764 (Simulation time: 01 hr 23 min 34 sec)
Heartbeat CPU 0 instructions: 1050000147 cycles: 594477655 heartbeat IPC: 2.024 cumulative IPC: 1.766 (Simulation time: 01 hr 24 min 19 sec)
Heartbeat CPU 0 instructions: 1060000151 cycles: 599043094 heartbeat IPC: 2.19 cumulative IPC: 1.769 (Simulation time: 01 hr 24 min 57 sec)
Heartbeat CPU 0 instructions: 1070000151 cycles: 605346546 heartbeat IPC: 1.586 cumulative IPC: 1.768 (Simulation time: 01 hr 25 min 50 sec)
Heartbeat CPU 0 instructions: 1080000154 cycles: 609743306 heartbeat IPC: 2.274 cumulative IPC: 1.771 (Simulation time: 01 hr 26 min 24 sec)
[ERROR_CYCLE] Error added at CPU cycle 612939373, next at 681254883, pending count: 1
[DRAM_CYCLE_ERROR] Cycle-based error applied! address=0x126e99d340 additional_latency=1990500 cycles
Heartbeat CPU 0 instructions: 1090000154 cycles: 615442985 heartbeat IPC: 1.754 cumulative IPC: 1.771 (Simulation time: 01 hr 27 min 02 sec)
Heartbeat CPU 0 instructions: 1100000154 cycles: 621632665 heartbeat IPC: 1.616 cumulative IPC: 1.77 (Simulation time: 01 hr 27 min 48 sec)
Heartbeat CPU 0 instructions: 1110000154 cycles: 627682483 heartbeat IPC: 1.653 cumulative IPC: 1.768 (Simulation time: 01 hr 28 min 41 sec)
Heartbeat CPU 0 instructions: 1120000154 cycles: 633741733 heartbeat IPC: 1.65 cumulative IPC: 1.767 (Simulation time: 01 hr 29 min 35 sec)
Heartbeat CPU 0 instructions: 1130000154 cycles: 639826070 heartbeat IPC: 1.644 cumulative IPC: 1.766 (Simulation time: 01 hr 30 min 28 sec)
Heartbeat CPU 0 instructions: 1140000154 cycles: 645878363 heartbeat IPC: 1.652 cumulative IPC: 1.765 (Simulation time: 01 hr 31 min 08 sec)
Heartbeat CPU 0 instructions: 1150000156 cycles: 651938906 heartbeat IPC: 1.65 cumulative IPC: 1.764 (Simulation time: 01 hr 31 min 43 sec)
Heartbeat CPU 0 instructions: 1160000158 cycles: 658149528 heartbeat IPC: 1.61 cumulative IPC: 1.763 (Simulation time: 01 hr 32 min 28 sec)
Heartbeat CPU 0 instructions: 1170000162 cycles: 663123709 heartbeat IPC: 2.01 cumulative IPC: 1.764 (Simulation time: 01 hr 33 min 16 sec)
Heartbeat CPU 0 instructions: 1180000163 cycles: 670620426 heartbeat IPC: 1.334 cumulative IPC: 1.76 (Simulation time: 01 hr 34 min 09 sec)
Heartbeat CPU 0 instructions: 1190000166 cycles: 676619773 heartbeat IPC: 1.667 cumulative IPC: 1.759 (Simulation time: 01 hr 35 min 00 sec)
[ERROR_CYCLE] Error added at CPU cycle 681254883, next at 700827009, pending count: 1
[DRAM_CYCLE_ERROR] Cycle-based error applied! address=0x112c4ce9c0 additional_latency=1990500 cycles
Heartbeat CPU 0 instructions: 1200000166 cycles: 682456748 heartbeat IPC: 1.713 cumulative IPC: 1.758 (Simulation time: 01 hr 35 min 37 sec)
Heartbeat CPU 0 instructions: 1210000170 cycles: 687336363 heartbeat IPC: 2.049 cumulative IPC: 1.76 (Simulation time: 01 hr 36 min 16 sec)
Heartbeat CPU 0 instructions: 1220000171 cycles: 692573811 heartbeat IPC: 1.909 cumulative IPC: 1.762 (Simulation time: 01 hr 36 min 56 sec)
Heartbeat CPU 0 instructions: 1230000175 cycles: 698237920 heartbeat IPC: 1.766 cumulative IPC: 1.762 (Simulation time: 01 hr 37 min 40 sec)
[ERROR_CYCLE] Error added at CPU cycle 700827009, next at 842903644, pending count: 1
[DRAM_CYCLE_ERROR] Cycle-based error applied! address=0x19354eca80 additional_latency=1990500 cycles
Heartbeat CPU 0 instructions: 1240000175 cycles: 701532775 heartbeat IPC: 3.035 cumulative IPC: 1.768 (Simulation time: 01 hr 38 min 01 sec)
Heartbeat CPU 0 instructions: 1250000175 cycles: 708242067 heartbeat IPC: 1.49 cumulative IPC: 1.765 (Simulation time: 01 hr 38 min 46 sec)
Heartbeat CPU 0 instructions: 1260000176 cycles: 712828439 heartbeat IPC: 2.18 cumulative IPC: 1.768 (Simulation time: 01 hr 39 min 27 sec)
Heartbeat CPU 0 instructions: 1270000176 cycles: 718027802 heartbeat IPC: 1.923 cumulative IPC: 1.769 (Simulation time: 01 hr 40 min 14 sec)
Heartbeat CPU 0 instructions: 1280000177 cycles: 724271817 heartbeat IPC: 1.602 cumulative IPC: 1.767 (Simulation time: 01 hr 40 min 53 sec)
Heartbeat CPU 0 instructions: 1290000179 cycles: 730314643 heartbeat IPC: 1.655 cumulative IPC: 1.766 (Simulation time: 01 hr 41 min 30 sec)
Heartbeat CPU 0 instructions: 1300000180 cycles: 736378870 heartbeat IPC: 1.649 cumulative IPC: 1.765 (Simulation time: 01 hr 42 min 09 sec)
Heartbeat CPU 0 instructions: 1310000181 cycles: 742408472 heartbeat IPC: 1.658 cumulative IPC: 1.765 (Simulation time: 01 hr 42 min 49 sec)
Heartbeat CPU 0 instructions: 1320000182 cycles: 748408023 heartbeat IPC: 1.667 cumulative IPC: 1.764 (Simulation time: 01 hr 43 min 25 sec)
Heartbeat CPU 0 instructions: 1330000186 cycles: 754403498 heartbeat IPC: 1.668 cumulative IPC: 1.763 (Simulation time: 01 hr 44 min 20 sec)
Heartbeat CPU 0 instructions: 1340000186 cycles: 760635438 heartbeat IPC: 1.605 cumulative IPC: 1.762 (Simulation time: 01 hr 45 min 13 sec)
Heartbeat CPU 0 instructions: 1350000189 cycles: 766473720 heartbeat IPC: 1.713 cumulative IPC: 1.761 (Simulation time: 01 hr 45 min 56 sec)
Heartbeat CPU 0 instructions: 1360000193 cycles: 773185502 heartbeat IPC: 1.49 cumulative IPC: 1.759 (Simulation time: 01 hr 46 min 33 sec)
Heartbeat CPU 0 instructions: 1370000194 cycles: 779130143 heartbeat IPC: 1.682 cumulative IPC: 1.758 (Simulation time: 01 hr 47 min 05 sec)
Heartbeat CPU 0 instructions: 1380000194 cycles: 784867247 heartbeat IPC: 1.743 cumulative IPC: 1.758 (Simulation time: 01 hr 47 min 49 sec)
Heartbeat CPU 0 instructions: 1390000195 cycles: 790239052 heartbeat IPC: 1.862 cumulative IPC: 1.759 (Simulation time: 01 hr 48 min 30 sec)
Heartbeat CPU 0 instructions: 1400000197 cycles: 795567567 heartbeat IPC: 1.877 cumulative IPC: 1.76 (Simulation time: 01 hr 49 min 03 sec)
Heartbeat CPU 0 instructions: 1410000198 cycles: 800878282 heartbeat IPC: 1.883 cumulative IPC: 1.761 (Simulation time: 01 hr 49 min 35 sec)
Heartbeat CPU 0 instructions: 1420000201 cycles: 805088663 heartbeat IPC: 2.375 cumulative IPC: 1.764 (Simulation time: 01 hr 50 min 01 sec)
Heartbeat CPU 0 instructions: 1430000204 cycles: 811179296 heartbeat IPC: 1.642 cumulative IPC: 1.763 (Simulation time: 01 hr 50 min 33 sec)
Heartbeat CPU 0 instructions: 1440000207 cycles: 816334692 heartbeat IPC: 1.94 cumulative IPC: 1.764 (Simulation time: 01 hr 51 min 02 sec)
Heartbeat CPU 0 instructions: 1450000207 cycles: 821158911 heartbeat IPC: 2.073 cumulative IPC: 1.766 (Simulation time: 01 hr 51 min 30 sec)
Heartbeat CPU 0 instructions: 1460000210 cycles: 827337231 heartbeat IPC: 1.619 cumulative IPC: 1.765 (Simulation time: 01 hr 52 min 14 sec)
Heartbeat CPU 0 instructions: 1470000211 cycles: 833476751 heartbeat IPC: 1.629 cumulative IPC: 1.764 (Simulation time: 01 hr 53 min 10 sec)
Heartbeat CPU 0 instructions: 1480000215 cycles: 839644347 heartbeat IPC: 1.621 cumulative IPC: 1.763 (Simulation time: 01 hr 53 min 56 sec)
[ERROR_CYCLE] Error added at CPU cycle 842903644, next at 871385107, pending count: 1
[DRAM_CYCLE_ERROR] Cycle-based error applied! address=0x1e21b72c0 additional_latency=1990500 cycles
Heartbeat CPU 0 instructions: 1490000219 cycles: 845789223 heartbeat IPC: 1.627 cumulative IPC: 1.762 (Simulation time: 01 hr 54 min 37 sec)
Heartbeat CPU 0 instructions: 1500000219 cycles: 851883802 heartbeat IPC: 1.641 cumulative IPC: 1.761 (Simulation time: 01 hr 55 min 33 sec)
Heartbeat CPU 0 instructions: 1510000219 cycles: 858038872 heartbeat IPC: 1.625 cumulative IPC: 1.76 (Simulation time: 01 hr 56 min 23 sec)
Heartbeat CPU 0 instructions: 1520000222 cycles: 864304036 heartbeat IPC: 1.596 cumulative IPC: 1.759 (Simulation time: 01 hr 57 min 03 sec)
Heartbeat CPU 0 instructions: 1530000222 cycles: 870542225 heartbeat IPC: 1.603 cumulative IPC: 1.758 (Simulation time: 01 hr 57 min 53 sec)
[ERROR_CYCLE] Error added at CPU cycle 871385107, next at 907191996, pending count: 1
[DRAM_CYCLE_ERROR] Cycle-based error applied! address=0xabcc73082 additional_latency=1990500 cycles
Heartbeat CPU 0 instructions: 1540000224 cycles: 875733270 heartbeat IPC: 1.926 cumulative IPC: 1.759 (Simulation time: 01 hr 58 min 28 sec)
Heartbeat CPU 0 instructions: 1550000224 cycles: 882648298 heartbeat IPC: 1.446 cumulative IPC: 1.756 (Simulation time: 01 hr 59 min 09 sec)
Heartbeat CPU 0 instructions: 1560000225 cycles: 888477645 heartbeat IPC: 1.715 cumulative IPC: 1.756 (Simulation time: 02 hr 00 min 01 sec)
Heartbeat CPU 0 instructions: 1570000229 cycles: 894399400 heartbeat IPC: 1.689 cumulative IPC: 1.755 (Simulation time: 02 hr 00 min 55 sec)
Heartbeat CPU 0 instructions: 1580000230 cycles: 899994993 heartbeat IPC: 1.787 cumulative IPC: 1.756 (Simulation time: 02 hr 01 min 48 sec)
Heartbeat CPU 0 instructions: 1590000234 cycles: 904705831 heartbeat IPC: 2.123 cumulative IPC: 1.757 (Simulation time: 02 hr 02 min 21 sec)
[ERROR_CYCLE] Error added at CPU cycle 907191996, next at 1070014685, pending count: 1
[DRAM_CYCLE_ERROR] Cycle-based error applied! address=0x1ee4e3db08 additional_latency=1990500 cycles
Heartbeat CPU 0 instructions: 1600000234 cycles: 909926908 heartbeat IPC: 1.915 cumulative IPC: 1.758 (Simulation time: 02 hr 02 min 55 sec)
Heartbeat CPU 0 instructions: 1610000238 cycles: 913973965 heartbeat IPC: 2.471 cumulative IPC: 1.762 (Simulation time: 02 hr 03 min 18 sec)
Heartbeat CPU 0 instructions: 1620000240 cycles: 920332731 heartbeat IPC: 1.573 cumulative IPC: 1.76 (Simulation time: 02 hr 04 min 08 sec)
Heartbeat CPU 0 instructions: 1630000242 cycles: 924951028 heartbeat IPC: 2.165 cumulative IPC: 1.762 (Simulation time: 02 hr 04 min 49 sec)
Heartbeat CPU 0 instructions: 1640000244 cycles: 930392856 heartbeat IPC: 1.838 cumulative IPC: 1.763 (Simulation time: 02 hr 05 min 37 sec)
Heartbeat CPU 0 instructions: 1650000245 cycles: 936812322 heartbeat IPC: 1.558 cumulative IPC: 1.761 (Simulation time: 02 hr 06 min 35 sec)
Heartbeat CPU 0 instructions: 1660000248 cycles: 942923192 heartbeat IPC: 1.636 cumulative IPC: 1.76 (Simulation time: 02 hr 07 min 31 sec)
Heartbeat CPU 0 instructions: 1670000249 cycles: 949029327 heartbeat IPC: 1.638 cumulative IPC: 1.76 (Simulation time: 02 hr 08 min 27 sec)
Heartbeat CPU 0 instructions: 1680000252 cycles: 955151583 heartbeat IPC: 1.633 cumulative IPC: 1.759 (Simulation time: 02 hr 09 min 22 sec)
Heartbeat CPU 0 instructions: 1690000256 cycles: 961284675 heartbeat IPC: 1.63 cumulative IPC: 1.758 (Simulation time: 02 hr 10 min 17 sec)
Heartbeat CPU 0 instructions: 1700000257 cycles: 967420701 heartbeat IPC: 1.63 cumulative IPC: 1.757 (Simulation time: 02 hr 10 min 56 sec)
Heartbeat CPU 0 instructions: 1710000257 cycles: 973732068 heartbeat IPC: 1.584 cumulative IPC: 1.756 (Simulation time: 02 hr 11 min 36 sec)
Heartbeat CPU 0 instructions: 1720000257 cycles: 978920489 heartbeat IPC: 1.927 cumulative IPC: 1.757 (Simulation time: 02 hr 12 min 07 sec)
Heartbeat CPU 0 instructions: 1730000258 cycles: 986268666 heartbeat IPC: 1.361 cumulative IPC: 1.754 (Simulation time: 02 hr 12 min 52 sec)
Heartbeat CPU 0 instructions: 1740000260 cycles: 992170377 heartbeat IPC: 1.694 cumulative IPC: 1.754 (Simulation time: 02 hr 13 min 27 sec)
Heartbeat CPU 0 instructions: 1750000260 cycles: 998129605 heartbeat IPC: 1.678 cumulative IPC: 1.753 (Simulation time: 02 hr 14 min 22 sec)
Heartbeat CPU 0 instructions: 1760000262 cycles: 1003369189 heartbeat IPC: 1.909 cumulative IPC: 1.754 (Simulation time: 02 hr 15 min 13 sec)
Heartbeat CPU 0 instructions: 1770000266 cycles: 1008474806 heartbeat IPC: 1.959 cumulative IPC: 1.755 (Simulation time: 02 hr 15 min 57 sec)
Heartbeat CPU 0 instructions: 1780000268 cycles: 1014119382 heartbeat IPC: 1.772 cumulative IPC: 1.755 (Simulation time: 02 hr 16 min 46 sec)
Heartbeat CPU 0 instructions: 1790000271 cycles: 1017330652 heartbeat IPC: 3.114 cumulative IPC: 1.76 (Simulation time: 02 hr 17 min 16 sec)
Heartbeat CPU 0 instructions: 1800000272 cycles: 1024262852 heartbeat IPC: 1.443 cumulative IPC: 1.757 (Simulation time: 02 hr 18 min 08 sec)
Heartbeat CPU 0 instructions: 1810000276 cycles: 1028816996 heartbeat IPC: 2.196 cumulative IPC: 1.759 (Simulation time: 02 hr 18 min 49 sec)
Heartbeat CPU 0 instructions: 1820000279 cycles: 1034220963 heartbeat IPC: 1.85 cumulative IPC: 1.76 (Simulation time: 02 hr 19 min 35 sec)
Heartbeat CPU 0 instructions: 1830000279 cycles: 1040701645 heartbeat IPC: 1.543 cumulative IPC: 1.758 (Simulation time: 02 hr 20 min 32 sec)
Heartbeat CPU 0 instructions: 1840000280 cycles: 1046936430 heartbeat IPC: 1.604 cumulative IPC: 1.758 (Simulation time: 02 hr 21 min 27 sec)
Heartbeat CPU 0 instructions: 1850000284 cycles: 1053126167 heartbeat IPC: 1.616 cumulative IPC: 1.757 (Simulation time: 02 hr 22 min 22 sec)
Heartbeat CPU 0 instructions: 1860000284 cycles: 1059343522 heartbeat IPC: 1.608 cumulative IPC: 1.756 (Simulation time: 02 hr 23 min 17 sec)
Heartbeat CPU 0 instructions: 1870000285 cycles: 1065595495 heartbeat IPC: 1.599 cumulative IPC: 1.755 (Simulation time: 02 hr 24 min 12 sec)
[ERROR_CYCLE] Error added at CPU cycle 1070014686, next at 1070994884, pending count: 1
[DRAM_CYCLE_ERROR] Cycle-based error applied! address=0x143675a380 additional_latency=1990500 cycles
[ERROR_CYCLE] Error added at CPU cycle 1070994885, next at 1160990919, pending count: 1
[DRAM_CYCLE_ERROR] Cycle-based error applied! address=0xc66393a40 additional_latency=1990500 cycles
Heartbeat CPU 0 instructions: 1880000285 cycles: 1071859392 heartbeat IPC: 1.596 cumulative IPC: 1.754 (Simulation time: 02 hr 25 min 08 sec)
Heartbeat CPU 0 instructions: 1890000287 cycles: 1078225373 heartbeat IPC: 1.571 cumulative IPC: 1.753 (Simulation time: 02 hr 26 min 03 sec)
Heartbeat CPU 0 instructions: 1900000288 cycles: 1083908733 heartbeat IPC: 1.76 cumulative IPC: 1.753 (Simulation time: 02 hr 26 min 54 sec)
Heartbeat CPU 0 instructions: 1910000292 cycles: 1090990100 heartbeat IPC: 1.412 cumulative IPC: 1.751 (Simulation time: 02 hr 27 min 51 sec)
Heartbeat CPU 0 instructions: 1920000295 cycles: 1096652515 heartbeat IPC: 1.766 cumulative IPC: 1.751 (Simulation time: 02 hr 28 min 40 sec)
Heartbeat CPU 0 instructions: 1930000299 cycles: 1101875731 heartbeat IPC: 1.915 cumulative IPC: 1.752 (Simulation time: 02 hr 29 min 28 sec)
Heartbeat CPU 0 instructions: 1940000299 cycles: 1108089240 heartbeat IPC: 1.609 cumulative IPC: 1.751 (Simulation time: 02 hr 30 min 24 sec)
Heartbeat CPU 0 instructions: 1950000299 cycles: 1113659949 heartbeat IPC: 1.795 cumulative IPC: 1.751 (Simulation time: 02 hr 31 min 16 sec)
Heartbeat CPU 0 instructions: 1960000301 cycles: 1118605389 heartbeat IPC: 2.022 cumulative IPC: 1.752 (Simulation time: 02 hr 31 min 58 sec)
Heartbeat CPU 0 instructions: 1970000302 cycles: 1123284480 heartbeat IPC: 2.137 cumulative IPC: 1.754 (Simulation time: 02 hr 32 min 41 sec)
Heartbeat CPU 0 instructions: 1980000306 cycles: 1128153702 heartbeat IPC: 2.054 cumulative IPC: 1.755 (Simulation time: 02 hr 33 min 20 sec)
Heartbeat CPU 0 instructions: 1990000307 cycles: 1134129902 heartbeat IPC: 1.673 cumulative IPC: 1.755 (Simulation time: 02 hr 34 min 09 sec)

=== ERROR PAGE STATISTICS ===
Mode: CYCLE
Error Cycle Interval: 80000000 CPU cycles
Total Error Accesses: 15
==============================
Simulation finished CPU 0 instructions: 1999999926 cycles: 1138681691 cumulative IPC: 1.756 (Simulation time: 02 hr 34 min 49 sec)
Simulation complete CPU 0 instructions: 1999999926 cycles: 1138681691 cumulative IPC: 1.756 (Simulation time: 02 hr 34 min 49 sec)

ChampSim completed all CPUs

=== Simulation ===
CPU 0 runs test_traces/628.pop2_s-17B.champsimtrace.xz

Region of Interest Statistics

CPU 0 cumulative IPC: 1.756 instructions: 1999999926 cycles: 1138681691
CPU 0 Branch Prediction Accuracy: 97.16% MPKI: 4.393 Average ROB Occupancy at Mispredict: 77.17
Branch type MPKI
BRANCH_DIRECT_JUMP: 0.02883
BRANCH_INDIRECT: 0.0006925
BRANCH_CONDITIONAL: 4.321
BRANCH_DIRECT_CALL: 0.0002875
BRANCH_INDIRECT_CALL: 0
BRANCH_RETURN: 0.04196

cpu0->cpu0_STLB TOTAL        ACCESS:      38565 HIT:      38334 MISS:        231 MSHR_MERGE:          0
cpu0->cpu0_STLB LOAD         ACCESS:      38565 HIT:      38334 MISS:        231 MSHR_MERGE:          0
cpu0->cpu0_STLB RFO          ACCESS:          0 HIT:          0 MISS:          0 MSHR_MERGE:          0
cpu0->cpu0_STLB PREFETCH     ACCESS:          0 HIT:          0 MISS:          0 MSHR_MERGE:          0
cpu0->cpu0_STLB WRITE        ACCESS:          0 HIT:          0 MISS:          0 MSHR_MERGE:          0
cpu0->cpu0_STLB TRANSLATION  ACCESS:          0 HIT:          0 MISS:          0 MSHR_MERGE:          0
cpu0->cpu0_STLB PREFETCH REQUESTED:          0 ISSUED:          0 USEFUL:          0 USELESS:          0
cpu0->cpu0_STLB AVERAGE MISS LATENCY: 8805 cycles
cpu0->cpu0_L2C TOTAL        ACCESS:   43523227 HIT:   30817834 MISS:   12705393 MSHR_MERGE:          0
cpu0->cpu0_L2C LOAD         ACCESS:   20308477 HIT:   11673084 MISS:    8635393 MSHR_MERGE:          0
cpu0->cpu0_L2C RFO          ACCESS:    9924979 HIT:    5862162 MISS:    4062817 MSHR_MERGE:          0
cpu0->cpu0_L2C PREFETCH     ACCESS:          0 HIT:          0 MISS:          0 MSHR_MERGE:          0
cpu0->cpu0_L2C WRITE        ACCESS:   13289771 HIT:   13282588 MISS:       7183 MSHR_MERGE:          0
cpu0->cpu0_L2C TRANSLATION  ACCESS:          0 HIT:          0 MISS:          0 MSHR_MERGE:          0
cpu0->cpu0_L2C PREFETCH REQUESTED:          0 ISSUED:          0 USEFUL:          0 USELESS:          0
cpu0->cpu0_L2C AVERAGE MISS LATENCY: 78.45 cycles
cpu0->cpu0_L1I TOTAL        ACCESS:  103645889 HIT:  101697515 MISS:    1948374 MSHR_MERGE:     957827
cpu0->cpu0_L1I LOAD         ACCESS:  103645889 HIT:  101697515 MISS:    1948374 MSHR_MERGE:     957827
cpu0->cpu0_L1I RFO          ACCESS:          0 HIT:          0 MISS:          0 MSHR_MERGE:          0
cpu0->cpu0_L1I PREFETCH     ACCESS:          0 HIT:          0 MISS:          0 MSHR_MERGE:          0
cpu0->cpu0_L1I WRITE        ACCESS:          0 HIT:          0 MISS:          0 MSHR_MERGE:          0
cpu0->cpu0_L1I TRANSLATION  ACCESS:          0 HIT:          0 MISS:          0 MSHR_MERGE:          0
cpu0->cpu0_L1I PREFETCH REQUESTED:          0 ISSUED:          0 USEFUL:          0 USELESS:          0
cpu0->cpu0_L1I AVERAGE MISS LATENCY: 27.71 cycles
cpu0->cpu0_L1D TOTAL        ACCESS:  498662830 HIT:  423827718 MISS:   74835112 MSHR_MERGE:   45591870
cpu0->cpu0_L1D LOAD         ACCESS:  364500525 HIT:  324467553 MISS:   40032972 MSHR_MERGE:   20714889
cpu0->cpu0_L1D RFO          ACCESS:          0 HIT:          0 MISS:          0 MSHR_MERGE:          0
cpu0->cpu0_L1D PREFETCH     ACCESS:          0 HIT:          0 MISS:          0 MSHR_MERGE:          0
cpu0->cpu0_L1D WRITE        ACCESS:  134162305 HIT:   99360165 MISS:   34802140 MSHR_MERGE:   24876981
cpu0->cpu0_L1D TRANSLATION  ACCESS:          0 HIT:          0 MISS:          0 MSHR_MERGE:          0
cpu0->cpu0_L1D PREFETCH REQUESTED:          0 ISSUED:          0 USEFUL:          0 USELESS:          0
cpu0->cpu0_L1D AVERAGE MISS LATENCY: 41.95 cycles
cpu0->cpu0_ITLB TOTAL        ACCESS:   86590094 HIT:   86590089 MISS:          5 MSHR_MERGE:          2
cpu0->cpu0_ITLB LOAD         ACCESS:   86590094 HIT:   86590089 MISS:          5 MSHR_MERGE:          2
cpu0->cpu0_ITLB RFO          ACCESS:          0 HIT:          0 MISS:          0 MSHR_MERGE:          0
cpu0->cpu0_ITLB PREFETCH     ACCESS:          0 HIT:          0 MISS:          0 MSHR_MERGE:          0
cpu0->cpu0_ITLB WRITE        ACCESS:          0 HIT:          0 MISS:          0 MSHR_MERGE:          0
cpu0->cpu0_ITLB TRANSLATION  ACCESS:          0 HIT:          0 MISS:          0 MSHR_MERGE:          0
cpu0->cpu0_ITLB PREFETCH REQUESTED:          0 ISSUED:          0 USEFUL:          0 USELESS:          0
cpu0->cpu0_ITLB AVERAGE MISS LATENCY: 1.15e+04 cycles
cpu0->cpu0_DTLB TOTAL        ACCESS:  432241648 HIT:  432150650 MISS:      90998 MSHR_MERGE:      52436
cpu0->cpu0_DTLB LOAD         ACCESS:  432241648 HIT:  432150650 MISS:      90998 MSHR_MERGE:      52436
cpu0->cpu0_DTLB RFO          ACCESS:          0 HIT:          0 MISS:          0 MSHR_MERGE:          0
cpu0->cpu0_DTLB PREFETCH     ACCESS:          0 HIT:          0 MISS:          0 MSHR_MERGE:          0
cpu0->cpu0_DTLB WRITE        ACCESS:          0 HIT:          0 MISS:          0 MSHR_MERGE:          0
cpu0->cpu0_DTLB TRANSLATION  ACCESS:          0 HIT:          0 MISS:          0 MSHR_MERGE:          0
cpu0->cpu0_DTLB PREFETCH REQUESTED:          0 ISSUED:          0 USEFUL:          0 USELESS:          0
cpu0->cpu0_DTLB AVERAGE MISS LATENCY: 56.86 cycles
cpu0->LLC TOTAL        ACCESS:   18541820 HIT:   11400271 MISS:    7141549 MSHR_MERGE:          0
cpu0->LLC LOAD         ACCESS:    8635393 HIT:    4231021 MISS:    4404372 MSHR_MERGE:          0
cpu0->LLC RFO          ACCESS:    4062817 HIT:    1383805 MISS:    2679012 MSHR_MERGE:          0
cpu0->LLC PREFETCH     ACCESS:          0 HIT:          0 MISS:          0 MSHR_MERGE:          0
cpu0->LLC WRITE        ACCESS:    5843610 HIT:    5785445 MISS:      58165 MSHR_MERGE:          0
cpu0->LLC TRANSLATION  ACCESS:          0 HIT:          0 MISS:          0 MSHR_MERGE:          0
cpu0->LLC PREFETCH REQUESTED:          0 ISSUED:          0 USEFUL:          0 USELESS:          0
cpu0->LLC AVERAGE MISS LATENCY: 111.9 cycles

DRAM Statistics

Channel 0 RQ ROW_BUFFER_HIT:     328568
  ROW_BUFFER_MISS:    3214177
  AVG DBUS CONGESTED CYCLE: 10.79
Channel 0 WQ ROW_BUFFER_HIT:     365562
  ROW_BUFFER_MISS:    1435409
  FULL:        501
Channel 0 REFRESHES ISSUED:      94884

Channel 1 RQ ROW_BUFFER_HIT:     327696
  ROW_BUFFER_MISS:    3213325
  AVG DBUS CONGESTED CYCLE: 10.78
Channel 1 WQ ROW_BUFFER_HIT:     364565
  ROW_BUFFER_MISS:    1436070
  FULL:        890
Channel 1 REFRESHES ISSUED:      94884
