[VMEM] WARNING: physical memory size is smaller than virtual memory size.

*** ChampSim Multicore Out-of-Order Simulator ***
Warmup Instructions: 0
Simulation Instructions: 9223372036854775807
Number of CPUs: 1
Page size: 4096

Off-chip DRAM Size: 64 GiB Channels: 2 Width: 32-bit Data Rate: 4807 MT/s
[ERROR_PAGE_MANAGER] Error latency: 173500 
[ERROR_PAGE_MANAGER] Random seed: 54321 (fixed for preload reproducibility)
[ERROR_PAGE_MANAGER] Cycle-based error modeling enabled
[ERROR_PAGE_MANAGER] Errors per interval: 1
[ERROR_PAGE_MANAGER] Error cycle interval: 100000000 cycles

=== ERROR PAGE STATISTICS ===
Mode: CYCLE
Error Cycle Interval: 100000000 CPU cycles
Total Error Accesses: 0
==============================
Warmup finished CPU 0 instructions: 0 cycles: 1 cumulative IPC: 0 (Simulation time: 00 hr 00 min 01 sec)
Warmup complete CPU 0 instructions: 0 cycles: 1 cumulative IPC: 0 (Simulation time: 00 hr 00 min 01 sec)
Heartbeat CPU 0 instructions: 10000002 cycles: 29553358 heartbeat IPC: 0.3384 cumulative IPC: 0.3384 (Simulation time: 00 hr 02 min 27 sec)
Heartbeat CPU 0 instructions: 20000002 cycles: 59027230 heartbeat IPC: 0.3393 cumulative IPC: 0.3388 (Simulation time: 00 hr 05 min 12 sec)
[ERROR_CYCLE] Error added at CPU cycle 71278057, next at 91533063, pending count: 1
[DRAM_CYCLE_ERROR] Cycle-based error applied! address=0x3c5468158 additional_latency=173500 cycles
Heartbeat CPU 0 instructions: 30000004 cycles: 88498636 heartbeat IPC: 0.3393 cumulative IPC: 0.339 (Simulation time: 00 hr 07 min 36 sec)
[ERROR_CYCLE] Error added at CPU cycle 91533064, next at 256960641, pending count: 1
[DRAM_CYCLE_ERROR] Cycle-based error applied! address=0x6bedc90d0 additional_latency=173500 cycles
Heartbeat CPU 0 instructions: 40000005 cycles: 118001919 heartbeat IPC: 0.3389 cumulative IPC: 0.339 (Simulation time: 00 hr 10 min 33 sec)
Heartbeat CPU 0 instructions: 50000009 cycles: 147420854 heartbeat IPC: 0.3399 cumulative IPC: 0.3392 (Simulation time: 00 hr 13 min 18 sec)
Heartbeat CPU 0 instructions: 60000012 cycles: 176862983 heartbeat IPC: 0.3396 cumulative IPC: 0.3392 (Simulation time: 00 hr 16 min 00 sec)
Heartbeat CPU 0 instructions: 70000012 cycles: 206298290 heartbeat IPC: 0.3397 cumulative IPC: 0.3393 (Simulation time: 00 hr 18 min 55 sec)
Heartbeat CPU 0 instructions: 80000016 cycles: 235740671 heartbeat IPC: 0.3396 cumulative IPC: 0.3394 (Simulation time: 00 hr 21 min 50 sec)
[ERROR_CYCLE] Error added at CPU cycle 256960642, next at 534676898, pending count: 1
[DRAM_CYCLE_ERROR] Cycle-based error applied! address=0xec2839888 additional_latency=173500 cycles
Heartbeat CPU 0 instructions: 90000018 cycles: 265184389 heartbeat IPC: 0.3396 cumulative IPC: 0.3394 (Simulation time: 00 hr 24 min 45 sec)
Heartbeat CPU 0 instructions: 100000020 cycles: 294611570 heartbeat IPC: 0.3398 cumulative IPC: 0.3394 (Simulation time: 00 hr 27 min 41 sec)
Heartbeat CPU 0 instructions: 110000020 cycles: 324120839 heartbeat IPC: 0.3389 cumulative IPC: 0.3394 (Simulation time: 00 hr 30 min 37 sec)
Heartbeat CPU 0 instructions: 120000024 cycles: 353639784 heartbeat IPC: 0.3388 cumulative IPC: 0.3393 (Simulation time: 00 hr 33 min 32 sec)
Heartbeat CPU 0 instructions: 130000024 cycles: 383135446 heartbeat IPC: 0.339 cumulative IPC: 0.3393 (Simulation time: 00 hr 36 min 03 sec)
Heartbeat CPU 0 instructions: 140000027 cycles: 412546023 heartbeat IPC: 0.34 cumulative IPC: 0.3394 (Simulation time: 00 hr 38 min 58 sec)
Heartbeat CPU 0 instructions: 150000029 cycles: 441942815 heartbeat IPC: 0.3402 cumulative IPC: 0.3394 (Simulation time: 00 hr 41 min 52 sec)
Heartbeat CPU 0 instructions: 160000031 cycles: 471422558 heartbeat IPC: 0.3392 cumulative IPC: 0.3394 (Simulation time: 00 hr 44 min 47 sec)
Heartbeat CPU 0 instructions: 170000034 cycles: 500922843 heartbeat IPC: 0.339 cumulative IPC: 0.3394 (Simulation time: 00 hr 47 min 22 sec)
Heartbeat CPU 0 instructions: 180000036 cycles: 530353081 heartbeat IPC: 0.3398 cumulative IPC: 0.3394 (Simulation time: 00 hr 49 min 40 sec)
[ERROR_CYCLE] Error added at CPU cycle 534676899, next at 537682250, pending count: 1
[DRAM_CYCLE_ERROR] Cycle-based error applied! address=0x761c3d460 additional_latency=173500 cycles
[ERROR_CYCLE] Error added at CPU cycle 537682251, next at 691386421, pending count: 1
[DRAM_CYCLE_ERROR] Cycle-based error applied! address=0x3bb9be908 additional_latency=173500 cycles
Heartbeat CPU 0 instructions: 190000039 cycles: 559910074 heartbeat IPC: 0.3383 cumulative IPC: 0.3393 (Simulation time: 00 hr 52 min 00 sec)
Heartbeat CPU 0 instructions: 200000040 cycles: 589287630 heartbeat IPC: 0.3404 cumulative IPC: 0.3394 (Simulation time: 00 hr 54 min 49 sec)
Heartbeat CPU 0 instructions: 210000042 cycles: 618767852 heartbeat IPC: 0.3392 cumulative IPC: 0.3394 (Simulation time: 00 hr 57 min 45 sec)
Heartbeat CPU 0 instructions: 220000045 cycles: 648306442 heartbeat IPC: 0.3385 cumulative IPC: 0.3393 (Simulation time: 01 hr 00 min 41 sec)
Heartbeat CPU 0 instructions: 230000046 cycles: 677790211 heartbeat IPC: 0.3392 cumulative IPC: 0.3393 (Simulation time: 01 hr 02 min 57 sec)
[ERROR_CYCLE] Error added at CPU cycle 691386422, next at 709284434, pending count: 1
[DRAM_CYCLE_ERROR] Cycle-based error applied! address=0x844abaa00 additional_latency=173500 cycles
Heartbeat CPU 0 instructions: 240000047 cycles: 707280523 heartbeat IPC: 0.3391 cumulative IPC: 0.3393 (Simulation time: 01 hr 05 min 26 sec)
[ERROR_CYCLE] Error added at CPU cycle 709284434, next at 766174217, pending count: 1
[DRAM_CYCLE_ERROR] Cycle-based error applied! address=0xc05715208 additional_latency=173500 cycles
Heartbeat CPU 0 instructions: 250000047 cycles: 736812781 heartbeat IPC: 0.3386 cumulative IPC: 0.3393 (Simulation time: 01 hr 07 min 36 sec)
[ERROR_CYCLE] Error added at CPU cycle 766174218, next at 851568605, pending count: 1
[DRAM_CYCLE_ERROR] Cycle-based error applied! address=0x2a2a64450 additional_latency=173500 cycles
Heartbeat CPU 0 instructions: 260000051 cycles: 766352229 heartbeat IPC: 0.3385 cumulative IPC: 0.3393 (Simulation time: 01 hr 10 min 18 sec)
Heartbeat CPU 0 instructions: 270000051 cycles: 795870624 heartbeat IPC: 0.3388 cumulative IPC: 0.3393 (Simulation time: 01 hr 13 min 11 sec)
Heartbeat CPU 0 instructions: 280000052 cycles: 825343883 heartbeat IPC: 0.3393 cumulative IPC: 0.3393 (Simulation time: 01 hr 16 min 03 sec)
[ERROR_CYCLE] Error added at CPU cycle 851568605, next at 876033762, pending count: 1
[DRAM_CYCLE_ERROR] Cycle-based error applied! address=0xe7c5507e0 additional_latency=173500 cycles
Heartbeat CPU 0 instructions: 290000052 cycles: 854781052 heartbeat IPC: 0.3397 cumulative IPC: 0.3393 (Simulation time: 01 hr 18 min 52 sec)
[ERROR_CYCLE] Error added at CPU cycle 876033763, next at 1053629556, pending count: 1
[DRAM_CYCLE_ERROR] Cycle-based error applied! address=0xe49215190 additional_latency=173500 cycles
Heartbeat CPU 0 instructions: 300000056 cycles: 884211934 heartbeat IPC: 0.3398 cumulative IPC: 0.3393 (Simulation time: 01 hr 21 min 25 sec)
Heartbeat CPU 0 instructions: 310000056 cycles: 913680906 heartbeat IPC: 0.3393 cumulative IPC: 0.3393 (Simulation time: 01 hr 23 min 56 sec)
Heartbeat CPU 0 instructions: 320000059 cycles: 943192856 heartbeat IPC: 0.3388 cumulative IPC: 0.3393 (Simulation time: 01 hr 26 min 54 sec)
Heartbeat CPU 0 instructions: 330000059 cycles: 972674982 heartbeat IPC: 0.3392 cumulative IPC: 0.3393 (Simulation time: 01 hr 29 min 31 sec)
Heartbeat CPU 0 instructions: 340000061 cycles: 1002095115 heartbeat IPC: 0.3399 cumulative IPC: 0.3393 (Simulation time: 01 hr 32 min 11 sec)
Heartbeat CPU 0 instructions: 350000063 cycles: 1031506195 heartbeat IPC: 0.34 cumulative IPC: 0.3393 (Simulation time: 01 hr 35 min 08 sec)
[ERROR_CYCLE] Error added at CPU cycle 1053629556, next at 1089231385, pending count: 1
[DRAM_CYCLE_ERROR] Cycle-based error applied! address=0x8bd81eb00 additional_latency=173500 cycles
Heartbeat CPU 0 instructions: 360000064 cycles: 1060934269 heartbeat IPC: 0.3398 cumulative IPC: 0.3393 (Simulation time: 01 hr 37 min 56 sec)
[ERROR_CYCLE] Error added at CPU cycle 1089231385, next at 1133989996, pending count: 1
[DRAM_CYCLE_ERROR] Cycle-based error applied! address=0xb4a82a9c0 additional_latency=173500 cycles
Heartbeat CPU 0 instructions: 370000067 cycles: 1090361743 heartbeat IPC: 0.3398 cumulative IPC: 0.3393 (Simulation time: 01 hr 40 min 54 sec)
Heartbeat CPU 0 instructions: 380000068 cycles: 1119896258 heartbeat IPC: 0.3386 cumulative IPC: 0.3393 (Simulation time: 01 hr 43 min 21 sec)
[ERROR_CYCLE] Error added at CPU cycle 1133989996, next at 1337518358, pending count: 1
[DRAM_CYCLE_ERROR] Cycle-based error applied! address=0xa96631700 additional_latency=173500 cycles
Heartbeat CPU 0 instructions: 390000071 cycles: 1149441906 heartbeat IPC: 0.3385 cumulative IPC: 0.3393 (Simulation time: 01 hr 46 min 01 sec)
Heartbeat CPU 0 instructions: 400000074 cycles: 1178948571 heartbeat IPC: 0.3389 cumulative IPC: 0.3393 (Simulation time: 01 hr 48 min 49 sec)
Heartbeat CPU 0 instructions: 410000076 cycles: 1208440652 heartbeat IPC: 0.3391 cumulative IPC: 0.3393 (Simulation time: 01 hr 51 min 06 sec)
Heartbeat CPU 0 instructions: 420000076 cycles: 1237957707 heartbeat IPC: 0.3388 cumulative IPC: 0.3393 (Simulation time: 01 hr 53 min 59 sec)
Heartbeat CPU 0 instructions: 430000076 cycles: 1267480829 heartbeat IPC: 0.3387 cumulative IPC: 0.3393 (Simulation time: 01 hr 56 min 29 sec)
Heartbeat CPU 0 instructions: 440000080 cycles: 1296969121 heartbeat IPC: 0.3391 cumulative IPC: 0.3393 (Simulation time: 01 hr 58 min 44 sec)
Heartbeat CPU 0 instructions: 450000081 cycles: 1326435018 heartbeat IPC: 0.3394 cumulative IPC: 0.3393 (Simulation time: 02 hr 01 min 13 sec)
[ERROR_CYCLE] Error added at CPU cycle 1337518359, next at 1338743607, pending count: 1
[DRAM_CYCLE_ERROR] Cycle-based error applied! address=0x929a65688 additional_latency=173500 cycles
[ERROR_CYCLE] Error added at CPU cycle 1338743607, next at 1451238650, pending count: 1
[DRAM_CYCLE_ERROR] Cycle-based error applied! address=0xabbd4bf98 additional_latency=173500 cycles
Heartbeat CPU 0 instructions: 460000083 cycles: 1355843927 heartbeat IPC: 0.34 cumulative IPC: 0.3393 (Simulation time: 02 hr 03 min 39 sec)
Heartbeat CPU 0 instructions: 470000085 cycles: 1385175354 heartbeat IPC: 0.3409 cumulative IPC: 0.3393 (Simulation time: 02 hr 06 min 27 sec)
Heartbeat CPU 0 instructions: 480000086 cycles: 1414549061 heartbeat IPC: 0.3404 cumulative IPC: 0.3393 (Simulation time: 02 hr 09 min 00 sec)
Heartbeat CPU 0 instructions: 490000086 cycles: 1443894062 heartbeat IPC: 0.3408 cumulative IPC: 0.3394 (Simulation time: 02 hr 11 min 42 sec)
[ERROR_CYCLE] Error added at CPU cycle 1451238650, next at 1516871150, pending count: 1
[DRAM_CYCLE_ERROR] Cycle-based error applied! address=0xbacb2b5c0 additional_latency=173500 cycles
Heartbeat CPU 0 instructions: 500000086 cycles: 1473365304 heartbeat IPC: 0.3393 cumulative IPC: 0.3394 (Simulation time: 02 hr 14 min 26 sec)
Heartbeat CPU 0 instructions: 510000087 cycles: 1502801244 heartbeat IPC: 0.3397 cumulative IPC: 0.3394 (Simulation time: 02 hr 17 min 18 sec)
[ERROR_CYCLE] Error added at CPU cycle 1516871150, next at 1895264846, pending count: 1
[DRAM_CYCLE_ERROR] Cycle-based error applied! address=0x28128b390 additional_latency=173500 cycles
Heartbeat CPU 0 instructions: 520000087 cycles: 1532131742 heartbeat IPC: 0.3409 cumulative IPC: 0.3394 (Simulation time: 02 hr 20 min 14 sec)
Heartbeat CPU 0 instructions: 530000091 cycles: 1561502612 heartbeat IPC: 0.3405 cumulative IPC: 0.3394 (Simulation time: 02 hr 23 min 10 sec)
Heartbeat CPU 0 instructions: 540000093 cycles: 1591051959 heartbeat IPC: 0.3384 cumulative IPC: 0.3394 (Simulation time: 02 hr 26 min 06 sec)
Heartbeat CPU 0 instructions: 550000093 cycles: 1620550361 heartbeat IPC: 0.339 cumulative IPC: 0.3394 (Simulation time: 02 hr 28 min 17 sec)
Heartbeat CPU 0 instructions: 560000095 cycles: 1650049014 heartbeat IPC: 0.339 cumulative IPC: 0.3394 (Simulation time: 02 hr 30 min 49 sec)
Heartbeat CPU 0 instructions: 570000095 cycles: 1679473597 heartbeat IPC: 0.3399 cumulative IPC: 0.3394 (Simulation time: 02 hr 33 min 47 sec)
Heartbeat CPU 0 instructions: 580000099 cycles: 1708917987 heartbeat IPC: 0.3396 cumulative IPC: 0.3394 (Simulation time: 02 hr 36 min 44 sec)
Heartbeat CPU 0 instructions: 590000102 cycles: 1738366601 heartbeat IPC: 0.3396 cumulative IPC: 0.3394 (Simulation time: 02 hr 39 min 26 sec)
Heartbeat CPU 0 instructions: 600000104 cycles: 1767813287 heartbeat IPC: 0.3396 cumulative IPC: 0.3394 (Simulation time: 02 hr 42 min 00 sec)
Heartbeat CPU 0 instructions: 610000105 cycles: 1797310030 heartbeat IPC: 0.339 cumulative IPC: 0.3394 (Simulation time: 02 hr 44 min 50 sec)
Heartbeat CPU 0 instructions: 620000107 cycles: 1831118345 heartbeat IPC: 0.2958 cumulative IPC: 0.3386 (Simulation time: 02 hr 48 min 08 sec)
Heartbeat CPU 0 instructions: 630000107 cycles: 1863457776 heartbeat IPC: 0.3092 cumulative IPC: 0.3381 (Simulation time: 02 hr 51 min 09 sec)
Heartbeat CPU 0 instructions: 640000107 cycles: 1893903861 heartbeat IPC: 0.3284 cumulative IPC: 0.3379 (Simulation time: 02 hr 54 min 08 sec)
[ERROR_CYCLE] Error added at CPU cycle 1895264846, next at 1918959287, pending count: 1
[DRAM_CYCLE_ERROR] Cycle-based error applied! address=0x1eb4c23a0 additional_latency=173500 cycles
[ERROR_CYCLE] Error added at CPU cycle 1918959288, next at 1942970277, pending count: 1
[DRAM_CYCLE_ERROR] Cycle-based error applied! address=0xf55889788 additional_latency=173500 cycles
Heartbeat CPU 0 instructions: 650000107 cycles: 1924979984 heartbeat IPC: 0.3218 cumulative IPC: 0.3377 (Simulation time: 02 hr 57 min 01 sec)
[ERROR_CYCLE] Error added at CPU cycle 1942970277, next at 2231190340, pending count: 1
[DRAM_CYCLE_ERROR] Cycle-based error applied! address=0xea99d0d88 additional_latency=173500 cycles
Heartbeat CPU 0 instructions: 660000108 cycles: 1954861569 heartbeat IPC: 0.3347 cumulative IPC: 0.3376 (Simulation time: 02 hr 59 min 34 sec)
Heartbeat CPU 0 instructions: 670000109 cycles: 1984355290 heartbeat IPC: 0.3391 cumulative IPC: 0.3376 (Simulation time: 03 hr 02 min 29 sec)
Heartbeat CPU 0 instructions: 680000110 cycles: 2013773271 heartbeat IPC: 0.3399 cumulative IPC: 0.3377 (Simulation time: 03 hr 05 min 28 sec)
Heartbeat CPU 0 instructions: 690000111 cycles: 2043092721 heartbeat IPC: 0.3411 cumulative IPC: 0.3377 (Simulation time: 03 hr 08 min 21 sec)
Heartbeat CPU 0 instructions: 700000115 cycles: 2072411125 heartbeat IPC: 0.3411 cumulative IPC: 0.3378 (Simulation time: 03 hr 10 min 43 sec)
Heartbeat CPU 0 instructions: 710000116 cycles: 2101757600 heartbeat IPC: 0.3408 cumulative IPC: 0.3378 (Simulation time: 03 hr 13 min 17 sec)
Heartbeat CPU 0 instructions: 720000117 cycles: 2131061925 heartbeat IPC: 0.3412 cumulative IPC: 0.3379 (Simulation time: 03 hr 16 min 02 sec)
Heartbeat CPU 0 instructions: 730000120 cycles: 2160525346 heartbeat IPC: 0.3394 cumulative IPC: 0.3379 (Simulation time: 03 hr 18 min 48 sec)
Heartbeat CPU 0 instructions: 740000121 cycles: 2190013639 heartbeat IPC: 0.3391 cumulative IPC: 0.3379 (Simulation time: 03 hr 21 min 23 sec)
Heartbeat CPU 0 instructions: 750000122 cycles: 2219475542 heartbeat IPC: 0.3394 cumulative IPC: 0.3379 (Simulation time: 03 hr 23 min 43 sec)
[ERROR_CYCLE] Error added at CPU cycle 2231190341, next at 2270667087, pending count: 1
[DRAM_CYCLE_ERROR] Cycle-based error applied! address=0x82e483e78 additional_latency=173500 cycles
Heartbeat CPU 0 instructions: 760000122 cycles: 2248997471 heartbeat IPC: 0.3387 cumulative IPC: 0.3379 (Simulation time: 03 hr 26 min 41 sec)
[ERROR_CYCLE] Error added at CPU cycle 2270667087, next at 2698464924, pending count: 1
[DRAM_CYCLE_ERROR] Cycle-based error applied! address=0x30e370a00 additional_latency=173500 cycles
Heartbeat CPU 0 instructions: 770000122 cycles: 2278492836 heartbeat IPC: 0.339 cumulative IPC: 0.3379 (Simulation time: 03 hr 29 min 40 sec)
Heartbeat CPU 0 instructions: 780000124 cycles: 2307925383 heartbeat IPC: 0.3398 cumulative IPC: 0.338 (Simulation time: 03 hr 32 min 38 sec)
Heartbeat CPU 0 instructions: 790000127 cycles: 2337258916 heartbeat IPC: 0.3409 cumulative IPC: 0.338 (Simulation time: 03 hr 35 min 24 sec)
Heartbeat CPU 0 instructions: 800000128 cycles: 2366735010 heartbeat IPC: 0.3393 cumulative IPC: 0.338 (Simulation time: 03 hr 38 min 24 sec)
Heartbeat CPU 0 instructions: 810000128 cycles: 2396208613 heartbeat IPC: 0.3393 cumulative IPC: 0.338 (Simulation time: 03 hr 41 min 19 sec)
Heartbeat CPU 0 instructions: 820000128 cycles: 2425717969 heartbeat IPC: 0.3389 cumulative IPC: 0.338 (Simulation time: 03 hr 43 min 48 sec)
Heartbeat CPU 0 instructions: 830000128 cycles: 2455200709 heartbeat IPC: 0.3392 cumulative IPC: 0.3381 (Simulation time: 03 hr 46 min 23 sec)
Heartbeat CPU 0 instructions: 840000128 cycles: 2484647703 heartbeat IPC: 0.3396 cumulative IPC: 0.3381 (Simulation time: 03 hr 49 min 11 sec)
Heartbeat CPU 0 instructions: 850000131 cycles: 2514087422 heartbeat IPC: 0.3397 cumulative IPC: 0.3381 (Simulation time: 03 hr 51 min 18 sec)
Heartbeat CPU 0 instructions: 860000134 cycles: 2543380377 heartbeat IPC: 0.3414 cumulative IPC: 0.3381 (Simulation time: 03 hr 53 min 38 sec)
Heartbeat CPU 0 instructions: 870000134 cycles: 2572683594 heartbeat IPC: 0.3413 cumulative IPC: 0.3382 (Simulation time: 03 hr 56 min 23 sec)
Heartbeat CPU 0 instructions: 880000136 cycles: 2601971211 heartbeat IPC: 0.3414 cumulative IPC: 0.3382 (Simulation time: 03 hr 59 min 15 sec)
Heartbeat CPU 0 instructions: 890000137 cycles: 2631284824 heartbeat IPC: 0.3411 cumulative IPC: 0.3382 (Simulation time: 04 hr 01 min 54 sec)
Heartbeat CPU 0 instructions: 900000137 cycles: 2660673861 heartbeat IPC: 0.3403 cumulative IPC: 0.3383 (Simulation time: 04 hr 04 min 41 sec)
Heartbeat CPU 0 instructions: 910000140 cycles: 2690051685 heartbeat IPC: 0.3404 cumulative IPC: 0.3383 (Simulation time: 04 hr 07 min 38 sec)
[ERROR_CYCLE] Error added at CPU cycle 2698464925, next at 2755971727, pending count: 1
[DRAM_CYCLE_ERROR] Cycle-based error applied! address=0x99a6e5ec0 additional_latency=173500 cycles
Heartbeat CPU 0 instructions: 920000140 cycles: 2719410745 heartbeat IPC: 0.3406 cumulative IPC: 0.3383 (Simulation time: 04 hr 10 min 35 sec)
Heartbeat CPU 0 instructions: 930000140 cycles: 2748766516 heartbeat IPC: 0.3406 cumulative IPC: 0.3383 (Simulation time: 04 hr 13 min 24 sec)
[ERROR_CYCLE] Error added at CPU cycle 2755971728, next at 3092316377, pending count: 1
[DRAM_CYCLE_ERROR] Cycle-based error applied! address=0xe42cd91f0 additional_latency=173500 cycles
Heartbeat CPU 0 instructions: 940000144 cycles: 2778135302 heartbeat IPC: 0.3405 cumulative IPC: 0.3384 (Simulation time: 04 hr 16 min 16 sec)
Heartbeat CPU 0 instructions: 950000147 cycles: 2807545103 heartbeat IPC: 0.34 cumulative IPC: 0.3384 (Simulation time: 04 hr 19 min 14 sec)
Heartbeat CPU 0 instructions: 960000147 cycles: 2836917376 heartbeat IPC: 0.3405 cumulative IPC: 0.3384 (Simulation time: 04 hr 22 min 06 sec)
Heartbeat CPU 0 instructions: 970000149 cycles: 2866295109 heartbeat IPC: 0.3404 cumulative IPC: 0.3384 (Simulation time: 04 hr 24 min 46 sec)
Heartbeat CPU 0 instructions: 980000150 cycles: 2895692860 heartbeat IPC: 0.3402 cumulative IPC: 0.3384 (Simulation time: 04 hr 27 min 43 sec)
Heartbeat CPU 0 instructions: 990000150 cycles: 2925048973 heartbeat IPC: 0.3406 cumulative IPC: 0.3385 (Simulation time: 04 hr 30 min 38 sec)
Heartbeat CPU 0 instructions: 1000000152 cycles: 2954460821 heartbeat IPC: 0.34 cumulative IPC: 0.3385 (Simulation time: 04 hr 32 min 41 sec)
Heartbeat CPU 0 instructions: 1010000153 cycles: 2983802330 heartbeat IPC: 0.3408 cumulative IPC: 0.3385 (Simulation time: 04 hr 34 min 50 sec)
Heartbeat CPU 0 instructions: 1020000155 cycles: 3013135708 heartbeat IPC: 0.3409 cumulative IPC: 0.3385 (Simulation time: 04 hr 37 min 47 sec)
Heartbeat CPU 0 instructions: 1030000155 cycles: 3042596868 heartbeat IPC: 0.3394 cumulative IPC: 0.3385 (Simulation time: 04 hr 40 min 46 sec)
Heartbeat CPU 0 instructions: 1040000157 cycles: 3071974254 heartbeat IPC: 0.3404 cumulative IPC: 0.3385 (Simulation time: 04 hr 43 min 43 sec)
[ERROR_CYCLE] Error added at CPU cycle 3092316378, next at 3122147631, pending count: 1
[DRAM_CYCLE_ERROR] Cycle-based error applied! address=0x87bf9e040 additional_latency=173500 cycles
Heartbeat CPU 0 instructions: 1050000160 cycles: 3101317846 heartbeat IPC: 0.3408 cumulative IPC: 0.3386 (Simulation time: 04 hr 46 min 41 sec)
[ERROR_CYCLE] Error added at CPU cycle 3122147631, next at 3264845189, pending count: 1
[DRAM_CYCLE_ERROR] Cycle-based error applied! address=0xe8aa336c8 additional_latency=173500 cycles
Heartbeat CPU 0 instructions: 1060000161 cycles: 3130691720 heartbeat IPC: 0.3404 cumulative IPC: 0.3386 (Simulation time: 04 hr 49 min 38 sec)
Heartbeat CPU 0 instructions: 1070000162 cycles: 3160053656 heartbeat IPC: 0.3406 cumulative IPC: 0.3386 (Simulation time: 04 hr 52 min 36 sec)
Heartbeat CPU 0 instructions: 1080000163 cycles: 3189432685 heartbeat IPC: 0.3404 cumulative IPC: 0.3386 (Simulation time: 04 hr 55 min 34 sec)
Heartbeat CPU 0 instructions: 1090000163 cycles: 3218821831 heartbeat IPC: 0.3403 cumulative IPC: 0.3386 (Simulation time: 04 hr 58 min 32 sec)
Heartbeat CPU 0 instructions: 1100000164 cycles: 3248207907 heartbeat IPC: 0.3403 cumulative IPC: 0.3386 (Simulation time: 05 hr 01 min 29 sec)
[ERROR_CYCLE] Error added at CPU cycle 3264845189, next at 3286192607, pending count: 1
[DRAM_CYCLE_ERROR] Cycle-based error applied! address=0xf83e6c5c0 additional_latency=173500 cycles
Heartbeat CPU 0 instructions: 1110000164 cycles: 3277547404 heartbeat IPC: 0.3408 cumulative IPC: 0.3387 (Simulation time: 05 hr 04 min 24 sec)
[ERROR_CYCLE] Error added at CPU cycle 3286192607, next at 3319453415, pending count: 1
[DRAM_CYCLE_ERROR] Cycle-based error applied! address=0x6f1a96db0 additional_latency=173500 cycles
Heartbeat CPU 0 instructions: 1120000166 cycles: 3306851737 heartbeat IPC: 0.3412 cumulative IPC: 0.3387 (Simulation time: 05 hr 07 min 18 sec)
[ERROR_CYCLE] Error added at CPU cycle 3319453416, next at 3466220204, pending count: 1
[DRAM_CYCLE_ERROR] Cycle-based error applied! address=0x6e782d810 additional_latency=173500 cycles
Heartbeat CPU 0 instructions: 1130000166 cycles: 3336156219 heartbeat IPC: 0.3412 cumulative IPC: 0.3387 (Simulation time: 05 hr 10 min 12 sec)
Heartbeat CPU 0 instructions: 1140000169 cycles: 3365488042 heartbeat IPC: 0.3409 cumulative IPC: 0.3387 (Simulation time: 05 hr 12 min 54 sec)
Heartbeat CPU 0 instructions: 1150000169 cycles: 3394985079 heartbeat IPC: 0.339 cumulative IPC: 0.3387 (Simulation time: 05 hr 15 min 46 sec)
Heartbeat CPU 0 instructions: 1160000171 cycles: 3424344843 heartbeat IPC: 0.3406 cumulative IPC: 0.3388 (Simulation time: 05 hr 18 min 44 sec)
Heartbeat CPU 0 instructions: 1170000172 cycles: 3453752181 heartbeat IPC: 0.3401 cumulative IPC: 0.3388 (Simulation time: 05 hr 21 min 42 sec)
[ERROR_CYCLE] Error added at CPU cycle 3466220204, next at 3467041744, pending count: 1
[DRAM_CYCLE_ERROR] Cycle-based error applied! address=0x9f3d29fc0 additional_latency=173500 cycles
[ERROR_CYCLE] Error added at CPU cycle 3467041745, next at 3510555606, pending count: 1
[DRAM_CYCLE_ERROR] Cycle-based error applied! address=0x50c96bd10 additional_latency=173500 cycles
Heartbeat CPU 0 instructions: 1180000173 cycles: 3483189898 heartbeat IPC: 0.3397 cumulative IPC: 0.3388 (Simulation time: 05 hr 24 min 27 sec)
[ERROR_CYCLE] Error added at CPU cycle 3510555606, next at 3537155222, pending count: 1
[DRAM_CYCLE_ERROR] Cycle-based error applied! address=0x71e999330 additional_latency=173500 cycles
Heartbeat CPU 0 instructions: 1190000173 cycles: 3512600263 heartbeat IPC: 0.34 cumulative IPC: 0.3388 (Simulation time: 05 hr 27 min 06 sec)
[ERROR_CYCLE] Error added at CPU cycle 3537155222, next at 3585785737, pending count: 1
[DRAM_CYCLE_ERROR] Cycle-based error applied! address=0xd63bcd608 additional_latency=173500 cycles
Heartbeat CPU 0 instructions: 1200000173 cycles: 3541979570 heartbeat IPC: 0.3404 cumulative IPC: 0.3388 (Simulation time: 05 hr 29 min 37 sec)
Heartbeat CPU 0 instructions: 1210000174 cycles: 3571374258 heartbeat IPC: 0.3402 cumulative IPC: 0.3388 (Simulation time: 05 hr 32 min 16 sec)
[ERROR_CYCLE] Error added at CPU cycle 3585785738, next at 3597340865, pending count: 1
[DRAM_CYCLE_ERROR] Cycle-based error applied! address=0x3bd189c48 additional_latency=173500 cycles
[ERROR_CYCLE] Error added at CPU cycle 3597340865, next at 3649655661, pending count: 1
[DRAM_CYCLE_ERROR] Cycle-based error applied! address=0xc0249d88 additional_latency=173500 cycles
Heartbeat CPU 0 instructions: 1220000178 cycles: 3600844679 heartbeat IPC: 0.3393 cumulative IPC: 0.3388 (Simulation time: 05 hr 34 min 25 sec)
Heartbeat CPU 0 instructions: 1230000181 cycles: 3630330486 heartbeat IPC: 0.3391 cumulative IPC: 0.3388 (Simulation time: 05 hr 37 min 21 sec)
[ERROR_CYCLE] Error added at CPU cycle 3649655661, next at 3701638822, pending count: 1
[DRAM_CYCLE_ERROR] Cycle-based error applied! address=0x1f2690a80 additional_latency=173500 cycles
Heartbeat CPU 0 instructions: 1240000182 cycles: 3659764020 heartbeat IPC: 0.3397 cumulative IPC: 0.3388 (Simulation time: 05 hr 40 min 19 sec)
Heartbeat CPU 0 instructions: 1250000185 cycles: 3689204260 heartbeat IPC: 0.3397 cumulative IPC: 0.3388 (Simulation time: 05 hr 43 min 17 sec)
[ERROR_CYCLE] Error added at CPU cycle 3701638823, next at 3848616932, pending count: 1
[DRAM_CYCLE_ERROR] Cycle-based error applied! address=0x9b82ca088 additional_latency=173500 cycles
Heartbeat CPU 0 instructions: 1260000185 cycles: 3718706028 heartbeat IPC: 0.339 cumulative IPC: 0.3388 (Simulation time: 05 hr 46 min 15 sec)
Heartbeat CPU 0 instructions: 1270000185 cycles: 3748176519 heartbeat IPC: 0.3393 cumulative IPC: 0.3388 (Simulation time: 05 hr 49 min 14 sec)
Heartbeat CPU 0 instructions: 1280000186 cycles: 3777702715 heartbeat IPC: 0.3387 cumulative IPC: 0.3388 (Simulation time: 05 hr 52 min 11 sec)
Heartbeat CPU 0 instructions: 1290000186 cycles: 3807180452 heartbeat IPC: 0.3392 cumulative IPC: 0.3388 (Simulation time: 05 hr 55 min 09 sec)
Heartbeat CPU 0 instructions: 1300000190 cycles: 3836577480 heartbeat IPC: 0.3402 cumulative IPC: 0.3388 (Simulation time: 05 hr 58 min 07 sec)
[ERROR_CYCLE] Error added at CPU cycle 3848616932, next at 4033050581, pending count: 1
[DRAM_CYCLE_ERROR] Cycle-based error applied! address=0xb576c4c8 additional_latency=173500 cycles
Heartbeat CPU 0 instructions: 1310000190 cycles: 3866031200 heartbeat IPC: 0.3395 cumulative IPC: 0.3388 (Simulation time: 06 hr 01 min 06 sec)
Heartbeat CPU 0 instructions: 1320000190 cycles: 3895530019 heartbeat IPC: 0.339 cumulative IPC: 0.3388 (Simulation time: 06 hr 04 min 06 sec)
Heartbeat CPU 0 instructions: 1330000190 cycles: 3925028447 heartbeat IPC: 0.339 cumulative IPC: 0.3389 (Simulation time: 06 hr 07 min 05 sec)
Heartbeat CPU 0 instructions: 1340000190 cycles: 3954504911 heartbeat IPC: 0.3393 cumulative IPC: 0.3389 (Simulation time: 06 hr 10 min 04 sec)
Heartbeat CPU 0 instructions: 1350000192 cycles: 3983955479 heartbeat IPC: 0.3396 cumulative IPC: 0.3389 (Simulation time: 06 hr 13 min 02 sec)
Heartbeat CPU 0 instructions: 1360000193 cycles: 4013449304 heartbeat IPC: 0.3391 cumulative IPC: 0.3389 (Simulation time: 06 hr 15 min 42 sec)
[ERROR_CYCLE] Error added at CPU cycle 4033050581, next at 4082991065, pending count: 1
[DRAM_CYCLE_ERROR] Cycle-based error applied! address=0xcfc91e440 additional_latency=173500 cycles
Heartbeat CPU 0 instructions: 1370000194 cycles: 4042964231 heartbeat IPC: 0.3388 cumulative IPC: 0.3389 (Simulation time: 06 hr 18 min 15 sec)
Heartbeat CPU 0 instructions: 1380000197 cycles: 4072536897 heartbeat IPC: 0.3382 cumulative IPC: 0.3389 (Simulation time: 06 hr 20 min 34 sec)
[ERROR_CYCLE] Error added at CPU cycle 4082991065, next at 4145788688, pending count: 1
[DRAM_CYCLE_ERROR] Cycle-based error applied! address=0x6dba4ea00 additional_latency=173500 cycles
Heartbeat CPU 0 instructions: 1390000201 cycles: 4101983950 heartbeat IPC: 0.3396 cumulative IPC: 0.3389 (Simulation time: 06 hr 23 min 11 sec)
Heartbeat CPU 0 instructions: 1400000204 cycles: 4131384911 heartbeat IPC: 0.3401 cumulative IPC: 0.3389 (Simulation time: 06 hr 25 min 51 sec)
[ERROR_CYCLE] Error added at CPU cycle 4145788689, next at 4156772762, pending count: 1
[DRAM_CYCLE_ERROR] Cycle-based error applied! address=0x1d79918d8 additional_latency=173500 cycles
[ERROR_CYCLE] Error added at CPU cycle 4156772763, next at 4177939809, pending count: 1
[DRAM_CYCLE_ERROR] Cycle-based error applied! address=0xe7fa76018 additional_latency=173500 cycles
Heartbeat CPU 0 instructions: 1410000206 cycles: 4160868382 heartbeat IPC: 0.3392 cumulative IPC: 0.3389 (Simulation time: 06 hr 28 min 25 sec)
[ERROR_CYCLE] Error added at CPU cycle 4177939810, next at 4289621722, pending count: 1
[DRAM_CYCLE_ERROR] Cycle-based error applied! address=0x656c6f908 additional_latency=173500 cycles
Heartbeat CPU 0 instructions: 1420000206 cycles: 4190670690 heartbeat IPC: 0.3355 cumulative IPC: 0.3388 (Simulation time: 06 hr 31 min 14 sec)
Heartbeat CPU 0 instructions: 1430000209 cycles: 4220329485 heartbeat IPC: 0.3372 cumulative IPC: 0.3388 (Simulation time: 06 hr 34 min 14 sec)
Heartbeat CPU 0 instructions: 1440000211 cycles: 4252161907 heartbeat IPC: 0.3141 cumulative IPC: 0.3387 (Simulation time: 06 hr 37 min 31 sec)
Heartbeat CPU 0 instructions: 1450000214 cycles: 4281613337 heartbeat IPC: 0.3395 cumulative IPC: 0.3387 (Simulation time: 06 hr 40 min 17 sec)
[ERROR_CYCLE] Error added at CPU cycle 4289621722, next at 4353987313, pending count: 1
[DRAM_CYCLE_ERROR] Cycle-based error applied! address=0x7e0d09bd0 additional_latency=173500 cycles
Heartbeat CPU 0 instructions: 1460000214 cycles: 4311205714 heartbeat IPC: 0.3379 cumulative IPC: 0.3387 (Simulation time: 06 hr 43 min 11 sec)
Heartbeat CPU 0 instructions: 1470000214 cycles: 4340695376 heartbeat IPC: 0.3391 cumulative IPC: 0.3387 (Simulation time: 06 hr 45 min 57 sec)
[ERROR_CYCLE] Error added at CPU cycle 4353987314, next at 4515705633, pending count: 1
[DRAM_CYCLE_ERROR] Cycle-based error applied! address=0x11b7d4288 additional_latency=173500 cycles
Heartbeat CPU 0 instructions: 1480000216 cycles: 4370129277 heartbeat IPC: 0.3397 cumulative IPC: 0.3387 (Simulation time: 06 hr 48 min 49 sec)
Heartbeat CPU 0 instructions: 1490000220 cycles: 4399498706 heartbeat IPC: 0.3405 cumulative IPC: 0.3387 (Simulation time: 06 hr 51 min 49 sec)
Heartbeat CPU 0 instructions: 1500000220 cycles: 4428810886 heartbeat IPC: 0.3412 cumulative IPC: 0.3387 (Simulation time: 06 hr 54 min 26 sec)
Heartbeat CPU 0 instructions: 1510000220 cycles: 4458156427 heartbeat IPC: 0.3408 cumulative IPC: 0.3387 (Simulation time: 06 hr 57 min 06 sec)
Heartbeat CPU 0 instructions: 1520000222 cycles: 4487762272 heartbeat IPC: 0.3378 cumulative IPC: 0.3387 (Simulation time: 06 hr 59 min 24 sec)
[ERROR_CYCLE] Error added at CPU cycle 4515705633, next at 4544161953, pending count: 1
[DRAM_CYCLE_ERROR] Cycle-based error applied! address=0xe6e4e4ca8 additional_latency=173500 cycles
Heartbeat CPU 0 instructions: 1530000222 cycles: 4517351100 heartbeat IPC: 0.338 cumulative IPC: 0.3387 (Simulation time: 07 hr 02 min 01 sec)
[ERROR_CYCLE] Error added at CPU cycle 4544161954, next at 4679432926, pending count: 1
[DRAM_CYCLE_ERROR] Cycle-based error applied! address=0x3af341108 additional_latency=173500 cycles
Heartbeat CPU 0 instructions: 1540000223 cycles: 4546537602 heartbeat IPC: 0.3426 cumulative IPC: 0.3387 (Simulation time: 07 hr 04 min 43 sec)
Heartbeat CPU 0 instructions: 1550000223 cycles: 4574878238 heartbeat IPC: 0.3529 cumulative IPC: 0.3388 (Simulation time: 07 hr 06 min 56 sec)
Heartbeat CPU 0 instructions: 1560000225 cycles: 4603173042 heartbeat IPC: 0.3534 cumulative IPC: 0.3389 (Simulation time: 07 hr 08 min 54 sec)
Heartbeat CPU 0 instructions: 1570000225 cycles: 4631519472 heartbeat IPC: 0.3528 cumulative IPC: 0.339 (Simulation time: 07 hr 11 min 14 sec)
Heartbeat CPU 0 instructions: 1580000227 cycles: 4659801780 heartbeat IPC: 0.3536 cumulative IPC: 0.3391 (Simulation time: 07 hr 14 min 08 sec)
[ERROR_CYCLE] Error added at CPU cycle 4679432927, next at 4791503551, pending count: 1
[DRAM_CYCLE_ERROR] Cycle-based error applied! address=0xbd1176e40 additional_latency=173500 cycles
Heartbeat CPU 0 instructions: 1590000231 cycles: 4688088732 heartbeat IPC: 0.3535 cumulative IPC: 0.3392 (Simulation time: 07 hr 16 min 45 sec)
Heartbeat CPU 0 instructions: 1600000231 cycles: 4716392350 heartbeat IPC: 0.3533 cumulative IPC: 0.3392 (Simulation time: 07 hr 19 min 33 sec)
Heartbeat CPU 0 instructions: 1610000231 cycles: 4744686159 heartbeat IPC: 0.3534 cumulative IPC: 0.3393 (Simulation time: 07 hr 21 min 51 sec)
Heartbeat CPU 0 instructions: 1620000232 cycles: 4772981512 heartbeat IPC: 0.3534 cumulative IPC: 0.3394 (Simulation time: 07 hr 24 min 22 sec)
[ERROR_CYCLE] Error added at CPU cycle 4791503551, next at 4898188099, pending count: 1
[DRAM_CYCLE_ERROR] Cycle-based error applied! address=0x8745afc58 additional_latency=173500 cycles
Heartbeat CPU 0 instructions: 1630000233 cycles: 4801260229 heartbeat IPC: 0.3536 cumulative IPC: 0.3395 (Simulation time: 07 hr 27 min 14 sec)
Heartbeat CPU 0 instructions: 1640000234 cycles: 4829583674 heartbeat IPC: 0.3531 cumulative IPC: 0.3396 (Simulation time: 07 hr 30 min 08 sec)
Heartbeat CPU 0 instructions: 1650000235 cycles: 4857882827 heartbeat IPC: 0.3534 cumulative IPC: 0.3397 (Simulation time: 07 hr 33 min 02 sec)
Heartbeat CPU 0 instructions: 1660000235 cycles: 4886246418 heartbeat IPC: 0.3526 cumulative IPC: 0.3397 (Simulation time: 07 hr 35 min 56 sec)
[ERROR_CYCLE] Error added at CPU cycle 4898188099, next at 4921993944, pending count: 1
[DRAM_CYCLE_ERROR] Cycle-based error applied! address=0x4857db190 additional_latency=173500 cycles
Heartbeat CPU 0 instructions: 1670000235 cycles: 4914560797 heartbeat IPC: 0.3532 cumulative IPC: 0.3398 (Simulation time: 07 hr 38 min 51 sec)
[ERROR_CYCLE] Error added at CPU cycle 4921993944, next at 5011050687, pending count: 1
[DRAM_CYCLE_ERROR] Cycle-based error applied! address=0xac5f78e88 additional_latency=173500 cycles
Heartbeat CPU 0 instructions: 1680000237 cycles: 4942872771 heartbeat IPC: 0.3532 cumulative IPC: 0.3399 (Simulation time: 07 hr 41 min 40 sec)
Heartbeat CPU 0 instructions: 1690000237 cycles: 4971178184 heartbeat IPC: 0.3533 cumulative IPC: 0.34 (Simulation time: 07 hr 44 min 35 sec)
Heartbeat CPU 0 instructions: 1700000241 cycles: 4999469780 heartbeat IPC: 0.3535 cumulative IPC: 0.34 (Simulation time: 07 hr 47 min 30 sec)
[ERROR_CYCLE] Error added at CPU cycle 5011050688, next at 5164139440, pending count: 1
[DRAM_CYCLE_ERROR] Cycle-based error applied! address=0x3aeac04d0 additional_latency=173500 cycles
Heartbeat CPU 0 instructions: 1710000242 cycles: 5027789239 heartbeat IPC: 0.3531 cumulative IPC: 0.3401 (Simulation time: 07 hr 50 min 24 sec)
Heartbeat CPU 0 instructions: 1720000243 cycles: 5056107886 heartbeat IPC: 0.3531 cumulative IPC: 0.3402 (Simulation time: 07 hr 53 min 16 sec)
Heartbeat CPU 0 instructions: 1730000243 cycles: 5084443660 heartbeat IPC: 0.3529 cumulative IPC: 0.3403 (Simulation time: 07 hr 55 min 45 sec)
Heartbeat CPU 0 instructions: 1740000246 cycles: 5112754209 heartbeat IPC: 0.3532 cumulative IPC: 0.3403 (Simulation time: 07 hr 58 min 14 sec)
Heartbeat CPU 0 instructions: 1750000247 cycles: 5141044818 heartbeat IPC: 0.3535 cumulative IPC: 0.3404 (Simulation time: 08 hr 00 min 39 sec)
[ERROR_CYCLE] Error added at CPU cycle 5164139440, next at 5232581492, pending count: 1
[DRAM_CYCLE_ERROR] Cycle-based error applied! address=0x53871e460 additional_latency=173500 cycles
Heartbeat CPU 0 instructions: 1760000248 cycles: 5169404754 heartbeat IPC: 0.3526 cumulative IPC: 0.3405 (Simulation time: 08 hr 03 min 06 sec)
Heartbeat CPU 0 instructions: 1770000252 cycles: 5197728792 heartbeat IPC: 0.3531 cumulative IPC: 0.3405 (Simulation time: 08 hr 05 min 13 sec)
Heartbeat CPU 0 instructions: 1780000252 cycles: 5226048561 heartbeat IPC: 0.3531 cumulative IPC: 0.3406 (Simulation time: 08 hr 07 min 55 sec)
[ERROR_CYCLE] Error added at CPU cycle 5232581492, next at 5243205324, pending count: 1
[DRAM_CYCLE_ERROR] Cycle-based error applied! address=0x634d2d7e0 additional_latency=173500 cycles
[ERROR_CYCLE] Error added at CPU cycle 5243205324, next at 5454213049, pending count: 1
[DRAM_CYCLE_ERROR] Cycle-based error applied! address=0xa079676d0 additional_latency=173500 cycles
Heartbeat CPU 0 instructions: 1790000252 cycles: 5254426206 heartbeat IPC: 0.3524 cumulative IPC: 0.3407 (Simulation time: 08 hr 10 min 44 sec)
Heartbeat CPU 0 instructions: 1800000252 cycles: 5282806345 heartbeat IPC: 0.3524 cumulative IPC: 0.3407 (Simulation time: 08 hr 13 min 03 sec)
Heartbeat CPU 0 instructions: 1810000253 cycles: 5311125133 heartbeat IPC: 0.3531 cumulative IPC: 0.3408 (Simulation time: 08 hr 15 min 43 sec)
Heartbeat CPU 0 instructions: 1820000255 cycles: 5339419696 heartbeat IPC: 0.3534 cumulative IPC: 0.3409 (Simulation time: 08 hr 18 min 38 sec)
Heartbeat CPU 0 instructions: 1830000257 cycles: 5367720037 heartbeat IPC: 0.3534 cumulative IPC: 0.3409 (Simulation time: 08 hr 21 min 09 sec)
Heartbeat CPU 0 instructions: 1840000259 cycles: 5396044304 heartbeat IPC: 0.3531 cumulative IPC: 0.341 (Simulation time: 08 hr 23 min 57 sec)
Heartbeat CPU 0 instructions: 1850000259 cycles: 5424366135 heartbeat IPC: 0.3531 cumulative IPC: 0.3411 (Simulation time: 08 hr 26 min 02 sec)
Heartbeat CPU 0 instructions: 1860000262 cycles: 5452709137 heartbeat IPC: 0.3528 cumulative IPC: 0.3411 (Simulation time: 08 hr 28 min 24 sec)
[ERROR_CYCLE] Error added at CPU cycle 5454213050, next at 5550115546, pending count: 1
[DRAM_CYCLE_ERROR] Cycle-based error applied! address=0xb49821090 additional_latency=173500 cycles
Heartbeat CPU 0 instructions: 1870000263 cycles: 5480994746 heartbeat IPC: 0.3535 cumulative IPC: 0.3412 (Simulation time: 08 hr 31 min 18 sec)
Heartbeat CPU 0 instructions: 1880000264 cycles: 5509310661 heartbeat IPC: 0.3532 cumulative IPC: 0.3412 (Simulation time: 08 hr 34 min 11 sec)
Heartbeat CPU 0 instructions: 1890000267 cycles: 5537617198 heartbeat IPC: 0.3533 cumulative IPC: 0.3413 (Simulation time: 08 hr 37 min 05 sec)
[ERROR_CYCLE] Error added at CPU cycle 5550115547, next at 5667071094, pending count: 1
[DRAM_CYCLE_ERROR] Cycle-based error applied! address=0x1a0d3198 additional_latency=173500 cycles
Heartbeat CPU 0 instructions: 1900000271 cycles: 5565904577 heartbeat IPC: 0.3535 cumulative IPC: 0.3414 (Simulation time: 08 hr 39 min 59 sec)
Heartbeat CPU 0 instructions: 1910000274 cycles: 5594223853 heartbeat IPC: 0.3531 cumulative IPC: 0.3414 (Simulation time: 08 hr 42 min 51 sec)
Heartbeat CPU 0 instructions: 1920000278 cycles: 5622554693 heartbeat IPC: 0.353 cumulative IPC: 0.3415 (Simulation time: 08 hr 45 min 43 sec)
Heartbeat CPU 0 instructions: 1930000280 cycles: 5650879978 heartbeat IPC: 0.353 cumulative IPC: 0.3415 (Simulation time: 08 hr 48 min 37 sec)
[ERROR_CYCLE] Error added at CPU cycle 5667071095, next at 6023344930, pending count: 1
[DRAM_CYCLE_ERROR] Cycle-based error applied! address=0x111f64a48 additional_latency=173500 cycles
Heartbeat CPU 0 instructions: 1940000280 cycles: 5679246277 heartbeat IPC: 0.3525 cumulative IPC: 0.3416 (Simulation time: 08 hr 51 min 18 sec)
Heartbeat CPU 0 instructions: 1950000281 cycles: 5707548725 heartbeat IPC: 0.3533 cumulative IPC: 0.3417 (Simulation time: 08 hr 54 min 11 sec)
Heartbeat CPU 0 instructions: 1960000284 cycles: 5735893820 heartbeat IPC: 0.3528 cumulative IPC: 0.3417 (Simulation time: 08 hr 57 min 05 sec)
Heartbeat CPU 0 instructions: 1970000284 cycles: 5764234451 heartbeat IPC: 0.3529 cumulative IPC: 0.3418 (Simulation time: 08 hr 59 min 24 sec)
Heartbeat CPU 0 instructions: 1980000285 cycles: 5792546354 heartbeat IPC: 0.3532 cumulative IPC: 0.3418 (Simulation time: 09 hr 02 min 11 sec)
Heartbeat CPU 0 instructions: 1990000285 cycles: 5820854336 heartbeat IPC: 0.3533 cumulative IPC: 0.3419 (Simulation time: 09 hr 04 min 34 sec)

=== ERROR PAGE STATISTICS ===
Mode: CYCLE
Error Cycle Interval: 100000000 CPU cycles
Total Error Accesses: 58
==============================
Simulation finished CPU 0 instructions: 1999999981 cycles: 5849088425 cumulative IPC: 0.3419 (Simulation time: 09 hr 07 min 26 sec)
Simulation complete CPU 0 instructions: 1999999981 cycles: 5849088425 cumulative IPC: 0.3419 (Simulation time: 09 hr 07 min 26 sec)

ChampSim completed all CPUs

=== Simulation ===
CPU 0 runs test_traces/602.gcc_s-1850B.champsimtrace.xz

Region of Interest Statistics

CPU 0 cumulative IPC: 0.3419 instructions: 1999999981 cycles: 5849088425
CPU 0 Branch Prediction Accuracy: 92.26% MPKI: 19.84 Average ROB Occupancy at Mispredict: 28.45
Branch type MPKI
BRANCH_DIRECT_JUMP: 0.0104
BRANCH_INDIRECT: 0
BRANCH_CONDITIONAL: 19.83
BRANCH_DIRECT_CALL: 8.5e-06
BRANCH_INDIRECT_CALL: 0
BRANCH_RETURN: 7e-06

cpu0->cpu0_STLB TOTAL        ACCESS:     748413 HIT:     106522 MISS:     641891 MSHR_MERGE:          0
cpu0->cpu0_STLB LOAD         ACCESS:     748413 HIT:     106522 MISS:     641891 MSHR_MERGE:          0
cpu0->cpu0_STLB RFO          ACCESS:          0 HIT:          0 MISS:          0 MSHR_MERGE:          0
cpu0->cpu0_STLB PREFETCH     ACCESS:          0 HIT:          0 MISS:          0 MSHR_MERGE:          0
cpu0->cpu0_STLB WRITE        ACCESS:          0 HIT:          0 MISS:          0 MSHR_MERGE:          0
cpu0->cpu0_STLB TRANSLATION  ACCESS:          0 HIT:          0 MISS:          0 MSHR_MERGE:          0
cpu0->cpu0_STLB PREFETCH REQUESTED:          0 ISSUED:          0 USEFUL:          0 USELESS:          0
cpu0->cpu0_STLB AVERAGE MISS LATENCY: 468 cycles
cpu0->cpu0_L2C TOTAL        ACCESS:   48249091 HIT:   12595783 MISS:   35653308 MSHR_MERGE:          0
cpu0->cpu0_L2C LOAD         ACCESS:   48104367 HIT:   12467939 MISS:   35636428 MSHR_MERGE:          0
cpu0->cpu0_L2C RFO          ACCESS:      16942 HIT:        111 MISS:      16831 MSHR_MERGE:          0
cpu0->cpu0_L2C PREFETCH     ACCESS:          0 HIT:          0 MISS:          0 MSHR_MERGE:          0
cpu0->cpu0_L2C WRITE        ACCESS:     127782 HIT:     127733 MISS:         49 MSHR_MERGE:          0
cpu0->cpu0_L2C TRANSLATION  ACCESS:          0 HIT:          0 MISS:          0 MSHR_MERGE:          0
cpu0->cpu0_L2C PREFETCH REQUESTED:          0 ISSUED:          0 USEFUL:          0 USELESS:          0
cpu0->cpu0_L2C AVERAGE MISS LATENCY: 103.8 cycles
cpu0->cpu0_L1I TOTAL        ACCESS:      78792 HIT:      78732 MISS:         60 MSHR_MERGE:          3
cpu0->cpu0_L1I LOAD         ACCESS:      78792 HIT:      78732 MISS:         60 MSHR_MERGE:          3
cpu0->cpu0_L1I RFO          ACCESS:          0 HIT:          0 MISS:          0 MSHR_MERGE:          0
cpu0->cpu0_L1I PREFETCH     ACCESS:          0 HIT:          0 MISS:          0 MSHR_MERGE:          0
cpu0->cpu0_L1I WRITE        ACCESS:          0 HIT:          0 MISS:          0 MSHR_MERGE:          0
cpu0->cpu0_L1I TRANSLATION  ACCESS:          0 HIT:          0 MISS:          0 MSHR_MERGE:          0
cpu0->cpu0_L1I PREFETCH REQUESTED:          0 ISSUED:          0 USEFUL:          0 USELESS:          0
cpu0->cpu0_L1I AVERAGE MISS LATENCY: 110 cycles
cpu0->cpu0_L1D TOTAL        ACCESS:  605677878 HIT:  522294112 MISS:   83383766 MSHR_MERGE:   35262514
cpu0->cpu0_L1D LOAD         ACCESS:  433055310 HIT:  349688965 MISS:   83366345 MSHR_MERGE:   35262035
cpu0->cpu0_L1D RFO          ACCESS:          0 HIT:          0 MISS:          0 MSHR_MERGE:          0
cpu0->cpu0_L1D PREFETCH     ACCESS:          0 HIT:          0 MISS:          0 MSHR_MERGE:          0
cpu0->cpu0_L1D WRITE        ACCESS:  172622568 HIT:  172605147 MISS:      17421 MSHR_MERGE:        479
cpu0->cpu0_L1D TRANSLATION  ACCESS:          0 HIT:          0 MISS:          0 MSHR_MERGE:          0
cpu0->cpu0_L1D PREFETCH REQUESTED:          0 ISSUED:          0 USEFUL:          0 USELESS:          0
cpu0->cpu0_L1D AVERAGE MISS LATENCY: 85.68 cycles
cpu0->cpu0_ITLB TOTAL        ACCESS:      74095 HIT:      74086 MISS:          9 MSHR_MERGE:          3
cpu0->cpu0_ITLB LOAD         ACCESS:      74095 HIT:      74086 MISS:          9 MSHR_MERGE:          3
cpu0->cpu0_ITLB RFO          ACCESS:          0 HIT:          0 MISS:          0 MSHR_MERGE:          0
cpu0->cpu0_ITLB PREFETCH     ACCESS:          0 HIT:          0 MISS:          0 MSHR_MERGE:          0
cpu0->cpu0_ITLB WRITE        ACCESS:          0 HIT:          0 MISS:          0 MSHR_MERGE:          0
cpu0->cpu0_ITLB TRANSLATION  ACCESS:          0 HIT:          0 MISS:          0 MSHR_MERGE:          0
cpu0->cpu0_ITLB PREFETCH REQUESTED:          0 ISSUED:          0 USEFUL:          0 USELESS:          0
cpu0->cpu0_ITLB AVERAGE MISS LATENCY: 796.3 cycles
cpu0->cpu0_DTLB TOTAL        ACCESS:  552104678 HIT:  550734313 MISS:    1370365 MSHR_MERGE:     621958
cpu0->cpu0_DTLB LOAD         ACCESS:  552104678 HIT:  550734313 MISS:    1370365 MSHR_MERGE:     621958
cpu0->cpu0_DTLB RFO          ACCESS:          0 HIT:          0 MISS:          0 MSHR_MERGE:          0
cpu0->cpu0_DTLB PREFETCH     ACCESS:          0 HIT:          0 MISS:          0 MSHR_MERGE:          0
cpu0->cpu0_DTLB WRITE        ACCESS:          0 HIT:          0 MISS:          0 MSHR_MERGE:          0
cpu0->cpu0_DTLB TRANSLATION  ACCESS:          0 HIT:          0 MISS:          0 MSHR_MERGE:          0
cpu0->cpu0_DTLB PREFETCH REQUESTED:          0 ISSUED:          0 USEFUL:          0 USELESS:          0
cpu0->cpu0_DTLB AVERAGE MISS LATENCY: 407.3 cycles
cpu0->LLC TOTAL        ACCESS:   35703432 HIT:     114522 MISS:   35588910 MSHR_MERGE:          0
cpu0->LLC LOAD         ACCESS:   35636428 HIT:      64622 MISS:   35571806 MSHR_MERGE:          0
cpu0->LLC RFO          ACCESS:      16831 HIT:         62 MISS:      16769 MSHR_MERGE:          0
cpu0->LLC PREFETCH     ACCESS:          0 HIT:          0 MISS:          0 MSHR_MERGE:          0
cpu0->LLC WRITE        ACCESS:      50173 HIT:      49838 MISS:        335 MSHR_MERGE:          0
cpu0->LLC TRANSLATION  ACCESS:          0 HIT:          0 MISS:          0 MSHR_MERGE:          0
cpu0->LLC PREFETCH REQUESTED:          0 ISSUED:          0 USEFUL:          0 USELESS:          0
cpu0->LLC AVERAGE MISS LATENCY: 88 cycles

DRAM Statistics

Channel 0 RQ ROW_BUFFER_HIT:       7341
  ROW_BUFFER_MISS:   18436155
  AVG DBUS CONGESTED CYCLE: 11.69
Channel 0 WQ ROW_BUFFER_HIT:       2902
  ROW_BUFFER_MISS:      22158
  FULL:          0
Channel 0 REFRESHES ISSUED:     487392

Channel 1 RQ ROW_BUFFER_HIT:       8089
  ROW_BUFFER_MISS:   18436086
  AVG DBUS CONGESTED CYCLE: 11.78
Channel 1 WQ ROW_BUFFER_HIT:       2844
  ROW_BUFFER_MISS:      22214
  FULL:          0
Channel 1 REFRESHES ISSUED:     487392
