[VMEM] WARNING: physical memory size is smaller than virtual memory size.

*** ChampSim Multicore Out-of-Order Simulator ***
Warmup Instructions: 0
Simulation Instructions: 9223372036854775807
Number of CPUs: 1
Page size: 4096

Off-chip DRAM Size: 32 GiB Channels: 2 Width: 32-bit Data Rate: 4807 MT/s
[ERROR_PAGE_MANAGER] Error latency: 173500 
[ERROR_PAGE_MANAGER] Random seed: 54321 (fixed for preload reproducibility)
[ERROR_PAGE_MANAGER] Cycle-based error modeling enabled
[ERROR_PAGE_MANAGER] Errors per interval: 1
[ERROR_PAGE_MANAGER] Error cycle interval: 20000000 cycles

=== ERROR PAGE STATISTICS ===
Mode: CYCLE
Error Cycle Interval: 20000000 CPU cycles
Total Error Accesses: 0
==============================
Warmup finished CPU 0 instructions: 0 cycles: 1 cumulative IPC: 0 (Simulation time: 00 hr 00 min 00 sec)
Warmup complete CPU 0 instructions: 0 cycles: 1 cumulative IPC: 0 (Simulation time: 00 hr 00 min 00 sec)
[ERROR_CYCLE] Error added at CPU cycle 14255611, next at 18306612, pending count: 1
[DRAM_CYCLE_ERROR] Cycle-based error applied! address=0x3088a6540 additional_latency=173500 cycles
Heartbeat CPU 0 instructions: 10000001 cycles: 16836481 heartbeat IPC: 0.5939 cumulative IPC: 0.5939 (Simulation time: 00 hr 01 min 55 sec)
[ERROR_CYCLE] Error added at CPU cycle 18306612, next at 51392127, pending count: 1
[DRAM_CYCLE_ERROR] Cycle-based error applied! address=0x8e1d1078 additional_latency=173500 cycles
Heartbeat CPU 0 instructions: 20000002 cycles: 38829967 heartbeat IPC: 0.4547 cumulative IPC: 0.5151 (Simulation time: 00 hr 04 min 19 sec)
[ERROR_CYCLE] Error added at CPU cycle 51392127, next at 106935378, pending count: 1
[DRAM_CYCLE_ERROR] Cycle-based error applied! address=0x8c407550 additional_latency=173500 cycles
Heartbeat CPU 0 instructions: 30000002 cycles: 64512411 heartbeat IPC: 0.3894 cumulative IPC: 0.465 (Simulation time: 00 hr 07 min 00 sec)
Heartbeat CPU 0 instructions: 40000005 cycles: 81968792 heartbeat IPC: 0.5729 cumulative IPC: 0.488 (Simulation time: 00 hr 08 min 57 sec)
[ERROR_CYCLE] Error added at CPU cycle 106935379, next at 107536449, pending count: 1
[DRAM_CYCLE_ERROR] Cycle-based error applied! address=0x7d7667690 additional_latency=173500 cycles
[ERROR_CYCLE] Error added at CPU cycle 107536449, next at 138277283, pending count: 1
[DRAM_CYCLE_ERROR] Cycle-based error applied! address=0x7f6801280 additional_latency=173500 cycles
[ERROR_CYCLE] Error added at CPU cycle 138277283, next at 141856885, pending count: 1
[DRAM_CYCLE_ERROR] Cycle-based error applied! address=0xbe3b8c80 additional_latency=173500 cycles
[ERROR_CYCLE] Error added at CPU cycle 141856885, next at 153234841, pending count: 1
[DRAM_CYCLE_ERROR] Cycle-based error applied! address=0x31c00cc08 additional_latency=173500 cycles
[ERROR_CYCLE] Error added at CPU cycle 153234841, next at 170313718, pending count: 1
[DRAM_CYCLE_ERROR] Cycle-based error applied! address=0x5773f39c0 additional_latency=173500 cycles
Heartbeat CPU 0 instructions: 50000008 cycles: 161384518 heartbeat IPC: 0.1259 cumulative IPC: 0.3098 (Simulation time: 00 hr 15 min 31 sec)
[ERROR_CYCLE] Error added at CPU cycle 170313718, next at 175206749, pending count: 1
[DRAM_CYCLE_ERROR] Cycle-based error applied! address=0x75abd0ea0 additional_latency=173500 cycles
[ERROR_CYCLE] Error added at CPU cycle 175206749, next at 210725907, pending count: 1
[DRAM_CYCLE_ERROR] Cycle-based error applied! address=0x1c84e2a98 additional_latency=173500 cycles
Heartbeat CPU 0 instructions: 60000010 cycles: 187223098 heartbeat IPC: 0.387 cumulative IPC: 0.3205 (Simulation time: 00 hr 18 min 12 sec)
[ERROR_CYCLE] Error added at CPU cycle 210725908, next at 217846273, pending count: 1
[DRAM_CYCLE_ERROR] Cycle-based error applied! address=0x1dbdabd78 additional_latency=173500 cycles
[ERROR_CYCLE] Error added at CPU cycle 217846274, next at 226797996, pending count: 1
[DRAM_CYCLE_ERROR] Cycle-based error applied! address=0x3416348c8 additional_latency=173500 cycles
Heartbeat CPU 0 instructions: 70000010 cycles: 220584081 heartbeat IPC: 0.2998 cumulative IPC: 0.3173 (Simulation time: 00 hr 21 min 30 sec)
[ERROR_CYCLE] Error added at CPU cycle 226797996, next at 267503668, pending count: 1
[DRAM_CYCLE_ERROR] Cycle-based error applied! address=0x1c84e2a90 additional_latency=173500 cycles
Heartbeat CPU 0 instructions: 80000012 cycles: 239186266 heartbeat IPC: 0.5376 cumulative IPC: 0.3345 (Simulation time: 00 hr 23 min 28 sec)
Heartbeat CPU 0 instructions: 90000012 cycles: 255760210 heartbeat IPC: 0.6034 cumulative IPC: 0.3519 (Simulation time: 00 hr 25 min 11 sec)
[ERROR_CYCLE] Error added at CPU cycle 267503668, next at 267748717, pending count: 1
[DRAM_CYCLE_ERROR] Cycle-based error applied! address=0x5951e7530 additional_latency=173500 cycles
[ERROR_CYCLE] Error added at CPU cycle 267748717, next at 290247725, pending count: 1
[DRAM_CYCLE_ERROR] Cycle-based error applied! address=0x2a4841ed0 additional_latency=173500 cycles
Heartbeat CPU 0 instructions: 100000013 cycles: 271494120 heartbeat IPC: 0.6356 cumulative IPC: 0.3683 (Simulation time: 00 hr 26 min 58 sec)
[ERROR_CYCLE] Error added at CPU cycle 290247726, next at 303374226, pending count: 1
[DRAM_CYCLE_ERROR] Cycle-based error applied! address=0xcac448e8 additional_latency=173500 cycles
[ERROR_CYCLE] Error added at CPU cycle 303374226, next at 379052965, pending count: 1
[DRAM_CYCLE_ERROR] Cycle-based error applied! address=0x1609ff8b8 additional_latency=173500 cycles
Heartbeat CPU 0 instructions: 110000014 cycles: 308825074 heartbeat IPC: 0.2679 cumulative IPC: 0.3562 (Simulation time: 00 hr 30 min 27 sec)
Heartbeat CPU 0 instructions: 120000014 cycles: 335877269 heartbeat IPC: 0.3697 cumulative IPC: 0.3573 (Simulation time: 00 hr 33 min 15 sec)
Heartbeat CPU 0 instructions: 130000016 cycles: 358988677 heartbeat IPC: 0.4327 cumulative IPC: 0.3621 (Simulation time: 00 hr 35 min 45 sec)
[ERROR_CYCLE] Error added at CPU cycle 379052966, next at 383791854, pending count: 1
[DRAM_CYCLE_ERROR] Cycle-based error applied! address=0x1ec6e440 additional_latency=173500 cycles
[ERROR_CYCLE] Error added at CPU cycle 383791855, next at 388594052, pending count: 1
[DRAM_CYCLE_ERROR] Cycle-based error applied! address=0x9741ed68 additional_latency=173500 cycles
[ERROR_CYCLE] Error added at CPU cycle 388594053, next at 446238065, pending count: 1
[DRAM_CYCLE_ERROR] Cycle-based error applied! address=0x5d8d3a508 additional_latency=173500 cycles
Heartbeat CPU 0 instructions: 140000020 cycles: 391606855 heartbeat IPC: 0.3066 cumulative IPC: 0.3575 (Simulation time: 00 hr 38 min 59 sec)
Heartbeat CPU 0 instructions: 150000023 cycles: 441199441 heartbeat IPC: 0.2016 cumulative IPC: 0.34 (Simulation time: 00 hr 43 min 48 sec)
[ERROR_CYCLE] Error added at CPU cycle 446238066, next at 454133415, pending count: 1
[DRAM_CYCLE_ERROR] Cycle-based error applied! address=0x6dc2a6f48 additional_latency=173500 cycles
[ERROR_CYCLE] Error added at CPU cycle 454133415, next at 539692982, pending count: 1
[DRAM_CYCLE_ERROR] Cycle-based error applied! address=0x1c84e2c38 additional_latency=173500 cycles
Heartbeat CPU 0 instructions: 160000024 cycles: 457462943 heartbeat IPC: 0.6149 cumulative IPC: 0.3498 (Simulation time: 00 hr 45 min 37 sec)
Heartbeat CPU 0 instructions: 170000024 cycles: 467992788 heartbeat IPC: 0.9497 cumulative IPC: 0.3633 (Simulation time: 00 hr 46 min 52 sec)
Heartbeat CPU 0 instructions: 180000027 cycles: 515677557 heartbeat IPC: 0.2097 cumulative IPC: 0.3491 (Simulation time: 00 hr 50 min 42 sec)
Heartbeat CPU 0 instructions: 190000027 cycles: 526924479 heartbeat IPC: 0.8891 cumulative IPC: 0.3606 (Simulation time: 00 hr 52 min 04 sec)
[ERROR_CYCLE] Error added at CPU cycle 539692982, next at 551194342, pending count: 1
[DRAM_CYCLE_ERROR] Cycle-based error applied! address=0x99c757d0 additional_latency=173500 cycles
Heartbeat CPU 0 instructions: 200000027 cycles: 545082580 heartbeat IPC: 0.5507 cumulative IPC: 0.3669 (Simulation time: 00 hr 53 min 54 sec)
[ERROR_CYCLE] Error added at CPU cycle 551194342, next at 618463271, pending count: 1
[DRAM_CYCLE_ERROR] Cycle-based error applied! address=0x5cb5f96c0 additional_latency=173500 cycles
Heartbeat CPU 0 instructions: 210000027 cycles: 577092349 heartbeat IPC: 0.3124 cumulative IPC: 0.3639 (Simulation time: 00 hr 56 min 44 sec)
[ERROR_CYCLE] Error added at CPU cycle 618463271, next at 624429521, pending count: 1
[DRAM_CYCLE_ERROR] Cycle-based error applied! address=0x22d6cbeb8 additional_latency=173500 cycles
Heartbeat CPU 0 instructions: 220000029 cycles: 620084578 heartbeat IPC: 0.2326 cumulative IPC: 0.3548 (Simulation time: 01 hr 00 min 38 sec)
[ERROR_CYCLE] Error added at CPU cycle 624429521, next at 652969032, pending count: 1
[DRAM_CYCLE_ERROR] Cycle-based error applied! address=0x629bd0930 additional_latency=173500 cycles
Heartbeat CPU 0 instructions: 230000032 cycles: 641519237 heartbeat IPC: 0.4665 cumulative IPC: 0.3585 (Simulation time: 01 hr 02 min 31 sec)
[ERROR_CYCLE] Error added at CPU cycle 652969033, next at 657238516, pending count: 1
[DRAM_CYCLE_ERROR] Cycle-based error applied! address=0x150d8ae40 additional_latency=173500 cycles
[ERROR_CYCLE] Error added at CPU cycle 657238516, next at 663890677, pending count: 1
[DRAM_CYCLE_ERROR] Cycle-based error applied! address=0x7bd654850 additional_latency=173500 cycles
Heartbeat CPU 0 instructions: 240000033 cycles: 662775575 heartbeat IPC: 0.4704 cumulative IPC: 0.3621 (Simulation time: 01 hr 04 min 47 sec)
[ERROR_CYCLE] Error added at CPU cycle 663890677, next at 693244034, pending count: 1
[DRAM_CYCLE_ERROR] Cycle-based error applied! address=0x4a077dd20 additional_latency=173500 cycles
Heartbeat CPU 0 instructions: 250000033 cycles: 674799403 heartbeat IPC: 0.8317 cumulative IPC: 0.3705 (Simulation time: 01 hr 06 min 11 sec)
[ERROR_CYCLE] Error added at CPU cycle 693244035, next at 693408343, pending count: 1
[DRAM_CYCLE_ERROR] Cycle-based error applied! address=0x3c8b57450 additional_latency=173500 cycles
[ERROR_CYCLE] Error added at CPU cycle 693408343, next at 702111115, pending count: 1
[DRAM_CYCLE_ERROR] Cycle-based error applied! address=0x3a1cb45b0 additional_latency=173500 cycles
[ERROR_CYCLE] Error added at CPU cycle 702111115, next at 707431038, pending count: 1
[DRAM_CYCLE_ERROR] Cycle-based error applied! address=0x47ae64da0 additional_latency=173500 cycles
[ERROR_CYCLE] Error added at CPU cycle 707431038, next at 717157141, pending count: 1
[DRAM_CYCLE_ERROR] Cycle-based error applied! address=0x2290fa0e8 additional_latency=173500 cycles
[ERROR_CYCLE] Error added at CPU cycle 717157141, next at 719468166, pending count: 1
[DRAM_CYCLE_ERROR] Cycle-based error applied! address=0x1805543b0 additional_latency=173500 cycles
[ERROR_CYCLE] Error added at CPU cycle 719468166, next at 729931125, pending count: 1
[DRAM_CYCLE_ERROR] Cycle-based error applied! address=0x16ea6a408 additional_latency=173500 cycles
[ERROR_CYCLE] Error added at CPU cycle 729931125, next at 740327757, pending count: 1
[DRAM_CYCLE_ERROR] Cycle-based error applied! address=0x5622d1a00 additional_latency=173500 cycles
Heartbeat CPU 0 instructions: 260000033 cycles: 739433389 heartbeat IPC: 0.1547 cumulative IPC: 0.3516 (Simulation time: 01 hr 12 min 02 sec)
[ERROR_CYCLE] Error added at CPU cycle 740327757, next at 769723378, pending count: 1
[DRAM_CYCLE_ERROR] Cycle-based error applied! address=0x5d6c94140 additional_latency=173500 cycles
[ERROR_CYCLE] Error added at CPU cycle 769723378, next at 806610107, pending count: 1
[DRAM_CYCLE_ERROR] Cycle-based error applied! address=0x2f6146200 additional_latency=173500 cycles
[ERROR_CYCLE] Error added at CPU cycle 806610107, next at 816598203, pending count: 1
[DRAM_CYCLE_ERROR] Cycle-based error applied! address=0x554a3fba8 additional_latency=173500 cycles
[ERROR_CYCLE] Error added at CPU cycle 816598204, next at 829157728, pending count: 1
[DRAM_CYCLE_ERROR] Cycle-based error applied! address=0x280ca0168 additional_latency=173500 cycles
Heartbeat CPU 0 instructions: 270000033 cycles: 819423852 heartbeat IPC: 0.125 cumulative IPC: 0.3295 (Simulation time: 01 hr 19 min 11 sec)
[ERROR_CYCLE] Error added at CPU cycle 829157728, next at 831354542, pending count: 1
[DRAM_CYCLE_ERROR] Cycle-based error applied! address=0x3c55156d0 additional_latency=173500 cycles
[ERROR_CYCLE] Error added at CPU cycle 831354542, next at 835587951, pending count: 1
[DRAM_CYCLE_ERROR] Cycle-based error applied! address=0x4a2aa6ec0 additional_latency=173500 cycles
[ERROR_CYCLE] Error added at CPU cycle 835587951, next at 857924333, pending count: 1
[DRAM_CYCLE_ERROR] Cycle-based error applied! address=0x4444ae358 additional_latency=173500 cycles
Heartbeat CPU 0 instructions: 280000034 cycles: 845249629 heartbeat IPC: 0.3872 cumulative IPC: 0.3313 (Simulation time: 01 hr 21 min 35 sec)
[ERROR_CYCLE] Error added at CPU cycle 857924334, next at 870797452, pending count: 1
[DRAM_CYCLE_ERROR] Cycle-based error applied! address=0x66bdd6400 additional_latency=173500 cycles
[ERROR_CYCLE] Error added at CPU cycle 870797452, next at 903141115, pending count: 1
[DRAM_CYCLE_ERROR] Cycle-based error applied! address=0x793744618 additional_latency=173500 cycles
Heartbeat CPU 0 instructions: 290000037 cycles: 877581187 heartbeat IPC: 0.3093 cumulative IPC: 0.3305 (Simulation time: 01 hr 24 min 50 sec)
[ERROR_CYCLE] Error added at CPU cycle 903141115, next at 908832379, pending count: 1
[DRAM_CYCLE_ERROR] Cycle-based error applied! address=0x414a94c30 additional_latency=173500 cycles
[ERROR_CYCLE] Error added at CPU cycle 908832379, next at 935886573, pending count: 1
[DRAM_CYCLE_ERROR] Cycle-based error applied! address=0x1a89664d8 additional_latency=173500 cycles
Heartbeat CPU 0 instructions: 300000040 cycles: 911495604 heartbeat IPC: 0.2949 cumulative IPC: 0.3291 (Simulation time: 01 hr 28 min 14 sec)
Heartbeat CPU 0 instructions: 310000043 cycles: 932404687 heartbeat IPC: 0.4783 cumulative IPC: 0.3325 (Simulation time: 01 hr 30 min 28 sec)
[ERROR_CYCLE] Error added at CPU cycle 935886573, next at 958300697, pending count: 1
[DRAM_CYCLE_ERROR] Cycle-based error applied! address=0x684479ee8 additional_latency=173500 cycles
Heartbeat CPU 0 instructions: 320000043 cycles: 954428449 heartbeat IPC: 0.4541 cumulative IPC: 0.3353 (Simulation time: 01 hr 32 min 50 sec)
[ERROR_CYCLE] Error added at CPU cycle 958300698, next at 979637607, pending count: 1
[DRAM_CYCLE_ERROR] Cycle-based error applied! address=0x562794328 additional_latency=173500 cycles
[ERROR_CYCLE] Error added at CPU cycle 979637607, next at 984398776, pending count: 1
[DRAM_CYCLE_ERROR] Cycle-based error applied! address=0x46bc08bb8 additional_latency=173500 cycles
[ERROR_CYCLE] Error added at CPU cycle 984398776, next at 1002210124, pending count: 1
[DRAM_CYCLE_ERROR] Cycle-based error applied! address=0xcbdd7ea0 additional_latency=173500 cycles
Heartbeat CPU 0 instructions: 330000046 cycles: 991769765 heartbeat IPC: 0.2678 cumulative IPC: 0.3327 (Simulation time: 01 hr 36 min 33 sec)
[ERROR_CYCLE] Error added at CPU cycle 1002210124, next at 1032827874, pending count: 1
[DRAM_CYCLE_ERROR] Cycle-based error applied! address=0xa46423f0 additional_latency=173500 cycles
Heartbeat CPU 0 instructions: 340000049 cycles: 1006871363 heartbeat IPC: 0.6622 cumulative IPC: 0.3377 (Simulation time: 01 hr 38 min 03 sec)
Heartbeat CPU 0 instructions: 350000049 cycles: 1017399210 heartbeat IPC: 0.9499 cumulative IPC: 0.344 (Simulation time: 01 hr 39 min 00 sec)
[ERROR_CYCLE] Error added at CPU cycle 1032827875, next at 1046516285, pending count: 1
[DRAM_CYCLE_ERROR] Cycle-based error applied! address=0x7f5e09628 additional_latency=173500 cycles
[ERROR_CYCLE] Error added at CPU cycle 1046516285, next at 1048641051, pending count: 1
[DRAM_CYCLE_ERROR] Cycle-based error applied! address=0x3c374aa50 additional_latency=173500 cycles
[ERROR_CYCLE] Error added at CPU cycle 1048641052, next at 1090842597, pending count: 1
[DRAM_CYCLE_ERROR] Cycle-based error applied! address=0xe0e6380 additional_latency=173500 cycles
Heartbeat CPU 0 instructions: 360000049 cycles: 1050429828 heartbeat IPC: 0.3027 cumulative IPC: 0.3427 (Simulation time: 01 hr 42 min 03 sec)
Heartbeat CPU 0 instructions: 370000050 cycles: 1071734220 heartbeat IPC: 0.4694 cumulative IPC: 0.3452 (Simulation time: 01 hr 44 min 20 sec)
Heartbeat CPU 0 instructions: 380000050 cycles: 1088640542 heartbeat IPC: 0.5915 cumulative IPC: 0.3491 (Simulation time: 01 hr 46 min 14 sec)
[ERROR_CYCLE] Error added at CPU cycle 1090842598, next at 1110023097, pending count: 1
[DRAM_CYCLE_ERROR] Cycle-based error applied! address=0x5fc88fcf8 additional_latency=173500 cycles
[ERROR_CYCLE] Error added at CPU cycle 1110023098, next at 1133414207, pending count: 1
[DRAM_CYCLE_ERROR] Cycle-based error applied! address=0x2eba3b258 additional_latency=173500 cycles
Heartbeat CPU 0 instructions: 390000052 cycles: 1129025678 heartbeat IPC: 0.2476 cumulative IPC: 0.3454 (Simulation time: 01 hr 50 min 02 sec)
[ERROR_CYCLE] Error added at CPU cycle 1133414207, next at 1204668974, pending count: 1
[DRAM_CYCLE_ERROR] Cycle-based error applied! address=0x64d7a91a0 additional_latency=173500 cycles
Heartbeat CPU 0 instructions: 400000054 cycles: 1173629975 heartbeat IPC: 0.2242 cumulative IPC: 0.3408 (Simulation time: 01 hr 53 min 45 sec)
Heartbeat CPU 0 instructions: 410000054 cycles: 1190765663 heartbeat IPC: 0.5836 cumulative IPC: 0.3443 (Simulation time: 01 hr 55 min 01 sec)
Heartbeat CPU 0 instructions: 420000055 cycles: 1201771029 heartbeat IPC: 0.9086 cumulative IPC: 0.3495 (Simulation time: 01 hr 56 min 17 sec)
[ERROR_CYCLE] Error added at CPU cycle 1204668974, next at 1215603388, pending count: 1
[DRAM_CYCLE_ERROR] Cycle-based error applied! address=0x7bb135fa8 additional_latency=173500 cycles
[ERROR_CYCLE] Error added at CPU cycle 1215603389, next at 1217087080, pending count: 1
[DRAM_CYCLE_ERROR] Cycle-based error applied! address=0x23339aca8 additional_latency=173500 cycles
[ERROR_CYCLE] Error added at CPU cycle 1217087081, next at 1221310176, pending count: 1
[DRAM_CYCLE_ERROR] Cycle-based error applied! address=0x5359a1f0 additional_latency=173500 cycles
Heartbeat CPU 0 instructions: 430000056 cycles: 1220792219 heartbeat IPC: 0.5257 cumulative IPC: 0.3522 (Simulation time: 01 hr 58 min 05 sec)
[ERROR_CYCLE] Error added at CPU cycle 1221310177, next at 1226438693, pending count: 1
[DRAM_CYCLE_ERROR] Cycle-based error applied! address=0xb41e5d78 additional_latency=173500 cycles
[ERROR_CYCLE] Error added at CPU cycle 1226438693, next at 1227461842, pending count: 1
[DRAM_CYCLE_ERROR] Cycle-based error applied! address=0x68d9e1d18 additional_latency=173500 cycles
[ERROR_CYCLE] Error added at CPU cycle 1227461842, next at 1231373065, pending count: 1
[DRAM_CYCLE_ERROR] Cycle-based error applied! address=0x6c971f4e0 additional_latency=173500 cycles
[ERROR_CYCLE] Error added at CPU cycle 1231373065, next at 1247660783, pending count: 1
[DRAM_CYCLE_ERROR] Cycle-based error applied! address=0x494731ba0 additional_latency=173500 cycles
[ERROR_CYCLE] Error added at CPU cycle 1247660783, next at 1311009174, pending count: 1
[DRAM_CYCLE_ERROR] Cycle-based error applied! address=0x454a42ef8 additional_latency=173500 cycles
Heartbeat CPU 0 instructions: 440000056 cycles: 1269358495 heartbeat IPC: 0.2059 cumulative IPC: 0.3466 (Simulation time: 02 hr 01 min 56 sec)
Heartbeat CPU 0 instructions: 450000056 cycles: 1279797982 heartbeat IPC: 0.9579 cumulative IPC: 0.3516 (Simulation time: 02 hr 02 min 56 sec)
Heartbeat CPU 0 instructions: 460000059 cycles: 1298828391 heartbeat IPC: 0.5255 cumulative IPC: 0.3542 (Simulation time: 02 hr 04 min 36 sec)
Heartbeat CPU 0 instructions: 470000061 cycles: 1310778902 heartbeat IPC: 0.8368 cumulative IPC: 0.3586 (Simulation time: 02 hr 05 min 50 sec)
[ERROR_CYCLE] Error added at CPU cycle 1311009175, next at 1370592850, pending count: 1
[DRAM_CYCLE_ERROR] Cycle-based error applied! address=0x33a2070f0 additional_latency=173500 cycles
Heartbeat CPU 0 instructions: 480000061 cycles: 1325451807 heartbeat IPC: 0.6815 cumulative IPC: 0.3621 (Simulation time: 02 hr 07 min 13 sec)
[ERROR_CYCLE] Error added at CPU cycle 1370592850, next at 1384134719, pending count: 1
[DRAM_CYCLE_ERROR] Cycle-based error applied! address=0x506e89848 additional_latency=173500 cycles
Heartbeat CPU 0 instructions: 490000061 cycles: 1371338833 heartbeat IPC: 0.2179 cumulative IPC: 0.3573 (Simulation time: 02 hr 11 min 26 sec)
[ERROR_CYCLE] Error added at CPU cycle 1384134720, next at 1387121723, pending count: 1
[DRAM_CYCLE_ERROR] Cycle-based error applied! address=0x7dc7d118 additional_latency=173500 cycles
[ERROR_CYCLE] Error added at CPU cycle 1387121723, next at 1393135226, pending count: 1
[DRAM_CYCLE_ERROR] Cycle-based error applied! address=0xded848d0 additional_latency=173500 cycles
Heartbeat CPU 0 instructions: 500000064 cycles: 1390541137 heartbeat IPC: 0.5208 cumulative IPC: 0.3596 (Simulation time: 02 hr 13 min 14 sec)
[ERROR_CYCLE] Error added at CPU cycle 1393135226, next at 1410245518, pending count: 1
[DRAM_CYCLE_ERROR] Cycle-based error applied! address=0x6a5a08f0 additional_latency=173500 cycles
Heartbeat CPU 0 instructions: 510000067 cycles: 1410101136 heartbeat IPC: 0.5112 cumulative IPC: 0.3617 (Simulation time: 02 hr 15 min 25 sec)
[ERROR_CYCLE] Error added at CPU cycle 1410245519, next at 1495091885, pending count: 1
[DRAM_CYCLE_ERROR] Cycle-based error applied! address=0xaba17de8 additional_latency=173500 cycles
Heartbeat CPU 0 instructions: 520000068 cycles: 1423128825 heartbeat IPC: 0.7676 cumulative IPC: 0.3654 (Simulation time: 02 hr 16 min 58 sec)
Heartbeat CPU 0 instructions: 530000072 cycles: 1440064999 heartbeat IPC: 0.5905 cumulative IPC: 0.368 (Simulation time: 02 hr 18 min 53 sec)
Heartbeat CPU 0 instructions: 540000073 cycles: 1482519401 heartbeat IPC: 0.2355 cumulative IPC: 0.3642 (Simulation time: 02 hr 22 min 49 sec)
[ERROR_CYCLE] Error added at CPU cycle 1495091886, next at 1497338352, pending count: 1
[DRAM_CYCLE_ERROR] Cycle-based error applied! address=0x3ed178038 additional_latency=173500 cycles
[ERROR_CYCLE] Error added at CPU cycle 1497338352, next at 1510038978, pending count: 1
[DRAM_CYCLE_ERROR] Cycle-based error applied! address=0x4de41b000 additional_latency=173500 cycles
[ERROR_CYCLE] Error added at CPU cycle 1510038979, next at 1510994162, pending count: 1
[DRAM_CYCLE_ERROR] Cycle-based error applied! address=0x5c408b5c8 additional_latency=173500 cycles
[ERROR_CYCLE] Error added at CPU cycle 1510994163, next at 1517546185, pending count: 1
[DRAM_CYCLE_ERROR] Cycle-based error applied! address=0x511913ec8 additional_latency=173500 cycles
[ERROR_CYCLE] Error added at CPU cycle 1517546186, next at 1535864889, pending count: 1
[DRAM_CYCLE_ERROR] Cycle-based error applied! address=0x7826ec150 additional_latency=173500 cycles
[ERROR_CYCLE] Error added at CPU cycle 1535864889, next at 1536104601, pending count: 1
[DRAM_CYCLE_ERROR] Cycle-based error applied! address=0x50470dbf0 additional_latency=173500 cycles
[ERROR_CYCLE] Error added at CPU cycle 1536104602, next at 1536200138, pending count: 1
[DRAM_CYCLE_ERROR] Cycle-based error applied! address=0x4959e4e00 additional_latency=173500 cycles
[ERROR_CYCLE] Error added at CPU cycle 1536200139, next at 1536529969, pending count: 1
[DRAM_CYCLE_ERROR] Cycle-based error applied! address=0x26e71f20 additional_latency=173500 cycles
Heartbeat CPU 0 instructions: 550000073 cycles: 1536407528 heartbeat IPC: 0.1856 cumulative IPC: 0.358 (Simulation time: 02 hr 27 min 18 sec)
[ERROR_CYCLE] Error added at CPU cycle 1536529970, next at 1546953656, pending count: 1
[DRAM_CYCLE_ERROR] Cycle-based error applied! address=0x4fdf738f8 additional_latency=173500 cycles
[ERROR_CYCLE] Error added at CPU cycle 1546953657, next at 1550817592, pending count: 1
[DRAM_CYCLE_ERROR] Cycle-based error applied! address=0x6cd1a5bb0 additional_latency=173500 cycles
[ERROR_CYCLE] Error added at CPU cycle 1550817592, next at 1552955133, pending count: 1
[DRAM_CYCLE_ERROR] Cycle-based error applied! address=0x25069b48 additional_latency=173500 cycles
[ERROR_CYCLE] Error added at CPU cycle 1552955133, next at 1564110624, pending count: 1
[DRAM_CYCLE_ERROR] Cycle-based error applied! address=0x476685b28 additional_latency=173500 cycles
[ERROR_CYCLE] Error added at CPU cycle 1564110624, next at 1586732392, pending count: 1
[DRAM_CYCLE_ERROR] Cycle-based error applied! address=0x57dbcadf8 additional_latency=173500 cycles
[ERROR_CYCLE] Error added at CPU cycle 1586732392, next at 1601477251, pending count: 1
[DRAM_CYCLE_ERROR] Cycle-based error applied! address=0x2531d0d78 additional_latency=173500 cycles
Heartbeat CPU 0 instructions: 560000073 cycles: 1589009225 heartbeat IPC: 0.1901 cumulative IPC: 0.3524 (Simulation time: 02 hr 31 min 33 sec)
[ERROR_CYCLE] Error added at CPU cycle 1601477251, next at 1609406957, pending count: 1
[DRAM_CYCLE_ERROR] Cycle-based error applied! address=0x42d4fe1f8 additional_latency=173500 cycles
[ERROR_CYCLE] Error added at CPU cycle 1609406957, next at 1625268224, pending count: 1
[DRAM_CYCLE_ERROR] Cycle-based error applied! address=0x770b6cd38 additional_latency=173500 cycles
[ERROR_CYCLE] Error added at CPU cycle 1625268225, next at 1650504061, pending count: 1
[DRAM_CYCLE_ERROR] Cycle-based error applied! address=0x285cacbb0 additional_latency=173500 cycles
Heartbeat CPU 0 instructions: 570000073 cycles: 1640307021 heartbeat IPC: 0.1949 cumulative IPC: 0.3475 (Simulation time: 02 hr 36 min 11 sec)
[ERROR_CYCLE] Error added at CPU cycle 1650504061, next at 1660874937, pending count: 1
[DRAM_CYCLE_ERROR] Cycle-based error applied! address=0x2f781db20 additional_latency=173500 cycles
[ERROR_CYCLE] Error added at CPU cycle 1660874938, next at 1677870285, pending count: 1
[DRAM_CYCLE_ERROR] Cycle-based error applied! address=0x115686cf0 additional_latency=173500 cycles
[ERROR_CYCLE] Error added at CPU cycle 1677870285, next at 1723608311, pending count: 1
[DRAM_CYCLE_ERROR] Cycle-based error applied! address=0x79bead900 additional_latency=173500 cycles
Heartbeat CPU 0 instructions: 580000076 cycles: 1690743914 heartbeat IPC: 0.1983 cumulative IPC: 0.343 (Simulation time: 02 hr 40 min 04 sec)
[ERROR_CYCLE] Error added at CPU cycle 1723608312, next at 1728278484, pending count: 1
[DRAM_CYCLE_ERROR] Cycle-based error applied! address=0xc7d888b8 additional_latency=173500 cycles
[ERROR_CYCLE] Error added at CPU cycle 1728278484, next at 1766089605, pending count: 1
[DRAM_CYCLE_ERROR] Cycle-based error applied! address=0xea6ee5f8 additional_latency=173500 cycles
Heartbeat CPU 0 instructions: 590000079 cycles: 1742046526 heartbeat IPC: 0.1949 cumulative IPC: 0.3387 (Simulation time: 02 hr 44 min 57 sec)
[ERROR_CYCLE] Error added at CPU cycle 1766089606, next at 1770934277, pending count: 1
[DRAM_CYCLE_ERROR] Cycle-based error applied! address=0x6b4f54e70 additional_latency=173500 cycles
[ERROR_CYCLE] Error added at CPU cycle 1770934277, next at 1774352128, pending count: 1
[DRAM_CYCLE_ERROR] Cycle-based error applied! address=0x5a7b6ffc0 additional_latency=173500 cycles
[ERROR_CYCLE] Error added at CPU cycle 1774352128, next at 1782866587, pending count: 1
[DRAM_CYCLE_ERROR] Cycle-based error applied! address=0x121e552b0 additional_latency=173500 cycles
[ERROR_CYCLE] Error added at CPU cycle 1782866587, next at 1820284123, pending count: 1
[DRAM_CYCLE_ERROR] Cycle-based error applied! address=0x324dd6cf8 additional_latency=173500 cycles
Heartbeat CPU 0 instructions: 600000079 cycles: 1792358565 heartbeat IPC: 0.1988 cumulative IPC: 0.3348 (Simulation time: 02 hr 49 min 39 sec)
[ERROR_CYCLE] Error added at CPU cycle 1820284123, next at 1824911850, pending count: 1
[DRAM_CYCLE_ERROR] Cycle-based error applied! address=0x42d2745b8 additional_latency=173500 cycles
[ERROR_CYCLE] Error added at CPU cycle 1824911850, next at 1840904991, pending count: 1
[DRAM_CYCLE_ERROR] Cycle-based error applied! address=0x759ce25f8 additional_latency=173500 cycles
[ERROR_CYCLE] Error added at CPU cycle 1840904991, next at 1850717951, pending count: 1
[DRAM_CYCLE_ERROR] Cycle-based error applied! address=0x5ce429410 additional_latency=173500 cycles
Heartbeat CPU 0 instructions: 610000079 cycles: 1842648690 heartbeat IPC: 0.1988 cumulative IPC: 0.331 (Simulation time: 02 hr 53 min 57 sec)
[ERROR_CYCLE] Error added at CPU cycle 1850717952, next at 1856417162, pending count: 1
[DRAM_CYCLE_ERROR] Cycle-based error applied! address=0x5269d5b80 additional_latency=173500 cycles
[ERROR_CYCLE] Error added at CPU cycle 1856417162, next at 1871102489, pending count: 1
[DRAM_CYCLE_ERROR] Cycle-based error applied! address=0x1157c5bb8 additional_latency=173500 cycles
[ERROR_CYCLE] Error added at CPU cycle 1871102489, next at 1880555423, pending count: 1
[DRAM_CYCLE_ERROR] Cycle-based error applied! address=0x79f2dbde0 additional_latency=173500 cycles
[ERROR_CYCLE] Error added at CPU cycle 1880555424, next at 1882723832, pending count: 1
[DRAM_CYCLE_ERROR] Cycle-based error applied! address=0x390cf2c78 additional_latency=173500 cycles
[ERROR_CYCLE] Error added at CPU cycle 1882723832, next at 1888263422, pending count: 1
[DRAM_CYCLE_ERROR] Cycle-based error applied! address=0x6371ff878 additional_latency=173500 cycles
[ERROR_CYCLE] Error added at CPU cycle 1888263423, next at 1931662504, pending count: 1
[DRAM_CYCLE_ERROR] Cycle-based error applied! address=0x68f308c00 additional_latency=173500 cycles
Heartbeat CPU 0 instructions: 620000083 cycles: 1890461321 heartbeat IPC: 0.2091 cumulative IPC: 0.328 (Simulation time: 02 hr 57 min 58 sec)
[ERROR_CYCLE] Error added at CPU cycle 1931662505, next at 1956460230, pending count: 1
[DRAM_CYCLE_ERROR] Cycle-based error applied! address=0x7c116b1c0 additional_latency=173500 cycles
Heartbeat CPU 0 instructions: 630000083 cycles: 1937645824 heartbeat IPC: 0.2119 cumulative IPC: 0.3251 (Simulation time: 03 hr 01 min 48 sec)
[ERROR_CYCLE] Error added at CPU cycle 1956460230, next at 1990691982, pending count: 1
[DRAM_CYCLE_ERROR] Cycle-based error applied! address=0xeb317e98 additional_latency=173500 cycles
Heartbeat CPU 0 instructions: 640000083 cycles: 1983319860 heartbeat IPC: 0.2189 cumulative IPC: 0.3227 (Simulation time: 03 hr 05 min 12 sec)
[ERROR_CYCLE] Error added at CPU cycle 1990691983, next at 2002969234, pending count: 1
[DRAM_CYCLE_ERROR] Cycle-based error applied! address=0x6ff76a988 additional_latency=173500 cycles
[ERROR_CYCLE] Error added at CPU cycle 2002969235, next at 2021944118, pending count: 1
[DRAM_CYCLE_ERROR] Cycle-based error applied! address=0x2bd1e76c8 additional_latency=173500 cycles
[ERROR_CYCLE] Error added at CPU cycle 2021944118, next at 2026901677, pending count: 1
[DRAM_CYCLE_ERROR] Cycle-based error applied! address=0x435fa4ac8 additional_latency=173500 cycles
[ERROR_CYCLE] Error added at CPU cycle 2026901678, next at 2055700755, pending count: 1
[DRAM_CYCLE_ERROR] Cycle-based error applied! address=0x4f5f19298 additional_latency=173500 cycles
Heartbeat CPU 0 instructions: 650000083 cycles: 2037464795 heartbeat IPC: 0.1847 cumulative IPC: 0.319 (Simulation time: 03 hr 09 min 33 sec)
[ERROR_CYCLE] Error added at CPU cycle 2055700756, next at 2080720382, pending count: 1
[DRAM_CYCLE_ERROR] Cycle-based error applied! address=0x5187ffbf0 additional_latency=173500 cycles
[ERROR_CYCLE] Error added at CPU cycle 2080720382, next at 2096483937, pending count: 1
[DRAM_CYCLE_ERROR] Cycle-based error applied! address=0x15749c480 additional_latency=173500 cycles
[ERROR_CYCLE] Error added at CPU cycle 2096483938, next at 2115215464, pending count: 1
[DRAM_CYCLE_ERROR] Cycle-based error applied! address=0x1c0bfd1d0 additional_latency=173500 cycles
Heartbeat CPU 0 instructions: 660000084 cycles: 2097285954 heartbeat IPC: 0.1672 cumulative IPC: 0.3147 (Simulation time: 03 hr 14 min 20 sec)
[ERROR_CYCLE] Error added at CPU cycle 2115215464, next at 2156079118, pending count: 1
[DRAM_CYCLE_ERROR] Cycle-based error applied! address=0x4c6b0e920 additional_latency=173500 cycles
[ERROR_CYCLE] Error added at CPU cycle 2156079118, next at 2186455794, pending count: 1
[DRAM_CYCLE_ERROR] Cycle-based error applied! address=0x7d4d70c0 additional_latency=173500 cycles
Heartbeat CPU 0 instructions: 670000085 cycles: 2159451856 heartbeat IPC: 0.1609 cumulative IPC: 0.3103 (Simulation time: 03 hr 20 min 12 sec)
[ERROR_CYCLE] Error added at CPU cycle 2186455794, next at 2190751094, pending count: 1
[DRAM_CYCLE_ERROR] Cycle-based error applied! address=0x557f6ca00 additional_latency=173500 cycles
[ERROR_CYCLE] Error added at CPU cycle 2190751094, next at 2203609064, pending count: 1
[DRAM_CYCLE_ERROR] Cycle-based error applied! address=0x5e97c88c0 additional_latency=173500 cycles
[ERROR_CYCLE] Error added at CPU cycle 2203609065, next at 2214159380, pending count: 1
[DRAM_CYCLE_ERROR] Cycle-based error applied! address=0x7eec30490 additional_latency=173500 cycles
[ERROR_CYCLE] Error added at CPU cycle 2214159380, next at 2230637612, pending count: 1
[DRAM_CYCLE_ERROR] Cycle-based error applied! address=0x2c6231740 additional_latency=173500 cycles
Heartbeat CPU 0 instructions: 680000088 cycles: 2228925519 heartbeat IPC: 0.1439 cumulative IPC: 0.3051 (Simulation time: 03 hr 26 min 48 sec)
[ERROR_CYCLE] Error added at CPU cycle 2230637613, next at 2270016408, pending count: 1
[DRAM_CYCLE_ERROR] Cycle-based error applied! address=0x273533b18 additional_latency=173500 cycles
[ERROR_CYCLE] Error added at CPU cycle 2270016408, next at 2281965406, pending count: 1
[DRAM_CYCLE_ERROR] Cycle-based error applied! address=0x23ad4d728 additional_latency=173500 cycles
[ERROR_CYCLE] Error added at CPU cycle 2281965407, next at 2308166669, pending count: 1
[DRAM_CYCLE_ERROR] Cycle-based error applied! address=0x1182469e8 additional_latency=173500 cycles
Heartbeat CPU 0 instructions: 690000088 cycles: 2287118249 heartbeat IPC: 0.1718 cumulative IPC: 0.3017 (Simulation time: 03 hr 32 min 37 sec)
[ERROR_CYCLE] Error added at CPU cycle 2308166669, next at 2310133715, pending count: 1
[DRAM_CYCLE_ERROR] Cycle-based error applied! address=0x79bd43d70 additional_latency=173500 cycles
[ERROR_CYCLE] Error added at CPU cycle 2310133715, next at 2328361967, pending count: 1
[DRAM_CYCLE_ERROR] Cycle-based error applied! address=0x6e93a2490 additional_latency=173500 cycles
Heartbeat CPU 0 instructions: 700000089 cycles: 2320926644 heartbeat IPC: 0.2958 cumulative IPC: 0.3016 (Simulation time: 03 hr 36 min 04 sec)
[ERROR_CYCLE] Error added at CPU cycle 2328361967, next at 2340105462, pending count: 1
[DRAM_CYCLE_ERROR] Cycle-based error applied! address=0x7aadb9e48 additional_latency=173500 cycles
Heartbeat CPU 0 instructions: 710000089 cycles: 2338531015 heartbeat IPC: 0.568 cumulative IPC: 0.3036 (Simulation time: 03 hr 38 min 00 sec)
[ERROR_CYCLE] Error added at CPU cycle 2340105462, next at 2402319102, pending count: 1
[DRAM_CYCLE_ERROR] Cycle-based error applied! address=0x6697fb860 additional_latency=173500 cycles
Heartbeat CPU 0 instructions: 720000089 cycles: 2359155414 heartbeat IPC: 0.4849 cumulative IPC: 0.3052 (Simulation time: 03 hr 40 min 13 sec)
Heartbeat CPU 0 instructions: 730000090 cycles: 2375519175 heartbeat IPC: 0.6111 cumulative IPC: 0.3073 (Simulation time: 03 hr 42 min 02 sec)
Heartbeat CPU 0 instructions: 740000091 cycles: 2386621049 heartbeat IPC: 0.9007 cumulative IPC: 0.3101 (Simulation time: 03 hr 43 min 21 sec)
[ERROR_CYCLE] Error added at CPU cycle 2402319102, next at 2439607509, pending count: 1
[DRAM_CYCLE_ERROR] Cycle-based error applied! address=0x316165c0 additional_latency=173500 cycles
Heartbeat CPU 0 instructions: 750000093 cycles: 2409843300 heartbeat IPC: 0.4306 cumulative IPC: 0.3112 (Simulation time: 03 hr 45 min 49 sec)
Heartbeat CPU 0 instructions: 760000093 cycles: 2420975334 heartbeat IPC: 0.8983 cumulative IPC: 0.3139 (Simulation time: 03 hr 47 min 10 sec)
Heartbeat CPU 0 instructions: 770000094 cycles: 2435703876 heartbeat IPC: 0.679 cumulative IPC: 0.3161 (Simulation time: 03 hr 48 min 50 sec)
[ERROR_CYCLE] Error added at CPU cycle 2439607509, next at 2444065107, pending count: 1
[DRAM_CYCLE_ERROR] Cycle-based error applied! address=0x3e1830ca0 additional_latency=173500 cycles
[ERROR_CYCLE] Error added at CPU cycle 2444065107, next at 2449579755, pending count: 1
[DRAM_CYCLE_ERROR] Cycle-based error applied! address=0x226ffac0 additional_latency=173500 cycles
[ERROR_CYCLE] Error added at CPU cycle 2449579756, next at 2462957722, pending count: 1
[DRAM_CYCLE_ERROR] Cycle-based error applied! address=0x268fe4038 additional_latency=173500 cycles
Heartbeat CPU 0 instructions: 780000094 cycles: 2461177209 heartbeat IPC: 0.3926 cumulative IPC: 0.3169 (Simulation time: 03 hr 51 min 26 sec)
[ERROR_CYCLE] Error added at CPU cycle 2462957722, next at 2463824289, pending count: 1
[DRAM_CYCLE_ERROR] Cycle-based error applied! address=0x1b1573868 additional_latency=173500 cycles
[ERROR_CYCLE] Error added at CPU cycle 2463824290, next at 2472536865, pending count: 1
[DRAM_CYCLE_ERROR] Cycle-based error applied! address=0x416066180 additional_latency=173500 cycles
[ERROR_CYCLE] Error added at CPU cycle 2472536866, next at 2501237508, pending count: 1
[DRAM_CYCLE_ERROR] Cycle-based error applied! address=0x5e4569f0 additional_latency=173500 cycles
Heartbeat CPU 0 instructions: 790000095 cycles: 2486888870 heartbeat IPC: 0.3889 cumulative IPC: 0.3177 (Simulation time: 03 hr 54 min 09 sec)
[VMEM] WARNING: Out of physical memory, freeing ppages
[ERROR_CYCLE] Error added at CPU cycle 2501237508, next at 2587728696, pending count: 1
[DRAM_CYCLE_ERROR] Cycle-based error applied! address=0x596089460 additional_latency=173500 cycles
Heartbeat CPU 0 instructions: 800000097 cycles: 2531276511 heartbeat IPC: 0.2253 cumulative IPC: 0.316 (Simulation time: 03 hr 58 min 28 sec)
Heartbeat CPU 0 instructions: 810000099 cycles: 2565644185 heartbeat IPC: 0.291 cumulative IPC: 0.3157 (Simulation time: 04 hr 01 min 55 sec)
[ERROR_CYCLE] Error added at CPU cycle 2587728697, next at 2609762396, pending count: 1
[DRAM_CYCLE_ERROR] Cycle-based error applied! address=0x53bacdef0 additional_latency=173500 cycles
Heartbeat CPU 0 instructions: 820000099 cycles: 2593196081 heartbeat IPC: 0.363 cumulative IPC: 0.3162 (Simulation time: 04 hr 04 min 45 sec)
[ERROR_CYCLE] Error added at CPU cycle 2609762396, next at 2629677545, pending count: 1
[DRAM_CYCLE_ERROR] Cycle-based error applied! address=0x2916c9f50 additional_latency=173500 cycles
Heartbeat CPU 0 instructions: 830000099 cycles: 2613443202 heartbeat IPC: 0.4939 cumulative IPC: 0.3176 (Simulation time: 04 hr 06 min 54 sec)
[ERROR_CYCLE] Error added at CPU cycle 2629677546, next at 2642652042, pending count: 1
[DRAM_CYCLE_ERROR] Cycle-based error applied! address=0x9ecc8198 additional_latency=173500 cycles
[ERROR_CYCLE] Error added at CPU cycle 2642652042, next at 2669559137, pending count: 1
[DRAM_CYCLE_ERROR] Cycle-based error applied! address=0x6ff9142c8 additional_latency=173500 cycles
Heartbeat CPU 0 instructions: 840000102 cycles: 2655995781 heartbeat IPC: 0.235 cumulative IPC: 0.3163 (Simulation time: 04 hr 10 min 38 sec)
[ERROR_CYCLE] Error added at CPU cycle 2669559137, next at 2683325685, pending count: 1
[DRAM_CYCLE_ERROR] Cycle-based error applied! address=0x2c4ee0160 additional_latency=173500 cycles
[ERROR_CYCLE] Error added at CPU cycle 2683325685, next at 2683916028, pending count: 1
[DRAM_CYCLE_ERROR] Cycle-based error applied! address=0x26fd69b18 additional_latency=173500 cycles
[ERROR_CYCLE] Error added at CPU cycle 2683916029, next at 2694889843, pending count: 1
[DRAM_CYCLE_ERROR] Cycle-based error applied! address=0x5bf2e21a8 additional_latency=173500 cycles
Heartbeat CPU 0 instructions: 850000102 cycles: 2689627759 heartbeat IPC: 0.2973 cumulative IPC: 0.316 (Simulation time: 04 hr 14 min 05 sec)
[ERROR_CYCLE] Error added at CPU cycle 2694889844, next at 2697779375, pending count: 1
[DRAM_CYCLE_ERROR] Cycle-based error applied! address=0x2d616d700 additional_latency=173500 cycles
[ERROR_CYCLE] Error added at CPU cycle 2697779375, next at 2740737872, pending count: 1
[DRAM_CYCLE_ERROR] Cycle-based error applied! address=0x142dc6838 additional_latency=173500 cycles
Heartbeat CPU 0 instructions: 860000105 cycles: 2706974043 heartbeat IPC: 0.5765 cumulative IPC: 0.3177 (Simulation time: 04 hr 16 min 01 sec)
Heartbeat CPU 0 instructions: 870000108 cycles: 2717988180 heartbeat IPC: 0.9079 cumulative IPC: 0.3201 (Simulation time: 04 hr 17 min 22 sec)
Heartbeat CPU 0 instructions: 880000108 cycles: 2739688391 heartbeat IPC: 0.4608 cumulative IPC: 0.3212 (Simulation time: 04 hr 19 min 42 sec)
[ERROR_CYCLE] Error added at CPU cycle 2740737873, next at 2755314870, pending count: 1
[DRAM_CYCLE_ERROR] Cycle-based error applied! address=0x72a9ae918 additional_latency=173500 cycles
[ERROR_CYCLE] Error added at CPU cycle 2755314871, next at 2836084048, pending count: 1
[DRAM_CYCLE_ERROR] Cycle-based error applied! address=0x150c36b8 additional_latency=173500 cycles
Heartbeat CPU 0 instructions: 890000108 cycles: 2757981067 heartbeat IPC: 0.5467 cumulative IPC: 0.3227 (Simulation time: 04 hr 21 min 42 sec)
Heartbeat CPU 0 instructions: 900000112 cycles: 2795276217 heartbeat IPC: 0.2681 cumulative IPC: 0.322 (Simulation time: 04 hr 25 min 22 sec)
Heartbeat CPU 0 instructions: 910000112 cycles: 2811517844 heartbeat IPC: 0.6157 cumulative IPC: 0.3237 (Simulation time: 04 hr 26 min 38 sec)
Heartbeat CPU 0 instructions: 920000112 cycles: 2835570307 heartbeat IPC: 0.4158 cumulative IPC: 0.3244 (Simulation time: 04 hr 29 min 06 sec)
[ERROR_CYCLE] Error added at CPU cycle 2836084048, next at 2857549496, pending count: 1
[DRAM_CYCLE_ERROR] Cycle-based error applied! address=0x499870968 additional_latency=173500 cycles
Heartbeat CPU 0 instructions: 930000112 cycles: 2854130212 heartbeat IPC: 0.5388 cumulative IPC: 0.3258 (Simulation time: 04 hr 31 min 10 sec)
[ERROR_CYCLE] Error added at CPU cycle 2857549497, next at 2861319284, pending count: 1
[DRAM_CYCLE_ERROR] Cycle-based error applied! address=0x3a9a7d538 additional_latency=173500 cycles
[ERROR_CYCLE] Error added at CPU cycle 2861319284, next at 2869611211, pending count: 1
[DRAM_CYCLE_ERROR] Cycle-based error applied! address=0x17cb7d340 additional_latency=173500 cycles
[ERROR_CYCLE] Error added at CPU cycle 2869611212, next at 2879820063, pending count: 1
[DRAM_CYCLE_ERROR] Cycle-based error applied! address=0x65f254090 additional_latency=173500 cycles
[ERROR_CYCLE] Error added at CPU cycle 2879820063, next at 2910531012, pending count: 1
[DRAM_CYCLE_ERROR] Cycle-based error applied! address=0x41d214bc0 additional_latency=173500 cycles
Heartbeat CPU 0 instructions: 940000116 cycles: 2907804823 heartbeat IPC: 0.1863 cumulative IPC: 0.3233 (Simulation time: 04 hr 35 min 58 sec)
[ERROR_CYCLE] Error added at CPU cycle 2910531012, next at 2912162307, pending count: 1
[DRAM_CYCLE_ERROR] Cycle-based error applied! address=0x618c92890 additional_latency=173500 cycles
[ERROR_CYCLE] Error added at CPU cycle 2912162308, next at 2919266385, pending count: 1
[DRAM_CYCLE_ERROR] Cycle-based error applied! address=0x4def2abe0 additional_latency=173500 cycles
[ERROR_CYCLE] Error added at CPU cycle 2919266385, next at 2941170340, pending count: 1
[DRAM_CYCLE_ERROR] Cycle-based error applied! address=0x78e6fdd58 additional_latency=173500 cycles
[ERROR_CYCLE] Error added at CPU cycle 2941170340, next at 2945899327, pending count: 1
[DRAM_CYCLE_ERROR] Cycle-based error applied! address=0x64ea553d0 additional_latency=173500 cycles
[ERROR_CYCLE] Error added at CPU cycle 2945899327, next at 2966346307, pending count: 1
[DRAM_CYCLE_ERROR] Cycle-based error applied! address=0x4485e8460 additional_latency=173500 cycles
[ERROR_CYCLE] Error added at CPU cycle 2966346308, next at 2969022363, pending count: 1
[DRAM_CYCLE_ERROR] Cycle-based error applied! address=0x4ce4bcb98 additional_latency=173500 cycles
[ERROR_CYCLE] Error added at CPU cycle 2969022363, next at 2984652203, pending count: 1
[DRAM_CYCLE_ERROR] Cycle-based error applied! address=0x4520bd040 additional_latency=173500 cycles
Heartbeat CPU 0 instructions: 950000116 cycles: 2969276150 heartbeat IPC: 0.1627 cumulative IPC: 0.3199 (Simulation time: 04 hr 41 min 16 sec)
[ERROR_CYCLE] Error added at CPU cycle 2984652203, next at 2996806307, pending count: 1
[DRAM_CYCLE_ERROR] Cycle-based error applied! address=0x1d26e23c0 additional_latency=173500 cycles
[ERROR_CYCLE] Error added at CPU cycle 2996806307, next at 3000348423, pending count: 1
[DRAM_CYCLE_ERROR] Cycle-based error applied! address=0x15e99e420 additional_latency=173500 cycles
[ERROR_CYCLE] Error added at CPU cycle 3000348424, next at 3009363937, pending count: 1
[DRAM_CYCLE_ERROR] Cycle-based error applied! address=0xf58a2bb8 additional_latency=173500 cycles
Heartbeat CPU 0 instructions: 960000116 cycles: 3000723546 heartbeat IPC: 0.318 cumulative IPC: 0.3199 (Simulation time: 04 hr 44 min 28 sec)
[ERROR_CYCLE] Error added at CPU cycle 3009363938, next at 3016352858, pending count: 1
[DRAM_CYCLE_ERROR] Cycle-based error applied! address=0x3b024e538 additional_latency=173500 cycles
Heartbeat CPU 0 instructions: 970000116 cycles: 3016002290 heartbeat IPC: 0.6545 cumulative IPC: 0.3216 (Simulation time: 04 hr 46 min 12 sec)
[ERROR_CYCLE] Error added at CPU cycle 3016352859, next at 3021961251, pending count: 1
[DRAM_CYCLE_ERROR] Cycle-based error applied! address=0x254e318d8 additional_latency=173500 cycles
[ERROR_CYCLE] Error added at CPU cycle 3021961251, next at 3081013196, pending count: 1
[DRAM_CYCLE_ERROR] Cycle-based error applied! address=0x3b1140000 additional_latency=173500 cycles
Heartbeat CPU 0 instructions: 980000117 cycles: 3028991089 heartbeat IPC: 0.7699 cumulative IPC: 0.3235 (Simulation time: 04 hr 47 min 40 sec)
Heartbeat CPU 0 instructions: 990000117 cycles: 3054700520 heartbeat IPC: 0.389 cumulative IPC: 0.3241 (Simulation time: 04 hr 50 min 17 sec)
Heartbeat CPU 0 instructions: 1000000120 cycles: 3070030220 heartbeat IPC: 0.6523 cumulative IPC: 0.3257 (Simulation time: 04 hr 51 min 59 sec)
[ERROR_CYCLE] Error added at CPU cycle 3081013197, next at 3091267831, pending count: 1
[DRAM_CYCLE_ERROR] Cycle-based error applied! address=0x635b13538 additional_latency=173500 cycles
Heartbeat CPU 0 instructions: 1010000121 cycles: 3087498260 heartbeat IPC: 0.5725 cumulative IPC: 0.3271 (Simulation time: 04 hr 53 min 50 sec)
[ERROR_CYCLE] Error added at CPU cycle 3091267831, next at 3110764276, pending count: 1
[DRAM_CYCLE_ERROR] Cycle-based error applied! address=0x776612000 additional_latency=173500 cycles
Heartbeat CPU 0 instructions: 1020000121 cycles: 3107831216 heartbeat IPC: 0.4918 cumulative IPC: 0.3282 (Simulation time: 04 hr 56 min 03 sec)
[ERROR_CYCLE] Error added at CPU cycle 3110764277, next at 3118759855, pending count: 1
[DRAM_CYCLE_ERROR] Cycle-based error applied! address=0x4c95a0cc0 additional_latency=173500 cycles
[ERROR_CYCLE] Error added at CPU cycle 3118759855, next at 3136500958, pending count: 1
[DRAM_CYCLE_ERROR] Cycle-based error applied! address=0x3cddf3670 additional_latency=173500 cycles
Heartbeat CPU 0 instructions: 1030000121 cycles: 3125125096 heartbeat IPC: 0.5782 cumulative IPC: 0.3296 (Simulation time: 04 hr 57 min 56 sec)
[ERROR_CYCLE] Error added at CPU cycle 3136500959, next at 3136794186, pending count: 1
[DRAM_CYCLE_ERROR] Cycle-based error applied! address=0x1243410c0 additional_latency=173500 cycles
[ERROR_CYCLE] Error added at CPU cycle 3136794186, next at 3142409251, pending count: 1
[DRAM_CYCLE_ERROR] Cycle-based error applied! address=0x4f8a2f8d0 additional_latency=173500 cycles
[ERROR_CYCLE] Error added at CPU cycle 3142409251, next at 3144803586, pending count: 1
[DRAM_CYCLE_ERROR] Cycle-based error applied! address=0x2ab3e42f0 additional_latency=173500 cycles
[ERROR_CYCLE] Error added at CPU cycle 3144803587, next at 3171139121, pending count: 1
[DRAM_CYCLE_ERROR] Cycle-based error applied! address=0x3ba076c40 additional_latency=173500 cycles
Heartbeat CPU 0 instructions: 1040000123 cycles: 3145186574 heartbeat IPC: 0.4985 cumulative IPC: 0.3307 (Simulation time: 05 hr 00 min 00 sec)
[ERROR_CYCLE] Error added at CPU cycle 3171139121, next at 3172859270, pending count: 1
[DRAM_CYCLE_ERROR] Cycle-based error applied! address=0x30c53e7f0 additional_latency=173500 cycles
[ERROR_CYCLE] Error added at CPU cycle 3172859271, next at 3196397175, pending count: 1
[DRAM_CYCLE_ERROR] Cycle-based error applied! address=0x4ba147ce8 additional_latency=173500 cycles
[ERROR_CYCLE] Error added at CPU cycle 3196397175, next at 3219866144, pending count: 1
[DRAM_CYCLE_ERROR] Cycle-based error applied! address=0xb11383a8 additional_latency=173500 cycles
Heartbeat CPU 0 instructions: 1050000123 cycles: 3217809623 heartbeat IPC: 0.1377 cumulative IPC: 0.3263 (Simulation time: 05 hr 06 min 21 sec)
[ERROR_CYCLE] Error added at CPU cycle 3219866144, next at 3251755385, pending count: 1
[DRAM_CYCLE_ERROR] Cycle-based error applied! address=0x320c50ad0 additional_latency=173500 cycles
[ERROR_CYCLE] Error added at CPU cycle 3251755385, next at 3273579738, pending count: 1
[DRAM_CYCLE_ERROR] Cycle-based error applied! address=0x18a1a8948 additional_latency=173500 cycles
[ERROR_CYCLE] Error added at CPU cycle 3273579738, next at 3289593014, pending count: 1
[DRAM_CYCLE_ERROR] Cycle-based error applied! address=0xfa395ee8 additional_latency=173500 cycles
Heartbeat CPU 0 instructions: 1060000125 cycles: 3276568093 heartbeat IPC: 0.1702 cumulative IPC: 0.3235 (Simulation time: 05 hr 11 min 25 sec)
[ERROR_CYCLE] Error added at CPU cycle 3289593014, next at 3303720912, pending count: 1
[DRAM_CYCLE_ERROR] Cycle-based error applied! address=0x7343e7730 additional_latency=173500 cycles
Heartbeat CPU 0 instructions: 1070000125 cycles: 3290324193 heartbeat IPC: 0.727 cumulative IPC: 0.3252 (Simulation time: 05 hr 12 min 54 sec)
[ERROR_CYCLE] Error added at CPU cycle 3303720912, next at 3307619965, pending count: 1
[DRAM_CYCLE_ERROR] Cycle-based error applied! address=0x4c5104898 additional_latency=173500 cycles
Heartbeat CPU 0 instructions: 1080000129 cycles: 3304539566 heartbeat IPC: 0.7035 cumulative IPC: 0.3268 (Simulation time: 05 hr 14 min 35 sec)
[ERROR_CYCLE] Error added at CPU cycle 3307619965, next at 3314758845, pending count: 1
[DRAM_CYCLE_ERROR] Cycle-based error applied! address=0x2dd4bac90 additional_latency=173500 cycles
[ERROR_CYCLE] Error added at CPU cycle 3314758846, next at 3316528176, pending count: 1
[DRAM_CYCLE_ERROR] Cycle-based error applied! address=0x4e597e6d0 additional_latency=173500 cycles
[ERROR_CYCLE] Error added at CPU cycle 3316528176, next at 3331764729, pending count: 1
[DRAM_CYCLE_ERROR] Cycle-based error applied! address=0xcb9c5ea8 additional_latency=173500 cycles
[ERROR_CYCLE] Error added at CPU cycle 3331764730, next at 3352119606, pending count: 1
[DRAM_CYCLE_ERROR] Cycle-based error applied! address=0x263832078 additional_latency=173500 cycles
[ERROR_CYCLE] Error added at CPU cycle 3352119606, next at 3363674547, pending count: 1
[DRAM_CYCLE_ERROR] Cycle-based error applied! address=0x6230c56c0 additional_latency=173500 cycles
Heartbeat CPU 0 instructions: 1090000132 cycles: 3361809938 heartbeat IPC: 0.1746 cumulative IPC: 0.3242 (Simulation time: 05 hr 19 min 35 sec)
[ERROR_CYCLE] Error added at CPU cycle 3363674547, next at 3364898988, pending count: 1
[DRAM_CYCLE_ERROR] Cycle-based error applied! address=0x131fcb508 additional_latency=173500 cycles
[ERROR_CYCLE] Error added at CPU cycle 3364898988, next at 3369063406, pending count: 1
[DRAM_CYCLE_ERROR] Cycle-based error applied! address=0x47538f3b8 additional_latency=173500 cycles
[ERROR_CYCLE] Error added at CPU cycle 3369063406, next at 3379265425, pending count: 1
[DRAM_CYCLE_ERROR] Cycle-based error applied! address=0x284c2e4a0 additional_latency=173500 cycles
[ERROR_CYCLE] Error added at CPU cycle 3379265425, next at 3397332868, pending count: 1
[DRAM_CYCLE_ERROR] Cycle-based error applied! address=0x7dc5aae30 additional_latency=173500 cycles
Heartbeat CPU 0 instructions: 1100000134 cycles: 3386638581 heartbeat IPC: 0.4028 cumulative IPC: 0.3248 (Simulation time: 05 hr 21 min 49 sec)
[ERROR_CYCLE] Error added at CPU cycle 3397332869, next at 3425815911, pending count: 1
[DRAM_CYCLE_ERROR] Cycle-based error applied! address=0x4058d0dc0 additional_latency=173500 cycles
Heartbeat CPU 0 instructions: 1110000137 cycles: 3402370842 heartbeat IPC: 0.6356 cumulative IPC: 0.3262 (Simulation time: 05 hr 23 min 11 sec)
Heartbeat CPU 0 instructions: 1120000138 cycles: 3416025524 heartbeat IPC: 0.7323 cumulative IPC: 0.3279 (Simulation time: 05 hr 24 min 15 sec)
[ERROR_CYCLE] Error added at CPU cycle 3425815912, next at 3447535049, pending count: 1
[DRAM_CYCLE_ERROR] Cycle-based error applied! address=0x38067eaa8 additional_latency=173500 cycles
Heartbeat CPU 0 instructions: 1130000138 cycles: 3427459799 heartbeat IPC: 0.8746 cumulative IPC: 0.3297 (Simulation time: 05 hr 25 min 21 sec)
[ERROR_CYCLE] Error added at CPU cycle 3447535049, next at 3448911293, pending count: 1
[DRAM_CYCLE_ERROR] Cycle-based error applied! address=0x6ee1a7500 additional_latency=173500 cycles
[ERROR_CYCLE] Error added at CPU cycle 3448911293, next at 3465440595, pending count: 1
[DRAM_CYCLE_ERROR] Cycle-based error applied! address=0x9012f80 additional_latency=173500 cycles
[ERROR_CYCLE] Error added at CPU cycle 3465440595, next at 3465744151, pending count: 1
[DRAM_CYCLE_ERROR] Cycle-based error applied! address=0x18df0c8e0 additional_latency=173500 cycles
[ERROR_CYCLE] Error added at CPU cycle 3465744151, next at 3522130675, pending count: 1
[DRAM_CYCLE_ERROR] Cycle-based error applied! address=0x74de33af8 additional_latency=173500 cycles
Heartbeat CPU 0 instructions: 1140000142 cycles: 3468677180 heartbeat IPC: 0.2426 cumulative IPC: 0.3287 (Simulation time: 05 hr 28 min 28 sec)
Heartbeat CPU 0 instructions: 1150000145 cycles: 3487559883 heartbeat IPC: 0.5296 cumulative IPC: 0.3297 (Simulation time: 05 hr 30 min 16 sec)
Heartbeat CPU 0 instructions: 1160000149 cycles: 3520600039 heartbeat IPC: 0.3027 cumulative IPC: 0.3295 (Simulation time: 05 hr 33 min 33 sec)
[ERROR_CYCLE] Error added at CPU cycle 3522130676, next at 3586295900, pending count: 1
[DRAM_CYCLE_ERROR] Cycle-based error applied! address=0x99c757c8 additional_latency=173500 cycles
Heartbeat CPU 0 instructions: 1170000149 cycles: 3536415636 heartbeat IPC: 0.6323 cumulative IPC: 0.3308 (Simulation time: 05 hr 35 min 17 sec)
Heartbeat CPU 0 instructions: 1180000149 cycles: 3556021845 heartbeat IPC: 0.51 cumulative IPC: 0.3318 (Simulation time: 05 hr 37 min 23 sec)
[ERROR_CYCLE] Error added at CPU cycle 3586295900, next at 3587626760, pending count: 1
[DRAM_CYCLE_ERROR] Cycle-based error applied! address=0x4d0054798 additional_latency=173500 cycles
[ERROR_CYCLE] Error added at CPU cycle 3587626761, next at 3595606386, pending count: 1
[DRAM_CYCLE_ERROR] Cycle-based error applied! address=0x23efd7b28 additional_latency=173500 cycles
[ERROR_CYCLE] Error added at CPU cycle 3595606386, next at 3599933122, pending count: 1
[DRAM_CYCLE_ERROR] Cycle-based error applied! address=0x13c587250 additional_latency=173500 cycles
[ERROR_CYCLE] Error added at CPU cycle 3599933123, next at 3632698433, pending count: 1
[DRAM_CYCLE_ERROR] Cycle-based error applied! address=0x40abd20f8 additional_latency=173500 cycles
Heartbeat CPU 0 instructions: 1190000149 cycles: 3605411893 heartbeat IPC: 0.2025 cumulative IPC: 0.3301 (Simulation time: 05 hr 42 min 16 sec)
Heartbeat CPU 0 instructions: 1200000152 cycles: 3621296129 heartbeat IPC: 0.6296 cumulative IPC: 0.3314 (Simulation time: 05 hr 44 min 05 sec)
[ERROR_CYCLE] Error added at CPU cycle 3632698434, next at 3651057572, pending count: 1
[DRAM_CYCLE_ERROR] Cycle-based error applied! address=0x24875f698 additional_latency=173500 cycles
Heartbeat CPU 0 instructions: 1210000156 cycles: 3647135271 heartbeat IPC: 0.387 cumulative IPC: 0.3318 (Simulation time: 05 hr 46 min 38 sec)
[ERROR_CYCLE] Error added at CPU cycle 3651057572, next at 3669536913, pending count: 1
[DRAM_CYCLE_ERROR] Cycle-based error applied! address=0x6dcdc0f10 additional_latency=173500 cycles
[ERROR_CYCLE] Error added at CPU cycle 3669536913, next at 3689050536, pending count: 1
[DRAM_CYCLE_ERROR] Cycle-based error applied! address=0x318d67580 additional_latency=173500 cycles
Heartbeat CPU 0 instructions: 1220000159 cycles: 3670388426 heartbeat IPC: 0.43 cumulative IPC: 0.3324 (Simulation time: 05 hr 49 min 11 sec)
Heartbeat CPU 0 instructions: 1230000162 cycles: 3682190943 heartbeat IPC: 0.8473 cumulative IPC: 0.334 (Simulation time: 05 hr 50 min 37 sec)
[ERROR_CYCLE] Error added at CPU cycle 3689050536, next at 3701283109, pending count: 1
[DRAM_CYCLE_ERROR] Cycle-based error applied! address=0x4f7f8e110 additional_latency=173500 cycles
Heartbeat CPU 0 instructions: 1240000164 cycles: 3695459092 heartbeat IPC: 0.7537 cumulative IPC: 0.3355 (Simulation time: 05 hr 52 min 11 sec)
[ERROR_CYCLE] Error added at CPU cycle 3701283109, next at 3778121833, pending count: 1
[DRAM_CYCLE_ERROR] Cycle-based error applied! address=0x3a85971b0 additional_latency=173500 cycles
Heartbeat CPU 0 instructions: 1250000167 cycles: 3733533448 heartbeat IPC: 0.2626 cumulative IPC: 0.3348 (Simulation time: 05 hr 55 min 59 sec)
Heartbeat CPU 0 instructions: 1260000170 cycles: 3750274042 heartbeat IPC: 0.5974 cumulative IPC: 0.336 (Simulation time: 05 hr 57 min 51 sec)
Heartbeat CPU 0 instructions: 1270000170 cycles: 3771475176 heartbeat IPC: 0.4717 cumulative IPC: 0.3367 (Simulation time: 06 hr 00 min 12 sec)
[ERROR_CYCLE] Error added at CPU cycle 3778121834, next at 3786116897, pending count: 1
[DRAM_CYCLE_ERROR] Cycle-based error applied! address=0x638d9d290 additional_latency=173500 cycles
[ERROR_CYCLE] Error added at CPU cycle 3786116898, next at 3787697214, pending count: 1
[DRAM_CYCLE_ERROR] Cycle-based error applied! address=0x5439c1678 additional_latency=173500 cycles
[ERROR_CYCLE] Error added at CPU cycle 3787697214, next at 3793237020, pending count: 1
[DRAM_CYCLE_ERROR] Cycle-based error applied! address=0x6068a54b8 additional_latency=173500 cycles
[ERROR_CYCLE] Error added at CPU cycle 3793237021, next at 3799127902, pending count: 1
[DRAM_CYCLE_ERROR] Cycle-based error applied! address=0x2bd9926b8 additional_latency=173500 cycles
Heartbeat CPU 0 instructions: 1280000174 cycles: 3796552963 heartbeat IPC: 0.3988 cumulative IPC: 0.3371 (Simulation time: 06 hr 02 min 52 sec)
[ERROR_CYCLE] Error added at CPU cycle 3799127902, next at 3833046036, pending count: 1
[DRAM_CYCLE_ERROR] Cycle-based error applied! address=0xfd5d4a38 additional_latency=173500 cycles
[ERROR_CYCLE] Error added at CPU cycle 3833046036, next at 3839986147, pending count: 1
[DRAM_CYCLE_ERROR] Cycle-based error applied! address=0x4444ae0e0 additional_latency=173500 cycles
[ERROR_CYCLE] Error added at CPU cycle 3839986147, next at 3906794383, pending count: 1
[DRAM_CYCLE_ERROR] Cycle-based error applied! address=0x3663127b0 additional_latency=173500 cycles
Heartbeat CPU 0 instructions: 1290000176 cycles: 3843993657 heartbeat IPC: 0.2108 cumulative IPC: 0.3356 (Simulation time: 06 hr 07 min 45 sec)
Heartbeat CPU 0 instructions: 1300000178 cycles: 3857295726 heartbeat IPC: 0.7518 cumulative IPC: 0.337 (Simulation time: 06 hr 09 min 21 sec)
Heartbeat CPU 0 instructions: 1310000178 cycles: 3872336222 heartbeat IPC: 0.6649 cumulative IPC: 0.3383 (Simulation time: 06 hr 11 min 06 sec)
Heartbeat CPU 0 instructions: 1320000178 cycles: 3885099317 heartbeat IPC: 0.7835 cumulative IPC: 0.3398 (Simulation time: 06 hr 12 min 40 sec)
[ERROR_CYCLE] Error added at CPU cycle 3906794383, next at 3915920186, pending count: 1
[DRAM_CYCLE_ERROR] Cycle-based error applied! address=0x1a83d8e0 additional_latency=173500 cycles
[ERROR_CYCLE] Error added at CPU cycle 3915920186, next at 3928826316, pending count: 1
[DRAM_CYCLE_ERROR] Cycle-based error applied! address=0x3852f0e50 additional_latency=173500 cycles
Heartbeat CPU 0 instructions: 1330000178 cycles: 3916565220 heartbeat IPC: 0.3178 cumulative IPC: 0.3396 (Simulation time: 06 hr 15 min 54 sec)
[ERROR_CYCLE] Error added at CPU cycle 3928826317, next at 3951389617, pending count: 1
[DRAM_CYCLE_ERROR] Cycle-based error applied! address=0x6e44ed7e0 additional_latency=173500 cycles
[ERROR_CYCLE] Error added at CPU cycle 3951389618, next at 3957181377, pending count: 1
[DRAM_CYCLE_ERROR] Cycle-based error applied! address=0x2e1ad2f28 additional_latency=173500 cycles
[ERROR_CYCLE] Error added at CPU cycle 3957181378, next at 3999807413, pending count: 1
[DRAM_CYCLE_ERROR] Cycle-based error applied! address=0x7422578d0 additional_latency=173500 cycles
Heartbeat CPU 0 instructions: 1340000182 cycles: 3973070176 heartbeat IPC: 0.177 cumulative IPC: 0.3373 (Simulation time: 06 hr 21 min 28 sec)
[ERROR_CYCLE] Error added at CPU cycle 3999807413, next at 4079937375, pending count: 1
[DRAM_CYCLE_ERROR] Cycle-based error applied! address=0x598a6598 additional_latency=173500 cycles
Heartbeat CPU 0 instructions: 1350000182 cycles: 4009952871 heartbeat IPC: 0.2711 cumulative IPC: 0.3367 (Simulation time: 06 hr 25 min 17 sec)
Heartbeat CPU 0 instructions: 1360000185 cycles: 4023126568 heartbeat IPC: 0.7591 cumulative IPC: 0.338 (Simulation time: 06 hr 26 min 50 sec)
Heartbeat CPU 0 instructions: 1370000185 cycles: 4046373876 heartbeat IPC: 0.4302 cumulative IPC: 0.3386 (Simulation time: 06 hr 29 min 23 sec)
Heartbeat CPU 0 instructions: 1380000188 cycles: 4062395636 heartbeat IPC: 0.6242 cumulative IPC: 0.3397 (Simulation time: 06 hr 31 min 16 sec)
Heartbeat CPU 0 instructions: 1390000191 cycles: 4075605265 heartbeat IPC: 0.757 cumulative IPC: 0.3411 (Simulation time: 06 hr 32 min 50 sec)
[ERROR_CYCLE] Error added at CPU cycle 4079937375, next at 4082951716, pending count: 1
[DRAM_CYCLE_ERROR] Cycle-based error applied! address=0x99c757d0 additional_latency=173500 cycles
[ERROR_CYCLE] Error added at CPU cycle 4082951716, next at 4095121606, pending count: 1
[DRAM_CYCLE_ERROR] Cycle-based error applied! address=0x4ece8e698 additional_latency=173500 cycles
Heartbeat CPU 0 instructions: 1400000191 cycles: 4090095600 heartbeat IPC: 0.6901 cumulative IPC: 0.3423 (Simulation time: 06 hr 34 min 33 sec)
[ERROR_CYCLE] Error added at CPU cycle 4095121606, next at 4114636392, pending count: 1
[DRAM_CYCLE_ERROR] Cycle-based error applied! address=0x29a955238 additional_latency=173500 cycles
Heartbeat CPU 0 instructions: 1410000194 cycles: 4113579582 heartbeat IPC: 0.4258 cumulative IPC: 0.3428 (Simulation time: 06 hr 36 min 36 sec)
[ERROR_CYCLE] Error added at CPU cycle 4114636393, next at 4120887601, pending count: 1
[DRAM_CYCLE_ERROR] Cycle-based error applied! address=0x398279188 additional_latency=173500 cycles
[ERROR_CYCLE] Error added at CPU cycle 4120887601, next at 4162672645, pending count: 1
[DRAM_CYCLE_ERROR] Cycle-based error applied! address=0x1c84e2df8 additional_latency=173500 cycles
Heartbeat CPU 0 instructions: 1420000195 cycles: 4125522862 heartbeat IPC: 0.8373 cumulative IPC: 0.3442 (Simulation time: 06 hr 37 min 32 sec)
Heartbeat CPU 0 instructions: 1430000197 cycles: 4140192490 heartbeat IPC: 0.6817 cumulative IPC: 0.3454 (Simulation time: 06 hr 39 min 10 sec)
[ERROR_CYCLE] Error added at CPU cycle 4162672645, next at 4173022292, pending count: 1
[DRAM_CYCLE_ERROR] Cycle-based error applied! address=0xec8fda0 additional_latency=173500 cycles
[ERROR_CYCLE] Error added at CPU cycle 4173022292, next at 4244187636, pending count: 1
[DRAM_CYCLE_ERROR] Cycle-based error applied! address=0x242d5e1f8 additional_latency=173500 cycles
Heartbeat CPU 0 instructions: 1440000199 cycles: 4184870033 heartbeat IPC: 0.2238 cumulative IPC: 0.3441 (Simulation time: 06 hr 43 min 35 sec)
Heartbeat CPU 0 instructions: 1450000200 cycles: 4208262771 heartbeat IPC: 0.4275 cumulative IPC: 0.3446 (Simulation time: 06 hr 46 min 08 sec)
Heartbeat CPU 0 instructions: 1460000200 cycles: 4222502001 heartbeat IPC: 0.7023 cumulative IPC: 0.3458 (Simulation time: 06 hr 47 min 48 sec)
Heartbeat CPU 0 instructions: 1470000204 cycles: 4237354006 heartbeat IPC: 0.6733 cumulative IPC: 0.3469 (Simulation time: 06 hr 49 min 33 sec)
[ERROR_CYCLE] Error added at CPU cycle 4244187637, next at 4254188233, pending count: 1
[DRAM_CYCLE_ERROR] Cycle-based error applied! address=0x7341d2cb8 additional_latency=173500 cycles
Heartbeat CPU 0 instructions: 1480000204 cycles: 4253804198 heartbeat IPC: 0.6079 cumulative IPC: 0.3479 (Simulation time: 06 hr 51 min 26 sec)
[ERROR_CYCLE] Error added at CPU cycle 4254188233, next at 4271790704, pending count: 1
[DRAM_CYCLE_ERROR] Cycle-based error applied! address=0x72c026a38 additional_latency=173500 cycles
[ERROR_CYCLE] Error added at CPU cycle 4271790704, next at 4273599493, pending count: 1
[DRAM_CYCLE_ERROR] Cycle-based error applied! address=0x535378048 additional_latency=173500 cycles
[ERROR_CYCLE] Error added at CPU cycle 4273599494, next at 4278907543, pending count: 1
[DRAM_CYCLE_ERROR] Cycle-based error applied! address=0x6cfb99e58 additional_latency=173500 cycles
[ERROR_CYCLE] Error added at CPU cycle 4278907543, next at 4287508718, pending count: 1
[DRAM_CYCLE_ERROR] Cycle-based error applied! address=0x62a265838 additional_latency=173500 cycles
[ERROR_CYCLE] Error added at CPU cycle 4287508719, next at 4287666928, pending count: 1
[DRAM_CYCLE_ERROR] Cycle-based error applied! address=0x6b5a15f48 additional_latency=173500 cycles
[ERROR_CYCLE] Error added at CPU cycle 4287666928, next at 4340338409, pending count: 1
[DRAM_CYCLE_ERROR] Cycle-based error applied! address=0x1e670480 additional_latency=173500 cycles
Heartbeat CPU 0 instructions: 1490000204 cycles: 4302630977 heartbeat IPC: 0.2048 cumulative IPC: 0.3463 (Simulation time: 06 hr 56 min 12 sec)
Heartbeat CPU 0 instructions: 1500000205 cycles: 4317331439 heartbeat IPC: 0.6803 cumulative IPC: 0.3474 (Simulation time: 06 hr 57 min 54 sec)
Heartbeat CPU 0 instructions: 1510000205 cycles: 4330887637 heartbeat IPC: 0.7377 cumulative IPC: 0.3487 (Simulation time: 06 hr 59 min 30 sec)
[ERROR_CYCLE] Error added at CPU cycle 4340338409, next at 4341131774, pending count: 1
[DRAM_CYCLE_ERROR] Cycle-based error applied! address=0x28ccff130 additional_latency=173500 cycles
[ERROR_CYCLE] Error added at CPU cycle 4341131774, next at 4390068554, pending count: 1
[DRAM_CYCLE_ERROR] Cycle-based error applied! address=0x549530e68 additional_latency=173500 cycles
Heartbeat CPU 0 instructions: 1520000205 cycles: 4346569085 heartbeat IPC: 0.6377 cumulative IPC: 0.3497 (Simulation time: 07 hr 01 min 19 sec)
Heartbeat CPU 0 instructions: 1530000205 cycles: 4386300432 heartbeat IPC: 0.2517 cumulative IPC: 0.3488 (Simulation time: 07 hr 04 min 19 sec)
[ERROR_CYCLE] Error added at CPU cycle 4390068555, next at 4408873084, pending count: 1
[DRAM_CYCLE_ERROR] Cycle-based error applied! address=0x10b31338 additional_latency=173500 cycles
[ERROR_CYCLE] Error added at CPU cycle 4408873084, next at 4434422424, pending count: 1
[DRAM_CYCLE_ERROR] Cycle-based error applied! address=0x1df86318 additional_latency=173500 cycles
[ERROR_CYCLE] Error added at CPU cycle 4434422425, next at 4446109608, pending count: 1
[DRAM_CYCLE_ERROR] Cycle-based error applied! address=0x6358ce238 additional_latency=173500 cycles
Heartbeat CPU 0 instructions: 1540000207 cycles: 4435227379 heartbeat IPC: 0.2044 cumulative IPC: 0.3472 (Simulation time: 07 hr 09 min 05 sec)
[ERROR_CYCLE] Error added at CPU cycle 4446109609, next at 4457088411, pending count: 1
[DRAM_CYCLE_ERROR] Cycle-based error applied! address=0x4616e1760 additional_latency=173500 cycles
[ERROR_CYCLE] Error added at CPU cycle 4457088411, next at 4464039645, pending count: 1
[DRAM_CYCLE_ERROR] Cycle-based error applied! address=0x20e8ef0b0 additional_latency=173500 cycles
[ERROR_CYCLE] Error added at CPU cycle 4464039645, next at 4471031865, pending count: 1
[DRAM_CYCLE_ERROR] Cycle-based error applied! address=0x10d41f070 additional_latency=173500 cycles
[ERROR_CYCLE] Error added at CPU cycle 4471031866, next at 4475294036, pending count: 1
[DRAM_CYCLE_ERROR] Cycle-based error applied! address=0x4f5bc8e60 additional_latency=173500 cycles
[ERROR_CYCLE] Error added at CPU cycle 4475294036, next at 4496160913, pending count: 1
[DRAM_CYCLE_ERROR] Cycle-based error applied! address=0xc2f09f20 additional_latency=173500 cycles
Heartbeat CPU 0 instructions: 1550000207 cycles: 4484772322 heartbeat IPC: 0.2018 cumulative IPC: 0.3456 (Simulation time: 07 hr 13 min 13 sec)
[ERROR_CYCLE] Error added at CPU cycle 4496160913, next at 4537111940, pending count: 1
[DRAM_CYCLE_ERROR] Cycle-based error applied! address=0x31b63d520 additional_latency=173500 cycles
Heartbeat CPU 0 instructions: 1560000210 cycles: 4533705515 heartbeat IPC: 0.2044 cumulative IPC: 0.3441 (Simulation time: 07 hr 17 min 31 sec)
[ERROR_CYCLE] Error added at CPU cycle 4537111940, next at 4576964167, pending count: 1
[DRAM_CYCLE_ERROR] Cycle-based error applied! address=0x6f9762c80 additional_latency=173500 cycles
[ERROR_CYCLE] Error added at CPU cycle 4576964168, next at 4588597861, pending count: 1
[DRAM_CYCLE_ERROR] Cycle-based error applied! address=0x7780b16d0 additional_latency=173500 cycles
Heartbeat CPU 0 instructions: 1570000210 cycles: 4585806476 heartbeat IPC: 0.1919 cumulative IPC: 0.3424 (Simulation time: 07 hr 22 min 32 sec)
[ERROR_CYCLE] Error added at CPU cycle 4588597861, next at 4590147879, pending count: 1
[DRAM_CYCLE_ERROR] Cycle-based error applied! address=0x367cf0a48 additional_latency=173500 cycles
[ERROR_CYCLE] Error added at CPU cycle 4590147880, next at 4593734082, pending count: 1
[DRAM_CYCLE_ERROR] Cycle-based error applied! address=0x1f717d800 additional_latency=173500 cycles
[ERROR_CYCLE] Error added at CPU cycle 4593734083, next at 4611519060, pending count: 1
[DRAM_CYCLE_ERROR] Cycle-based error applied! address=0x4605fbe00 additional_latency=173500 cycles
[ERROR_CYCLE] Error added at CPU cycle 4611519060, next at 4635178315, pending count: 1
[DRAM_CYCLE_ERROR] Cycle-based error applied! address=0x6f796360 additional_latency=173500 cycles
[ERROR_CYCLE] Error added at CPU cycle 4635178316, next at 4638680803, pending count: 1
[DRAM_CYCLE_ERROR] Cycle-based error applied! address=0x19ea3ef0 additional_latency=173500 cycles
[ERROR_CYCLE] Error added at CPU cycle 4638680803, next at 4643261021, pending count: 1
[DRAM_CYCLE_ERROR] Cycle-based error applied! address=0x15ba5b338 additional_latency=173500 cycles
[ERROR_CYCLE] Error added at CPU cycle 4643261021, next at 4656461508, pending count: 1
[DRAM_CYCLE_ERROR] Cycle-based error applied! address=0x3d4d9d108 additional_latency=173500 cycles
Heartbeat CPU 0 instructions: 1580000212 cycles: 4653489845 heartbeat IPC: 0.1477 cumulative IPC: 0.3395 (Simulation time: 07 hr 28 min 50 sec)
[ERROR_CYCLE] Error added at CPU cycle 4656461508, next at 4660984895, pending count: 1
[DRAM_CYCLE_ERROR] Cycle-based error applied! address=0x798ed7480 additional_latency=173500 cycles
[ERROR_CYCLE] Error added at CPU cycle 4660984896, next at 4662333840, pending count: 1
[DRAM_CYCLE_ERROR] Cycle-based error applied! address=0x84a1aa28 additional_latency=173500 cycles
[ERROR_CYCLE] Error added at CPU cycle 4662333841, next at 4664628811, pending count: 1
[DRAM_CYCLE_ERROR] Cycle-based error applied! address=0x6dbfb0138 additional_latency=173500 cycles
[ERROR_CYCLE] Error added at CPU cycle 4664628811, next at 4668127727, pending count: 1
[DRAM_CYCLE_ERROR] Cycle-based error applied! address=0xed9d1278 additional_latency=173500 cycles
[ERROR_CYCLE] Error added at CPU cycle 4668127727, next at 4751251435, pending count: 1
[DRAM_CYCLE_ERROR] Cycle-based error applied! address=0x7848a0478 additional_latency=173500 cycles
Heartbeat CPU 0 instructions: 1590000216 cycles: 4723270907 heartbeat IPC: 0.1433 cumulative IPC: 0.3366 (Simulation time: 07 hr 35 min 22 sec)
[ERROR_CYCLE] Error added at CPU cycle 4751251435, next at 4776407731, pending count: 1
[DRAM_CYCLE_ERROR] Cycle-based error applied! address=0xdc1d7c78 additional_latency=173500 cycles
Heartbeat CPU 0 instructions: 1600000218 cycles: 4774928815 heartbeat IPC: 0.1936 cumulative IPC: 0.3351 (Simulation time: 07 hr 40 min 27 sec)
[ERROR_CYCLE] Error added at CPU cycle 4776407732, next at 4788520839, pending count: 1
[DRAM_CYCLE_ERROR] Cycle-based error applied! address=0x6c971f560 additional_latency=173500 cycles
[ERROR_CYCLE] Error added at CPU cycle 4788520840, next at 4838281138, pending count: 1
[DRAM_CYCLE_ERROR] Cycle-based error applied! address=0x341766898 additional_latency=173500 cycles
Heartbeat CPU 0 instructions: 1610000218 cycles: 4791847522 heartbeat IPC: 0.5911 cumulative IPC: 0.336 (Simulation time: 07 hr 42 min 23 sec)
Heartbeat CPU 0 instructions: 1620000222 cycles: 4804573442 heartbeat IPC: 0.7858 cumulative IPC: 0.3372 (Simulation time: 07 hr 43 min 54 sec)
[VMEM] WARNING: Out of physical memory, freeing ppages
Heartbeat CPU 0 instructions: 1630000223 cycles: 4833825352 heartbeat IPC: 0.3419 cumulative IPC: 0.3372 (Simulation time: 07 hr 46 min 29 sec)
[ERROR_CYCLE] Error added at CPU cycle 4838281139, next at 4848291067, pending count: 1
[DRAM_CYCLE_ERROR] Cycle-based error applied! address=0x400952078 additional_latency=173500 cycles
[ERROR_CYCLE] Error added at CPU cycle 4848291067, next at 4858602453, pending count: 1
[DRAM_CYCLE_ERROR] Cycle-based error applied! address=0x438cc83f8 additional_latency=173500 cycles
Heartbeat CPU 0 instructions: 1640000224 cycles: 4852252326 heartbeat IPC: 0.5427 cumulative IPC: 0.338 (Simulation time: 07 hr 48 min 33 sec)
[ERROR_CYCLE] Error added at CPU cycle 4858602453, next at 4924353152, pending count: 1
[DRAM_CYCLE_ERROR] Cycle-based error applied! address=0x1763bc170 additional_latency=173500 cycles
Heartbeat CPU 0 instructions: 1650000228 cycles: 4869258643 heartbeat IPC: 0.588 cumulative IPC: 0.3389 (Simulation time: 07 hr 50 min 27 sec)
Heartbeat CPU 0 instructions: 1660000228 cycles: 4888804528 heartbeat IPC: 0.5116 cumulative IPC: 0.3396 (Simulation time: 07 hr 52 min 35 sec)
[ERROR_CYCLE] Error added at CPU cycle 4924353153, next at 4942231026, pending count: 1
[DRAM_CYCLE_ERROR] Cycle-based error applied! address=0x6e1333d38 additional_latency=173500 cycles
Heartbeat CPU 0 instructions: 1670000231 cycles: 4931826939 heartbeat IPC: 0.2324 cumulative IPC: 0.3386 (Simulation time: 07 hr 56 min 36 sec)
[ERROR_CYCLE] Error added at CPU cycle 4942231026, next at 4964471419, pending count: 1
[DRAM_CYCLE_ERROR] Cycle-based error applied! address=0x1b1dd0a50 additional_latency=173500 cycles
[ERROR_CYCLE] Error added at CPU cycle 4964471419, next at 4968891405, pending count: 1
[DRAM_CYCLE_ERROR] Cycle-based error applied! address=0x1d9abb4e0 additional_latency=173500 cycles
[ERROR_CYCLE] Error added at CPU cycle 4968891406, next at 4975653194, pending count: 1
[DRAM_CYCLE_ERROR] Cycle-based error applied! address=0x4f9b70e00 additional_latency=173500 cycles
Heartbeat CPU 0 instructions: 1680000231 cycles: 4969988722 heartbeat IPC: 0.262 cumulative IPC: 0.338 (Simulation time: 08 hr 00 min 35 sec)
[ERROR_CYCLE] Error added at CPU cycle 4975653195, next at 4984254775, pending count: 1
[DRAM_CYCLE_ERROR] Cycle-based error applied! address=0x311491ac0 additional_latency=173500 cycles
Heartbeat CPU 0 instructions: 1690000231 cycles: 4980691759 heartbeat IPC: 0.9343 cumulative IPC: 0.3393 (Simulation time: 08 hr 01 min 54 sec)
[ERROR_CYCLE] Error added at CPU cycle 4984254775, next at 5011378572, pending count: 1
[DRAM_CYCLE_ERROR] Cycle-based error applied! address=0x4abe72f78 additional_latency=173500 cycles
Heartbeat CPU 0 instructions: 1700000232 cycles: 4999836651 heartbeat IPC: 0.5223 cumulative IPC: 0.34 (Simulation time: 08 hr 04 min 00 sec)
[ERROR_CYCLE] Error added at CPU cycle 5011378572, next at 5031058443, pending count: 1
[DRAM_CYCLE_ERROR] Cycle-based error applied! address=0x6a7c6dc50 additional_latency=173500 cycles
Heartbeat CPU 0 instructions: 1710000236 cycles: 5018753308 heartbeat IPC: 0.5286 cumulative IPC: 0.3407 (Simulation time: 08 hr 06 min 06 sec)
[ERROR_CYCLE] Error added at CPU cycle 5031058443, next at 5041385041, pending count: 1
[DRAM_CYCLE_ERROR] Cycle-based error applied! address=0x25de9e4b0 additional_latency=173500 cycles
Heartbeat CPU 0 instructions: 1720000238 cycles: 5035247549 heartbeat IPC: 0.6063 cumulative IPC: 0.3416 (Simulation time: 08 hr 07 min 58 sec)
[ERROR_CYCLE] Error added at CPU cycle 5041385042, next at 5053955355, pending count: 1
[DRAM_CYCLE_ERROR] Cycle-based error applied! address=0x12d54a470 additional_latency=173500 cycles
Heartbeat CPU 0 instructions: 1730000240 cycles: 5047791724 heartbeat IPC: 0.7972 cumulative IPC: 0.3427 (Simulation time: 08 hr 09 min 28 sec)
[ERROR_CYCLE] Error added at CPU cycle 5053955355, next at 5069575440, pending count: 1
[DRAM_CYCLE_ERROR] Cycle-based error applied! address=0x1cf684d80 additional_latency=173500 cycles
[ERROR_CYCLE] Error added at CPU cycle 5069575440, next at 5079270015, pending count: 1
[DRAM_CYCLE_ERROR] Cycle-based error applied! address=0x70c1448e0 additional_latency=173500 cycles
Heartbeat CPU 0 instructions: 1740000240 cycles: 5077980073 heartbeat IPC: 0.3313 cumulative IPC: 0.3427 (Simulation time: 08 hr 12 min 17 sec)
[ERROR_CYCLE] Error added at CPU cycle 5079270015, next at 5082714684, pending count: 1
[DRAM_CYCLE_ERROR] Cycle-based error applied! address=0x75a643f18 additional_latency=173500 cycles
[ERROR_CYCLE] Error added at CPU cycle 5082714685, next at 5126031274, pending count: 1
[DRAM_CYCLE_ERROR] Cycle-based error applied! address=0x1c84e2170 additional_latency=173500 cycles
Heartbeat CPU 0 instructions: 1750000242 cycles: 5091375830 heartbeat IPC: 0.7465 cumulative IPC: 0.3437 (Simulation time: 08 hr 13 min 51 sec)
Heartbeat CPU 0 instructions: 1760000244 cycles: 5117531915 heartbeat IPC: 0.3823 cumulative IPC: 0.3439 (Simulation time: 08 hr 16 min 35 sec)
[ERROR_CYCLE] Error added at CPU cycle 5126031274, next at 5148496855, pending count: 1
[DRAM_CYCLE_ERROR] Cycle-based error applied! address=0x5acb57bc0 additional_latency=173500 cycles
Heartbeat CPU 0 instructions: 1770000244 cycles: 5134679229 heartbeat IPC: 0.5832 cumulative IPC: 0.3447 (Simulation time: 08 hr 18 min 05 sec)
[ERROR_CYCLE] Error added at CPU cycle 5148496855, next at 5169073584, pending count: 1
[DRAM_CYCLE_ERROR] Cycle-based error applied! address=0x49605d8b8 additional_latency=173500 cycles
Heartbeat CPU 0 instructions: 1780000245 cycles: 5164834831 heartbeat IPC: 0.3316 cumulative IPC: 0.3446 (Simulation time: 08 hr 20 min 40 sec)
[ERROR_CYCLE] Error added at CPU cycle 5169073584, next at 5267335639, pending count: 1
[DRAM_CYCLE_ERROR] Cycle-based error applied! address=0x47665228 additional_latency=173500 cycles
Heartbeat CPU 0 instructions: 1790000248 cycles: 5233782679 heartbeat IPC: 0.145 cumulative IPC: 0.342 (Simulation time: 08 hr 25 min 35 sec)
[ERROR_CYCLE] Error added at CPU cycle 5267335640, next at 5275789061, pending count: 1
[DRAM_CYCLE_ERROR] Cycle-based error applied! address=0x1255e818 additional_latency=173500 cycles
Heartbeat CPU 0 instructions: 1800000249 cycles: 5269163215 heartbeat IPC: 0.2826 cumulative IPC: 0.3416 (Simulation time: 08 hr 28 min 40 sec)
[ERROR_CYCLE] Error added at CPU cycle 5275789061, next at 5296423789, pending count: 1
[DRAM_CYCLE_ERROR] Cycle-based error applied! address=0x2797129b0 additional_latency=173500 cycles
Heartbeat CPU 0 instructions: 1810000250 cycles: 5282856833 heartbeat IPC: 0.7303 cumulative IPC: 0.3426 (Simulation time: 08 hr 29 min 56 sec)
[ERROR_CYCLE] Error added at CPU cycle 5296423789, next at 5298024996, pending count: 1
[DRAM_CYCLE_ERROR] Cycle-based error applied! address=0x32c91bf58 additional_latency=173500 cycles
[ERROR_CYCLE] Error added at CPU cycle 5298024996, next at 5311300413, pending count: 1
[DRAM_CYCLE_ERROR] Cycle-based error applied! address=0xb10dded8 additional_latency=173500 cycles
[ERROR_CYCLE] Error added at CPU cycle 5311300413, next at 5327051859, pending count: 1
[DRAM_CYCLE_ERROR] Cycle-based error applied! address=0x7fe02b0a8 additional_latency=173500 cycles
Heartbeat CPU 0 instructions: 1820000254 cycles: 5315802005 heartbeat IPC: 0.3035 cumulative IPC: 0.3424 (Simulation time: 08 hr 32 min 53 sec)
[ERROR_CYCLE] Error added at CPU cycle 5327051859, next at 5373557273, pending count: 1
[DRAM_CYCLE_ERROR] Cycle-based error applied! address=0xbacad8a8 additional_latency=173500 cycles
Heartbeat CPU 0 instructions: 1830000257 cycles: 5329554423 heartbeat IPC: 0.7271 cumulative IPC: 0.3434 (Simulation time: 08 hr 34 min 29 sec)
Heartbeat CPU 0 instructions: 1840000258 cycles: 5339006182 heartbeat IPC: 1.058 cumulative IPC: 0.3446 (Simulation time: 08 hr 35 min 41 sec)
Heartbeat CPU 0 instructions: 1850000262 cycles: 5355595596 heartbeat IPC: 0.6028 cumulative IPC: 0.3454 (Simulation time: 08 hr 37 min 32 sec)
[ERROR_CYCLE] Error added at CPU cycle 5373557273, next at 5413980639, pending count: 1
[DRAM_CYCLE_ERROR] Cycle-based error applied! address=0x69e0b7490 additional_latency=173500 cycles
Heartbeat CPU 0 instructions: 1860000262 cycles: 5380975404 heartbeat IPC: 0.394 cumulative IPC: 0.3457 (Simulation time: 08 hr 39 min 58 sec)
Heartbeat CPU 0 instructions: 1870000262 cycles: 5406846705 heartbeat IPC: 0.3865 cumulative IPC: 0.3459 (Simulation time: 08 hr 42 min 28 sec)
[ERROR_CYCLE] Error added at CPU cycle 5413980640, next at 5415000342, pending count: 1
[DRAM_CYCLE_ERROR] Cycle-based error applied! address=0x3f556cc18 additional_latency=173500 cycles
[ERROR_CYCLE] Error added at CPU cycle 5415000343, next at 5423571931, pending count: 1
[DRAM_CYCLE_ERROR] Cycle-based error applied! address=0x1c84e2e48 additional_latency=173500 cycles
Heartbeat CPU 0 instructions: 1880000265 cycles: 5419701318 heartbeat IPC: 0.7779 cumulative IPC: 0.3469 (Simulation time: 08 hr 43 min 59 sec)
[ERROR_CYCLE] Error added at CPU cycle 5423571931, next at 5444838531, pending count: 1
[DRAM_CYCLE_ERROR] Cycle-based error applied! address=0x7763ded88 additional_latency=173500 cycles
Heartbeat CPU 0 instructions: 1890000265 cycles: 5444570257 heartbeat IPC: 0.4021 cumulative IPC: 0.3471 (Simulation time: 08 hr 46 min 41 sec)
[ERROR_CYCLE] Error added at CPU cycle 5444838532, next at 5468383629, pending count: 1
[DRAM_CYCLE_ERROR] Cycle-based error applied! address=0x1ef37e740 additional_latency=173500 cycles
Heartbeat CPU 0 instructions: 1900000266 cycles: 5456138847 heartbeat IPC: 0.8644 cumulative IPC: 0.3482 (Simulation time: 08 hr 48 min 05 sec)
[ERROR_CYCLE] Error added at CPU cycle 5468383629, next at 5525161790, pending count: 1
[DRAM_CYCLE_ERROR] Cycle-based error applied! address=0x99c757d0 additional_latency=173500 cycles
Heartbeat CPU 0 instructions: 1910000266 cycles: 5469954445 heartbeat IPC: 0.7238 cumulative IPC: 0.3492 (Simulation time: 08 hr 49 min 41 sec)
Heartbeat CPU 0 instructions: 1920000266 cycles: 5481501054 heartbeat IPC: 0.8661 cumulative IPC: 0.3503 (Simulation time: 08 hr 50 min 55 sec)
Heartbeat CPU 0 instructions: 1930000266 cycles: 5505869087 heartbeat IPC: 0.4104 cumulative IPC: 0.3505 (Simulation time: 08 hr 53 min 17 sec)
Heartbeat CPU 0 instructions: 1940000267 cycles: 5519816611 heartbeat IPC: 0.717 cumulative IPC: 0.3515 (Simulation time: 08 hr 54 min 36 sec)
[ERROR_CYCLE] Error added at CPU cycle 5525161790, next at 5537220330, pending count: 1
[DRAM_CYCLE_ERROR] Cycle-based error applied! address=0x2b5846628 additional_latency=173500 cycles
[ERROR_CYCLE] Error added at CPU cycle 5537220331, next at 5569206461, pending count: 1
[DRAM_CYCLE_ERROR] Cycle-based error applied! address=0x4a7978698 additional_latency=173500 cycles
Heartbeat CPU 0 instructions: 1950000268 cycles: 5540519253 heartbeat IPC: 0.483 cumulative IPC: 0.352 (Simulation time: 08 hr 56 min 56 sec)
Heartbeat CPU 0 instructions: 1960000268 cycles: 5554947844 heartbeat IPC: 0.6931 cumulative IPC: 0.3528 (Simulation time: 08 hr 58 min 38 sec)
[ERROR_CYCLE] Error added at CPU cycle 5569206461, next at 5583662074, pending count: 1
[DRAM_CYCLE_ERROR] Cycle-based error applied! address=0x70c1f53f0 additional_latency=173500 cycles
[ERROR_CYCLE] Error added at CPU cycle 5583662075, next at 5603585636, pending count: 1
[DRAM_CYCLE_ERROR] Cycle-based error applied! address=0x303a32a58 additional_latency=173500 cycles
Heartbeat CPU 0 instructions: 1970000269 cycles: 5587043730 heartbeat IPC: 0.3116 cumulative IPC: 0.3526 (Simulation time: 09 hr 01 min 51 sec)
[ERROR_CYCLE] Error added at CPU cycle 5603585636, next at 5604527594, pending count: 1
[DRAM_CYCLE_ERROR] Cycle-based error applied! address=0x2fdb6670 additional_latency=173500 cycles
[ERROR_CYCLE] Error added at CPU cycle 5604527595, next at 5610655950, pending count: 1
[DRAM_CYCLE_ERROR] Cycle-based error applied! address=0x65365f68 additional_latency=173500 cycles
[ERROR_CYCLE] Error added at CPU cycle 5610655950, next at 5617862519, pending count: 1
[DRAM_CYCLE_ERROR] Cycle-based error applied! address=0x766fb5c90 additional_latency=173500 cycles
[ERROR_CYCLE] Error added at CPU cycle 5617862520, next at 5632618504, pending count: 1
[DRAM_CYCLE_ERROR] Cycle-based error applied! address=0x206e47080 additional_latency=173500 cycles
[ERROR_CYCLE] Error added at CPU cycle 5632618504, next at 5653203096, pending count: 1
[DRAM_CYCLE_ERROR] Cycle-based error applied! address=0x2ebf38130 additional_latency=173500 cycles
Heartbeat CPU 0 instructions: 1980000269 cycles: 5646743682 heartbeat IPC: 0.1675 cumulative IPC: 0.3506 (Simulation time: 09 hr 06 min 34 sec)
[ERROR_CYCLE] Error added at CPU cycle 5653203096, next at 5721832131, pending count: 1
[DRAM_CYCLE_ERROR] Cycle-based error applied! address=0x592171290 additional_latency=173500 cycles
Heartbeat CPU 0 instructions: 1990000270 cycles: 5706453047 heartbeat IPC: 0.1675 cumulative IPC: 0.3487 (Simulation time: 09 hr 11 min 52 sec)
[ERROR_CYCLE] Error added at CPU cycle 5721832132, next at 5740446510, pending count: 1
[DRAM_CYCLE_ERROR] Cycle-based error applied! address=0x717b67a40 additional_latency=173500 cycles
[ERROR_CYCLE] Error added at CPU cycle 5740446511, next at 5768175262, pending count: 1
[DRAM_CYCLE_ERROR] Cycle-based error applied! address=0x473cc1c90 additional_latency=173500 cycles

=== ERROR PAGE STATISTICS ===
Mode: CYCLE
Error Cycle Interval: 20000000 CPU cycles
Total Error Accesses: 305
==============================
Simulation finished CPU 0 instructions: 1999999938 cycles: 5763306087 cumulative IPC: 0.347 (Simulation time: 09 hr 16 min 58 sec)
Simulation complete CPU 0 instructions: 1999999938 cycles: 5763306087 cumulative IPC: 0.347 (Simulation time: 09 hr 16 min 58 sec)

ChampSim completed all CPUs

=== Simulation ===
CPU 0 runs test_traces/605.mcf_s-994B.champsimtrace.xz

Region of Interest Statistics

CPU 0 cumulative IPC: 0.347 instructions: 1999999938 cycles: 5763306087
CPU 0 Branch Prediction Accuracy: 92.62% MPKI: 18.99 Average ROB Occupancy at Mispredict: 34.57
Branch type MPKI
BRANCH_DIRECT_JUMP: 0.123
BRANCH_INDIRECT: 0
BRANCH_CONDITIONAL: 18.86
BRANCH_DIRECT_CALL: 6.5e-06
BRANCH_INDIRECT_CALL: 0.0004185
BRANCH_RETURN: 1e-05

cpu0->cpu0_STLB TOTAL        ACCESS:   24265538 HIT:   11227908 MISS:   13037630 MSHR_MERGE:          0
cpu0->cpu0_STLB LOAD         ACCESS:   24265538 HIT:   11227908 MISS:   13037630 MSHR_MERGE:          0
cpu0->cpu0_STLB RFO          ACCESS:          0 HIT:          0 MISS:          0 MSHR_MERGE:          0
cpu0->cpu0_STLB PREFETCH     ACCESS:          0 HIT:          0 MISS:          0 MSHR_MERGE:          0
cpu0->cpu0_STLB WRITE        ACCESS:          0 HIT:          0 MISS:          0 MSHR_MERGE:          0
cpu0->cpu0_STLB TRANSLATION  ACCESS:          0 HIT:          0 MISS:          0 MSHR_MERGE:          0
cpu0->cpu0_STLB PREFETCH REQUESTED:          0 ISSUED:          0 USEFUL:          0 USELESS:          0
cpu0->cpu0_STLB AVERAGE MISS LATENCY: 234.1 cycles
cpu0->cpu0_L2C TOTAL        ACCESS:   81182083 HIT:   27440081 MISS:   53742002 MSHR_MERGE:          0
cpu0->cpu0_L2C LOAD         ACCESS:   75044094 HIT:   21367111 MISS:   53676983 MSHR_MERGE:          0
cpu0->cpu0_L2C RFO          ACCESS:     492965 HIT:     432383 MISS:      60582 MSHR_MERGE:          0
cpu0->cpu0_L2C PREFETCH     ACCESS:          0 HIT:          0 MISS:          0 MSHR_MERGE:          0
cpu0->cpu0_L2C WRITE        ACCESS:    5645024 HIT:    5640587 MISS:       4437 MSHR_MERGE:          0
cpu0->cpu0_L2C TRANSLATION  ACCESS:          0 HIT:          0 MISS:          0 MSHR_MERGE:          0
cpu0->cpu0_L2C PREFETCH REQUESTED:          0 ISSUED:          0 USEFUL:          0 USELESS:          0
cpu0->cpu0_L2C AVERAGE MISS LATENCY: 92.28 cycles
cpu0->cpu0_L1I TOTAL        ACCESS:    3226461 HIT:    3226370 MISS:         91 MSHR_MERGE:         25
cpu0->cpu0_L1I LOAD         ACCESS:    3226461 HIT:    3226370 MISS:         91 MSHR_MERGE:         25
cpu0->cpu0_L1I RFO          ACCESS:          0 HIT:          0 MISS:          0 MSHR_MERGE:          0
cpu0->cpu0_L1I PREFETCH     ACCESS:          0 HIT:          0 MISS:          0 MSHR_MERGE:          0
cpu0->cpu0_L1I WRITE        ACCESS:          0 HIT:          0 MISS:          0 MSHR_MERGE:          0
cpu0->cpu0_L1I TRANSLATION  ACCESS:          0 HIT:          0 MISS:          0 MSHR_MERGE:          0
cpu0->cpu0_L1I PREFETCH REQUESTED:          0 ISSUED:          0 USEFUL:          0 USELESS:          0
cpu0->cpu0_L1I AVERAGE MISS LATENCY: 125.5 cycles
cpu0->cpu0_L1D TOTAL        ACCESS:  806972742 HIT:  724733542 MISS:   82239200 MSHR_MERGE:    6701528
cpu0->cpu0_L1D LOAD         ACCESS:  606391087 HIT:  525535529 MISS:   80855558 MSHR_MERGE:    5811508
cpu0->cpu0_L1D RFO          ACCESS:          0 HIT:          0 MISS:          0 MSHR_MERGE:          0
cpu0->cpu0_L1D PREFETCH     ACCESS:          0 HIT:          0 MISS:          0 MSHR_MERGE:          0
cpu0->cpu0_L1D WRITE        ACCESS:  200581655 HIT:  199198013 MISS:    1383642 MSHR_MERGE:     890020
cpu0->cpu0_L1D TRANSLATION  ACCESS:          0 HIT:          0 MISS:          0 MSHR_MERGE:          0
cpu0->cpu0_L1D PREFETCH REQUESTED:          0 ISSUED:          0 USEFUL:          0 USELESS:          0
cpu0->cpu0_L1D AVERAGE MISS LATENCY: 74.56 cycles
cpu0->cpu0_ITLB TOTAL        ACCESS:    3076124 HIT:    3076117 MISS:          7 MSHR_MERGE:          1
cpu0->cpu0_ITLB LOAD         ACCESS:    3076124 HIT:    3076117 MISS:          7 MSHR_MERGE:          1
cpu0->cpu0_ITLB RFO          ACCESS:          0 HIT:          0 MISS:          0 MSHR_MERGE:          0
cpu0->cpu0_ITLB PREFETCH     ACCESS:          0 HIT:          0 MISS:          0 MSHR_MERGE:          0
cpu0->cpu0_ITLB WRITE        ACCESS:          0 HIT:          0 MISS:          0 MSHR_MERGE:          0
cpu0->cpu0_ITLB TRANSLATION  ACCESS:          0 HIT:          0 MISS:          0 MSHR_MERGE:          0
cpu0->cpu0_ITLB PREFETCH REQUESTED:          0 ISSUED:          0 USEFUL:          0 USELESS:          0
cpu0->cpu0_ITLB AVERAGE MISS LATENCY: 690 cycles
cpu0->cpu0_DTLB TOTAL        ACCESS:  721869752 HIT:  688504952 MISS:   33364800 MSHR_MERGE:    9099268
cpu0->cpu0_DTLB LOAD         ACCESS:  721869752 HIT:  688504952 MISS:   33364800 MSHR_MERGE:    9099268
cpu0->cpu0_DTLB RFO          ACCESS:          0 HIT:          0 MISS:          0 MSHR_MERGE:          0
cpu0->cpu0_DTLB PREFETCH     ACCESS:          0 HIT:          0 MISS:          0 MSHR_MERGE:          0
cpu0->cpu0_DTLB WRITE        ACCESS:          0 HIT:          0 MISS:          0 MSHR_MERGE:          0
cpu0->cpu0_DTLB TRANSLATION  ACCESS:          0 HIT:          0 MISS:          0 MSHR_MERGE:          0
cpu0->cpu0_DTLB PREFETCH REQUESTED:          0 ISSUED:          0 USEFUL:          0 USELESS:          0
cpu0->cpu0_DTLB AVERAGE MISS LATENCY: 131.3 cycles
cpu0->LLC TOTAL        ACCESS:   57702192 HIT:   16612376 MISS:   41089816 MSHR_MERGE:          0
cpu0->LLC LOAD         ACCESS:   53676980 HIT:   12607142 MISS:   41069838 MSHR_MERGE:          0
cpu0->LLC RFO          ACCESS:      60582 HIT:      41906 MISS:      18676 MSHR_MERGE:          0
cpu0->LLC PREFETCH     ACCESS:          0 HIT:          0 MISS:          0 MSHR_MERGE:          0
cpu0->LLC WRITE        ACCESS:    3964630 HIT:    3963328 MISS:       1302 MSHR_MERGE:          0
cpu0->LLC TRANSLATION  ACCESS:          0 HIT:          0 MISS:          0 MSHR_MERGE:          0
cpu0->LLC PREFETCH REQUESTED:          0 ISSUED:          0 USEFUL:          0 USELESS:          0
cpu0->LLC AVERAGE MISS LATENCY: 100.1 cycles

DRAM Statistics

Channel 0 RQ ROW_BUFFER_HIT:     490848
  ROW_BUFFER_MISS:   36026528
  AVG DBUS CONGESTED CYCLE: 9.43
Channel 0 WQ ROW_BUFFER_HIT:     379793
  ROW_BUFFER_MISS:    1200097
  FULL:          0
Channel 0 REFRESHES ISSUED:     480244

Channel 1 RQ ROW_BUFFER_HIT:     497124
  ROW_BUFFER_MISS:   36307802
  AVG DBUS CONGESTED CYCLE: 9.423
Channel 1 WQ ROW_BUFFER_HIT:     381252
  ROW_BUFFER_MISS:    1199103
  FULL:          0
Channel 1 REFRESHES ISSUED:     480244
