
*** ChampSim Multicore Out-of-Order Simulator ***
Warmup Instructions: 0
Simulation Instructions: 9223372036854775807
Number of CPUs: 1
Page size: 2097152

Off-chip DRAM Size: 64 GiB Channels: 2 Width: 32-bit Data Rate: 4807 MT/s
[ERROR_PAGE_MANAGER] Error latency: 1990500 
[ERROR_PAGE_MANAGER] Random seed: 54321 (fixed for preload reproducibility)
[ERROR_PAGE_MANAGER] Cycle-based error modeling enabled
[ERROR_PAGE_MANAGER] Errors per interval: 1
[ERROR_PAGE_MANAGER] Error cycle interval: 1000000000 cycles

=== ERROR PAGE STATISTICS ===
Mode: CYCLE
Error Cycle Interval: 1000000000 CPU cycles
Total Error Accesses: 0
==============================
Warmup finished CPU 0 instructions: 0 cycles: 1 cumulative IPC: 0 (Simulation time: 00 hr 00 min 00 sec)
Warmup complete CPU 0 instructions: 0 cycles: 1 cumulative IPC: 0 (Simulation time: 00 hr 00 min 00 sec)
Heartbeat CPU 0 instructions: 10000000 cycles: 9116716 heartbeat IPC: 1.097 cumulative IPC: 1.097 (Simulation time: 00 hr 01 min 08 sec)
Heartbeat CPU 0 instructions: 20000000 cycles: 18146650 heartbeat IPC: 1.107 cumulative IPC: 1.102 (Simulation time: 00 hr 02 min 16 sec)
Heartbeat CPU 0 instructions: 30000000 cycles: 27184607 heartbeat IPC: 1.106 cumulative IPC: 1.104 (Simulation time: 00 hr 03 min 24 sec)
Heartbeat CPU 0 instructions: 40000001 cycles: 36219317 heartbeat IPC: 1.107 cumulative IPC: 1.104 (Simulation time: 00 hr 04 min 32 sec)
Heartbeat CPU 0 instructions: 50000005 cycles: 51015039 heartbeat IPC: 0.6759 cumulative IPC: 0.9801 (Simulation time: 00 hr 06 min 34 sec)
Heartbeat CPU 0 instructions: 60000005 cycles: 69168009 heartbeat IPC: 0.5509 cumulative IPC: 0.8675 (Simulation time: 00 hr 08 min 57 sec)
Heartbeat CPU 0 instructions: 70000008 cycles: 78181320 heartbeat IPC: 1.109 cumulative IPC: 0.8954 (Simulation time: 00 hr 10 min 06 sec)
Heartbeat CPU 0 instructions: 80000011 cycles: 87198300 heartbeat IPC: 1.109 cumulative IPC: 0.9174 (Simulation time: 00 hr 11 min 06 sec)
Heartbeat CPU 0 instructions: 90000011 cycles: 96210048 heartbeat IPC: 1.11 cumulative IPC: 0.9355 (Simulation time: 00 hr 12 min 15 sec)
Heartbeat CPU 0 instructions: 100000014 cycles: 105214837 heartbeat IPC: 1.111 cumulative IPC: 0.9504 (Simulation time: 00 hr 13 min 14 sec)
Heartbeat CPU 0 instructions: 110000014 cycles: 114225525 heartbeat IPC: 1.11 cumulative IPC: 0.963 (Simulation time: 00 hr 14 min 10 sec)
Heartbeat CPU 0 instructions: 120000018 cycles: 125564556 heartbeat IPC: 0.8819 cumulative IPC: 0.9557 (Simulation time: 00 hr 15 min 43 sec)
Heartbeat CPU 0 instructions: 130000019 cycles: 143365195 heartbeat IPC: 0.5618 cumulative IPC: 0.9068 (Simulation time: 00 hr 18 min 16 sec)
Heartbeat CPU 0 instructions: 140000019 cycles: 152382695 heartbeat IPC: 1.109 cumulative IPC: 0.9187 (Simulation time: 00 hr 19 min 24 sec)
Heartbeat CPU 0 instructions: 150000019 cycles: 161392091 heartbeat IPC: 1.11 cumulative IPC: 0.9294 (Simulation time: 00 hr 20 min 32 sec)
Heartbeat CPU 0 instructions: 160000020 cycles: 170401180 heartbeat IPC: 1.11 cumulative IPC: 0.939 (Simulation time: 00 hr 21 min 39 sec)
Heartbeat CPU 0 instructions: 170000020 cycles: 179407587 heartbeat IPC: 1.11 cumulative IPC: 0.9476 (Simulation time: 00 hr 22 min 48 sec)
Heartbeat CPU 0 instructions: 180000023 cycles: 188415704 heartbeat IPC: 1.11 cumulative IPC: 0.9553 (Simulation time: 00 hr 23 min 57 sec)
Heartbeat CPU 0 instructions: 190000026 cycles: 197428615 heartbeat IPC: 1.11 cumulative IPC: 0.9624 (Simulation time: 00 hr 25 min 06 sec)
Heartbeat CPU 0 instructions: 200000027 cycles: 214398216 heartbeat IPC: 0.5893 cumulative IPC: 0.9328 (Simulation time: 00 hr 27 min 32 sec)
Heartbeat CPU 0 instructions: 210000029 cycles: 226393528 heartbeat IPC: 0.8337 cumulative IPC: 0.9276 (Simulation time: 00 hr 29 min 07 sec)
Heartbeat CPU 0 instructions: 220000033 cycles: 235404455 heartbeat IPC: 1.11 cumulative IPC: 0.9346 (Simulation time: 00 hr 30 min 00 sec)
Heartbeat CPU 0 instructions: 230000036 cycles: 244419487 heartbeat IPC: 1.109 cumulative IPC: 0.941 (Simulation time: 00 hr 30 min 56 sec)
Heartbeat CPU 0 instructions: 240000039 cycles: 253430761 heartbeat IPC: 1.11 cumulative IPC: 0.947 (Simulation time: 00 hr 31 min 46 sec)
Heartbeat CPU 0 instructions: 250000039 cycles: 262432827 heartbeat IPC: 1.111 cumulative IPC: 0.9526 (Simulation time: 00 hr 32 min 49 sec)
Heartbeat CPU 0 instructions: 260000039 cycles: 271445657 heartbeat IPC: 1.11 cumulative IPC: 0.9578 (Simulation time: 00 hr 33 min 40 sec)
Heartbeat CPU 0 instructions: 270000040 cycles: 285068153 heartbeat IPC: 0.7341 cumulative IPC: 0.9471 (Simulation time: 00 hr 35 min 30 sec)
Heartbeat CPU 0 instructions: 280000044 cycles: 300404859 heartbeat IPC: 0.652 cumulative IPC: 0.9321 (Simulation time: 00 hr 37 min 27 sec)
Heartbeat CPU 0 instructions: 290000047 cycles: 309418745 heartbeat IPC: 1.109 cumulative IPC: 0.9372 (Simulation time: 00 hr 38 min 18 sec)
Heartbeat CPU 0 instructions: 300000048 cycles: 318431272 heartbeat IPC: 1.11 cumulative IPC: 0.9421 (Simulation time: 00 hr 39 min 08 sec)
Heartbeat CPU 0 instructions: 310000050 cycles: 327441305 heartbeat IPC: 1.11 cumulative IPC: 0.9467 (Simulation time: 00 hr 40 min 00 sec)
Heartbeat CPU 0 instructions: 320000054 cycles: 336448261 heartbeat IPC: 1.11 cumulative IPC: 0.9511 (Simulation time: 00 hr 41 min 06 sec)
Heartbeat CPU 0 instructions: 330000056 cycles: 345461765 heartbeat IPC: 1.109 cumulative IPC: 0.9552 (Simulation time: 00 hr 42 min 15 sec)
Heartbeat CPU 0 instructions: 340000056 cycles: 355751578 heartbeat IPC: 0.9718 cumulative IPC: 0.9557 (Simulation time: 00 hr 43 min 13 sec)
Heartbeat CPU 0 instructions: 350000056 cycles: 373989781 heartbeat IPC: 0.5483 cumulative IPC: 0.9359 (Simulation time: 00 hr 45 min 15 sec)
Heartbeat CPU 0 instructions: 360000056 cycles: 384277575 heartbeat IPC: 0.972 cumulative IPC: 0.9368 (Simulation time: 00 hr 46 min 24 sec)
Heartbeat CPU 0 instructions: 370000058 cycles: 394566261 heartbeat IPC: 0.9719 cumulative IPC: 0.9377 (Simulation time: 00 hr 47 min 23 sec)
Heartbeat CPU 0 instructions: 380000062 cycles: 404831608 heartbeat IPC: 0.9742 cumulative IPC: 0.9387 (Simulation time: 00 hr 48 min 35 sec)
Heartbeat CPU 0 instructions: 390000062 cycles: 417273686 heartbeat IPC: 0.8037 cumulative IPC: 0.9346 (Simulation time: 00 hr 50 min 11 sec)
Heartbeat CPU 0 instructions: 400000062 cycles: 431511898 heartbeat IPC: 0.7023 cumulative IPC: 0.927 (Simulation time: 00 hr 51 min 58 sec)
Heartbeat CPU 0 instructions: 410000062 cycles: 438294176 heartbeat IPC: 1.474 cumulative IPC: 0.9354 (Simulation time: 00 hr 53 min 06 sec)
Heartbeat CPU 0 instructions: 420000064 cycles: 445408783 heartbeat IPC: 1.406 cumulative IPC: 0.943 (Simulation time: 00 hr 54 min 22 sec)
Heartbeat CPU 0 instructions: 430000067 cycles: 453942287 heartbeat IPC: 1.172 cumulative IPC: 0.9473 (Simulation time: 00 hr 55 min 50 sec)
Heartbeat CPU 0 instructions: 440000067 cycles: 462832480 heartbeat IPC: 1.125 cumulative IPC: 0.9507 (Simulation time: 00 hr 57 min 20 sec)
Heartbeat CPU 0 instructions: 450000067 cycles: 471354173 heartbeat IPC: 1.173 cumulative IPC: 0.9547 (Simulation time: 00 hr 58 min 46 sec)
Heartbeat CPU 0 instructions: 460000069 cycles: 479916255 heartbeat IPC: 1.168 cumulative IPC: 0.9585 (Simulation time: 01 hr 00 min 14 sec)
Heartbeat CPU 0 instructions: 470000073 cycles: 488487627 heartbeat IPC: 1.167 cumulative IPC: 0.9622 (Simulation time: 01 hr 01 min 32 sec)
Heartbeat CPU 0 instructions: 480000074 cycles: 497145925 heartbeat IPC: 1.155 cumulative IPC: 0.9655 (Simulation time: 01 hr 02 min 43 sec)
Heartbeat CPU 0 instructions: 490000074 cycles: 505919639 heartbeat IPC: 1.14 cumulative IPC: 0.9685 (Simulation time: 01 hr 04 min 00 sec)
Heartbeat CPU 0 instructions: 500000076 cycles: 514423766 heartbeat IPC: 1.176 cumulative IPC: 0.972 (Simulation time: 01 hr 05 min 25 sec)
Heartbeat CPU 0 instructions: 510000079 cycles: 522980910 heartbeat IPC: 1.169 cumulative IPC: 0.9752 (Simulation time: 01 hr 06 min 50 sec)
Heartbeat CPU 0 instructions: 520000083 cycles: 531600784 heartbeat IPC: 1.16 cumulative IPC: 0.9782 (Simulation time: 01 hr 08 min 15 sec)
Heartbeat CPU 0 instructions: 530000087 cycles: 540399439 heartbeat IPC: 1.137 cumulative IPC: 0.9808 (Simulation time: 01 hr 09 min 30 sec)
Heartbeat CPU 0 instructions: 540000087 cycles: 548983523 heartbeat IPC: 1.165 cumulative IPC: 0.9836 (Simulation time: 01 hr 10 min 55 sec)
Heartbeat CPU 0 instructions: 550000089 cycles: 557545008 heartbeat IPC: 1.168 cumulative IPC: 0.9865 (Simulation time: 01 hr 12 min 20 sec)
Heartbeat CPU 0 instructions: 560000093 cycles: 566159217 heartbeat IPC: 1.161 cumulative IPC: 0.9891 (Simulation time: 01 hr 13 min 45 sec)
Heartbeat CPU 0 instructions: 570000097 cycles: 574766560 heartbeat IPC: 1.162 cumulative IPC: 0.9917 (Simulation time: 01 hr 15 min 10 sec)
Heartbeat CPU 0 instructions: 580000100 cycles: 583627517 heartbeat IPC: 1.129 cumulative IPC: 0.9938 (Simulation time: 01 hr 16 min 37 sec)
Heartbeat CPU 0 instructions: 590000101 cycles: 592060910 heartbeat IPC: 1.186 cumulative IPC: 0.9965 (Simulation time: 01 hr 18 min 04 sec)
Heartbeat CPU 0 instructions: 600000105 cycles: 600643131 heartbeat IPC: 1.165 cumulative IPC: 0.9989 (Simulation time: 01 hr 19 min 33 sec)
Heartbeat CPU 0 instructions: 610000107 cycles: 607576225 heartbeat IPC: 1.442 cumulative IPC: 1.004 (Simulation time: 01 hr 20 min 47 sec)
Heartbeat CPU 0 instructions: 620000108 cycles: 614317641 heartbeat IPC: 1.483 cumulative IPC: 1.009 (Simulation time: 01 hr 22 min 00 sec)
Heartbeat CPU 0 instructions: 630000109 cycles: 621045172 heartbeat IPC: 1.486 cumulative IPC: 1.014 (Simulation time: 01 hr 23 min 13 sec)
Heartbeat CPU 0 instructions: 640000109 cycles: 627792416 heartbeat IPC: 1.482 cumulative IPC: 1.019 (Simulation time: 01 hr 24 min 26 sec)
Heartbeat CPU 0 instructions: 650000113 cycles: 634350843 heartbeat IPC: 1.525 cumulative IPC: 1.025 (Simulation time: 01 hr 25 min 38 sec)
Heartbeat CPU 0 instructions: 660000113 cycles: 640853712 heartbeat IPC: 1.538 cumulative IPC: 1.03 (Simulation time: 01 hr 26 min 48 sec)
Heartbeat CPU 0 instructions: 670000114 cycles: 647354239 heartbeat IPC: 1.538 cumulative IPC: 1.035 (Simulation time: 01 hr 27 min 59 sec)
Heartbeat CPU 0 instructions: 680000114 cycles: 654700441 heartbeat IPC: 1.361 cumulative IPC: 1.039 (Simulation time: 01 hr 29 min 18 sec)
Heartbeat CPU 0 instructions: 690000115 cycles: 662174537 heartbeat IPC: 1.338 cumulative IPC: 1.042 (Simulation time: 01 hr 30 min 37 sec)
Heartbeat CPU 0 instructions: 700000115 cycles: 668658834 heartbeat IPC: 1.542 cumulative IPC: 1.047 (Simulation time: 01 hr 31 min 48 sec)
Heartbeat CPU 0 instructions: 710000117 cycles: 675766296 heartbeat IPC: 1.407 cumulative IPC: 1.051 (Simulation time: 01 hr 33 min 04 sec)
Heartbeat CPU 0 instructions: 720000119 cycles: 684618297 heartbeat IPC: 1.13 cumulative IPC: 1.052 (Simulation time: 01 hr 34 min 35 sec)
Heartbeat CPU 0 instructions: 730000120 cycles: 693153646 heartbeat IPC: 1.172 cumulative IPC: 1.053 (Simulation time: 01 hr 36 min 02 sec)
Heartbeat CPU 0 instructions: 740000123 cycles: 701710766 heartbeat IPC: 1.169 cumulative IPC: 1.055 (Simulation time: 01 hr 37 min 31 sec)
Heartbeat CPU 0 instructions: 750000124 cycles: 710289224 heartbeat IPC: 1.166 cumulative IPC: 1.056 (Simulation time: 01 hr 38 min 59 sec)
[ERROR_CYCLE] Error added at CPU cycle 712780568, next at 915330628, pending count: 1
[DRAM_CYCLE_ERROR] Cycle-based error applied! address=0xc39e6dcc0 additional_latency=1990500 cycles
Heartbeat CPU 0 instructions: 760000124 cycles: 718923275 heartbeat IPC: 1.158 cumulative IPC: 1.057 (Simulation time: 01 hr 40 min 28 sec)
Heartbeat CPU 0 instructions: 770000125 cycles: 727767848 heartbeat IPC: 1.131 cumulative IPC: 1.058 (Simulation time: 01 hr 41 min 58 sec)
Heartbeat CPU 0 instructions: 780000128 cycles: 736184821 heartbeat IPC: 1.188 cumulative IPC: 1.06 (Simulation time: 01 hr 43 min 24 sec)
Heartbeat CPU 0 instructions: 790000129 cycles: 744752803 heartbeat IPC: 1.167 cumulative IPC: 1.061 (Simulation time: 01 hr 44 min 52 sec)
Heartbeat CPU 0 instructions: 800000130 cycles: 753359309 heartbeat IPC: 1.162 cumulative IPC: 1.062 (Simulation time: 01 hr 46 min 21 sec)
Heartbeat CPU 0 instructions: 810000131 cycles: 762101890 heartbeat IPC: 1.144 cumulative IPC: 1.063 (Simulation time: 01 hr 47 min 50 sec)
Heartbeat CPU 0 instructions: 820000134 cycles: 770661509 heartbeat IPC: 1.168 cumulative IPC: 1.064 (Simulation time: 01 hr 49 min 18 sec)
Heartbeat CPU 0 instructions: 830000138 cycles: 779212047 heartbeat IPC: 1.17 cumulative IPC: 1.065 (Simulation time: 01 hr 50 min 46 sec)
Heartbeat CPU 0 instructions: 840000141 cycles: 787772013 heartbeat IPC: 1.168 cumulative IPC: 1.066 (Simulation time: 01 hr 52 min 14 sec)
Heartbeat CPU 0 instructions: 850000141 cycles: 796334269 heartbeat IPC: 1.168 cumulative IPC: 1.067 (Simulation time: 01 hr 53 min 42 sec)
Heartbeat CPU 0 instructions: 860000141 cycles: 805229406 heartbeat IPC: 1.124 cumulative IPC: 1.068 (Simulation time: 01 hr 55 min 12 sec)
Heartbeat CPU 0 instructions: 870000143 cycles: 813632840 heartbeat IPC: 1.19 cumulative IPC: 1.069 (Simulation time: 01 hr 56 min 38 sec)
Heartbeat CPU 0 instructions: 880000147 cycles: 822204112 heartbeat IPC: 1.167 cumulative IPC: 1.07 (Simulation time: 01 hr 58 min 06 sec)
Heartbeat CPU 0 instructions: 890000150 cycles: 830752013 heartbeat IPC: 1.17 cumulative IPC: 1.071 (Simulation time: 01 hr 59 min 34 sec)
Heartbeat CPU 0 instructions: 900000153 cycles: 839449755 heartbeat IPC: 1.15 cumulative IPC: 1.072 (Simulation time: 02 hr 01 min 03 sec)
Heartbeat CPU 0 instructions: 910000156 cycles: 848045907 heartbeat IPC: 1.163 cumulative IPC: 1.073 (Simulation time: 02 hr 02 min 32 sec)
Heartbeat CPU 0 instructions: 920000159 cycles: 856585387 heartbeat IPC: 1.171 cumulative IPC: 1.074 (Simulation time: 02 hr 04 min 01 sec)
Heartbeat CPU 0 instructions: 930000159 cycles: 865118361 heartbeat IPC: 1.172 cumulative IPC: 1.075 (Simulation time: 02 hr 05 min 30 sec)
Heartbeat CPU 0 instructions: 940000161 cycles: 873653228 heartbeat IPC: 1.172 cumulative IPC: 1.076 (Simulation time: 02 hr 06 min 59 sec)
Heartbeat CPU 0 instructions: 950000161 cycles: 882533808 heartbeat IPC: 1.126 cumulative IPC: 1.076 (Simulation time: 02 hr 08 min 31 sec)
Heartbeat CPU 0 instructions: 960000163 cycles: 890973648 heartbeat IPC: 1.185 cumulative IPC: 1.077 (Simulation time: 02 hr 09 min 58 sec)
Heartbeat CPU 0 instructions: 970000164 cycles: 899552964 heartbeat IPC: 1.166 cumulative IPC: 1.078 (Simulation time: 02 hr 11 min 27 sec)
Heartbeat CPU 0 instructions: 980000165 cycles: 908134772 heartbeat IPC: 1.165 cumulative IPC: 1.079 (Simulation time: 02 hr 12 min 56 sec)
[ERROR_CYCLE] Error added at CPU cycle 915330628, next at 2569606398, pending count: 1
[DRAM_CYCLE_ERROR] Cycle-based error applied! address=0xb36abcf80 additional_latency=1990500 cycles
Heartbeat CPU 0 instructions: 990000167 cycles: 916793902 heartbeat IPC: 1.155 cumulative IPC: 1.08 (Simulation time: 02 hr 14 min 25 sec)
Heartbeat CPU 0 instructions: 1000000170 cycles: 925484221 heartbeat IPC: 1.151 cumulative IPC: 1.081 (Simulation time: 02 hr 15 min 48 sec)
Heartbeat CPU 0 instructions: 1010000170 cycles: 933995442 heartbeat IPC: 1.175 cumulative IPC: 1.081 (Simulation time: 02 hr 17 min 08 sec)
Heartbeat CPU 0 instructions: 1020000171 cycles: 942562516 heartbeat IPC: 1.167 cumulative IPC: 1.082 (Simulation time: 02 hr 18 min 36 sec)
Heartbeat CPU 0 instructions: 1030000174 cycles: 951092421 heartbeat IPC: 1.172 cumulative IPC: 1.083 (Simulation time: 02 hr 20 min 05 sec)
Heartbeat CPU 0 instructions: 1040000174 cycles: 959915514 heartbeat IPC: 1.133 cumulative IPC: 1.083 (Simulation time: 02 hr 21 min 34 sec)
Heartbeat CPU 0 instructions: 1050000178 cycles: 968446574 heartbeat IPC: 1.172 cumulative IPC: 1.084 (Simulation time: 02 hr 23 min 03 sec)
Heartbeat CPU 0 instructions: 1060000182 cycles: 977022638 heartbeat IPC: 1.166 cumulative IPC: 1.085 (Simulation time: 02 hr 24 min 31 sec)
Heartbeat CPU 0 instructions: 1070000182 cycles: 985587534 heartbeat IPC: 1.168 cumulative IPC: 1.086 (Simulation time: 02 hr 26 min 00 sec)
Heartbeat CPU 0 instructions: 1080000186 cycles: 994210085 heartbeat IPC: 1.16 cumulative IPC: 1.086 (Simulation time: 02 hr 27 min 30 sec)
Heartbeat CPU 0 instructions: 1090000188 cycles: 1003075880 heartbeat IPC: 1.128 cumulative IPC: 1.087 (Simulation time: 02 hr 29 min 01 sec)
Heartbeat CPU 0 instructions: 1100000189 cycles: 1011550946 heartbeat IPC: 1.18 cumulative IPC: 1.087 (Simulation time: 02 hr 30 min 28 sec)
Heartbeat CPU 0 instructions: 1110000190 cycles: 1020148006 heartbeat IPC: 1.163 cumulative IPC: 1.088 (Simulation time: 02 hr 31 min 57 sec)
Heartbeat CPU 0 instructions: 1120000190 cycles: 1028757127 heartbeat IPC: 1.162 cumulative IPC: 1.089 (Simulation time: 02 hr 33 min 26 sec)
Heartbeat CPU 0 instructions: 1130000192 cycles: 1037563863 heartbeat IPC: 1.135 cumulative IPC: 1.089 (Simulation time: 02 hr 34 min 56 sec)
Heartbeat CPU 0 instructions: 1140000194 cycles: 1046166968 heartbeat IPC: 1.162 cumulative IPC: 1.09 (Simulation time: 02 hr 36 min 25 sec)
Heartbeat CPU 0 instructions: 1150000194 cycles: 1054766002 heartbeat IPC: 1.163 cumulative IPC: 1.09 (Simulation time: 02 hr 37 min 54 sec)
Heartbeat CPU 0 instructions: 1160000197 cycles: 1063353512 heartbeat IPC: 1.164 cumulative IPC: 1.091 (Simulation time: 02 hr 39 min 23 sec)
Heartbeat CPU 0 instructions: 1170000199 cycles: 1071994615 heartbeat IPC: 1.157 cumulative IPC: 1.091 (Simulation time: 02 hr 40 min 52 sec)
Heartbeat CPU 0 instructions: 1180000199 cycles: 1080873697 heartbeat IPC: 1.126 cumulative IPC: 1.092 (Simulation time: 02 hr 42 min 24 sec)
Heartbeat CPU 0 instructions: 1190000199 cycles: 1089347564 heartbeat IPC: 1.18 cumulative IPC: 1.092 (Simulation time: 02 hr 43 min 51 sec)
Heartbeat CPU 0 instructions: 1200000203 cycles: 1097924606 heartbeat IPC: 1.166 cumulative IPC: 1.093 (Simulation time: 02 hr 45 min 20 sec)
Heartbeat CPU 0 instructions: 1210000203 cycles: 1106536379 heartbeat IPC: 1.161 cumulative IPC: 1.094 (Simulation time: 02 hr 46 min 49 sec)
Heartbeat CPU 0 instructions: 1220000204 cycles: 1115250133 heartbeat IPC: 1.148 cumulative IPC: 1.094 (Simulation time: 02 hr 48 min 19 sec)
Heartbeat CPU 0 instructions: 1230000208 cycles: 1123913683 heartbeat IPC: 1.154 cumulative IPC: 1.094 (Simulation time: 02 hr 49 min 48 sec)
Heartbeat CPU 0 instructions: 1240000209 cycles: 1132501430 heartbeat IPC: 1.164 cumulative IPC: 1.095 (Simulation time: 02 hr 51 min 17 sec)
Heartbeat CPU 0 instructions: 1250000211 cycles: 1141094503 heartbeat IPC: 1.164 cumulative IPC: 1.095 (Simulation time: 02 hr 52 min 46 sec)
Heartbeat CPU 0 instructions: 1260000214 cycles: 1149690747 heartbeat IPC: 1.163 cumulative IPC: 1.096 (Simulation time: 02 hr 54 min 15 sec)
Heartbeat CPU 0 instructions: 1270000214 cycles: 1158603996 heartbeat IPC: 1.122 cumulative IPC: 1.096 (Simulation time: 02 hr 55 min 46 sec)
Heartbeat CPU 0 instructions: 1280000218 cycles: 1167090894 heartbeat IPC: 1.178 cumulative IPC: 1.097 (Simulation time: 02 hr 57 min 15 sec)
Heartbeat CPU 0 instructions: 1290000218 cycles: 1175661342 heartbeat IPC: 1.167 cumulative IPC: 1.097 (Simulation time: 02 hr 58 min 44 sec)
Heartbeat CPU 0 instructions: 1300000218 cycles: 1184249715 heartbeat IPC: 1.164 cumulative IPC: 1.098 (Simulation time: 03 hr 00 min 13 sec)
Heartbeat CPU 0 instructions: 1310000218 cycles: 1192904138 heartbeat IPC: 1.155 cumulative IPC: 1.098 (Simulation time: 03 hr 01 min 43 sec)
Heartbeat CPU 0 instructions: 1320000222 cycles: 1201618518 heartbeat IPC: 1.148 cumulative IPC: 1.099 (Simulation time: 03 hr 03 min 13 sec)
Heartbeat CPU 0 instructions: 1330000224 cycles: 1210132819 heartbeat IPC: 1.174 cumulative IPC: 1.099 (Simulation time: 03 hr 04 min 42 sec)
Heartbeat CPU 0 instructions: 1340000225 cycles: 1218730584 heartbeat IPC: 1.163 cumulative IPC: 1.1 (Simulation time: 03 hr 06 min 10 sec)
Heartbeat CPU 0 instructions: 1350000227 cycles: 1227272840 heartbeat IPC: 1.171 cumulative IPC: 1.1 (Simulation time: 03 hr 07 min 38 sec)
Heartbeat CPU 0 instructions: 1360000231 cycles: 1236132435 heartbeat IPC: 1.129 cumulative IPC: 1.1 (Simulation time: 03 hr 09 min 09 sec)
Heartbeat CPU 0 instructions: 1370000231 cycles: 1244662625 heartbeat IPC: 1.172 cumulative IPC: 1.101 (Simulation time: 03 hr 10 min 36 sec)
Heartbeat CPU 0 instructions: 1380000232 cycles: 1253257818 heartbeat IPC: 1.163 cumulative IPC: 1.101 (Simulation time: 03 hr 12 min 05 sec)
Heartbeat CPU 0 instructions: 1390000232 cycles: 1261829118 heartbeat IPC: 1.167 cumulative IPC: 1.102 (Simulation time: 03 hr 13 min 34 sec)
Heartbeat CPU 0 instructions: 1400000232 cycles: 1270490555 heartbeat IPC: 1.155 cumulative IPC: 1.102 (Simulation time: 03 hr 15 min 03 sec)
Heartbeat CPU 0 instructions: 1410000234 cycles: 1279302319 heartbeat IPC: 1.135 cumulative IPC: 1.102 (Simulation time: 03 hr 16 min 33 sec)
Heartbeat CPU 0 instructions: 1420000234 cycles: 1287786604 heartbeat IPC: 1.179 cumulative IPC: 1.103 (Simulation time: 03 hr 18 min 01 sec)
Heartbeat CPU 0 instructions: 1430000235 cycles: 1296340105 heartbeat IPC: 1.169 cumulative IPC: 1.103 (Simulation time: 03 hr 19 min 29 sec)
Heartbeat CPU 0 instructions: 1440000238 cycles: 1304939352 heartbeat IPC: 1.163 cumulative IPC: 1.103 (Simulation time: 03 hr 20 min 56 sec)
Heartbeat CPU 0 instructions: 1450000241 cycles: 1311357296 heartbeat IPC: 1.558 cumulative IPC: 1.106 (Simulation time: 03 hr 22 min 06 sec)
Heartbeat CPU 0 instructions: 1460000242 cycles: 1317812059 heartbeat IPC: 1.549 cumulative IPC: 1.108 (Simulation time: 03 hr 23 min 17 sec)
Heartbeat CPU 0 instructions: 1470000245 cycles: 1324281351 heartbeat IPC: 1.546 cumulative IPC: 1.11 (Simulation time: 03 hr 24 min 29 sec)
Heartbeat CPU 0 instructions: 1480000245 cycles: 1330728218 heartbeat IPC: 1.551 cumulative IPC: 1.112 (Simulation time: 03 hr 25 min 40 sec)
Heartbeat CPU 0 instructions: 1490000249 cycles: 1337190307 heartbeat IPC: 1.547 cumulative IPC: 1.114 (Simulation time: 03 hr 26 min 44 sec)
Heartbeat CPU 0 instructions: 1500000249 cycles: 1343638260 heartbeat IPC: 1.551 cumulative IPC: 1.116 (Simulation time: 03 hr 27 min 51 sec)
Heartbeat CPU 0 instructions: 1510000250 cycles: 1350117276 heartbeat IPC: 1.543 cumulative IPC: 1.118 (Simulation time: 03 hr 29 min 01 sec)
Heartbeat CPU 0 instructions: 1520000253 cycles: 1356576455 heartbeat IPC: 1.548 cumulative IPC: 1.12 (Simulation time: 03 hr 30 min 12 sec)
Heartbeat CPU 0 instructions: 1530000253 cycles: 1363051790 heartbeat IPC: 1.544 cumulative IPC: 1.122 (Simulation time: 03 hr 31 min 22 sec)
Heartbeat CPU 0 instructions: 1540000253 cycles: 1369497312 heartbeat IPC: 1.551 cumulative IPC: 1.125 (Simulation time: 03 hr 32 min 28 sec)
Heartbeat CPU 0 instructions: 1550000256 cycles: 1375975580 heartbeat IPC: 1.544 cumulative IPC: 1.126 (Simulation time: 03 hr 33 min 24 sec)
Heartbeat CPU 0 instructions: 1560000257 cycles: 1382410462 heartbeat IPC: 1.554 cumulative IPC: 1.128 (Simulation time: 03 hr 34 min 31 sec)
Heartbeat CPU 0 instructions: 1570000261 cycles: 1388806505 heartbeat IPC: 1.563 cumulative IPC: 1.13 (Simulation time: 03 hr 35 min 42 sec)
Heartbeat CPU 0 instructions: 1580000263 cycles: 1394825362 heartbeat IPC: 1.661 cumulative IPC: 1.133 (Simulation time: 03 hr 36 min 49 sec)
Heartbeat CPU 0 instructions: 1590000263 cycles: 1401179158 heartbeat IPC: 1.574 cumulative IPC: 1.135 (Simulation time: 03 hr 37 min 59 sec)
Heartbeat CPU 0 instructions: 1600000263 cycles: 1407616104 heartbeat IPC: 1.554 cumulative IPC: 1.137 (Simulation time: 03 hr 39 min 09 sec)
Heartbeat CPU 0 instructions: 1610000265 cycles: 1414072938 heartbeat IPC: 1.549 cumulative IPC: 1.139 (Simulation time: 03 hr 40 min 20 sec)
Heartbeat CPU 0 instructions: 1620000266 cycles: 1420516195 heartbeat IPC: 1.552 cumulative IPC: 1.14 (Simulation time: 03 hr 41 min 30 sec)
Heartbeat CPU 0 instructions: 1630000267 cycles: 1426977984 heartbeat IPC: 1.548 cumulative IPC: 1.142 (Simulation time: 03 hr 42 min 40 sec)
Heartbeat CPU 0 instructions: 1640000271 cycles: 1433450781 heartbeat IPC: 1.545 cumulative IPC: 1.144 (Simulation time: 03 hr 43 min 51 sec)
Heartbeat CPU 0 instructions: 1650000273 cycles: 1439898099 heartbeat IPC: 1.551 cumulative IPC: 1.146 (Simulation time: 03 hr 45 min 02 sec)
Heartbeat CPU 0 instructions: 1660000274 cycles: 1446350837 heartbeat IPC: 1.55 cumulative IPC: 1.148 (Simulation time: 03 hr 46 min 12 sec)
Heartbeat CPU 0 instructions: 1670000278 cycles: 1452813883 heartbeat IPC: 1.547 cumulative IPC: 1.149 (Simulation time: 03 hr 47 min 23 sec)
Heartbeat CPU 0 instructions: 1680000279 cycles: 1459285970 heartbeat IPC: 1.545 cumulative IPC: 1.151 (Simulation time: 03 hr 48 min 34 sec)
Heartbeat CPU 0 instructions: 1690000280 cycles: 1465729989 heartbeat IPC: 1.552 cumulative IPC: 1.153 (Simulation time: 03 hr 49 min 45 sec)
Heartbeat CPU 0 instructions: 1700000280 cycles: 1472200991 heartbeat IPC: 1.545 cumulative IPC: 1.155 (Simulation time: 03 hr 50 min 55 sec)
Heartbeat CPU 0 instructions: 1710000280 cycles: 1478654336 heartbeat IPC: 1.55 cumulative IPC: 1.156 (Simulation time: 03 hr 52 min 06 sec)
Heartbeat CPU 0 instructions: 1720000284 cycles: 1484886014 heartbeat IPC: 1.605 cumulative IPC: 1.158 (Simulation time: 03 hr 53 min 15 sec)
Heartbeat CPU 0 instructions: 1730000286 cycles: 1490953077 heartbeat IPC: 1.648 cumulative IPC: 1.16 (Simulation time: 03 hr 54 min 23 sec)
Heartbeat CPU 0 instructions: 1740000287 cycles: 1497428730 heartbeat IPC: 1.544 cumulative IPC: 1.162 (Simulation time: 03 hr 55 min 34 sec)
Heartbeat CPU 0 instructions: 1750000288 cycles: 1503867259 heartbeat IPC: 1.553 cumulative IPC: 1.164 (Simulation time: 03 hr 56 min 44 sec)
Heartbeat CPU 0 instructions: 1760000288 cycles: 1510325094 heartbeat IPC: 1.549 cumulative IPC: 1.165 (Simulation time: 03 hr 57 min 55 sec)
Heartbeat CPU 0 instructions: 1770000288 cycles: 1516780129 heartbeat IPC: 1.549 cumulative IPC: 1.167 (Simulation time: 03 hr 59 min 06 sec)
Heartbeat CPU 0 instructions: 1780000289 cycles: 1523249094 heartbeat IPC: 1.546 cumulative IPC: 1.169 (Simulation time: 04 hr 00 min 17 sec)
Heartbeat CPU 0 instructions: 1790000291 cycles: 1529698350 heartbeat IPC: 1.551 cumulative IPC: 1.17 (Simulation time: 04 hr 01 min 27 sec)
Heartbeat CPU 0 instructions: 1800000291 cycles: 1536173611 heartbeat IPC: 1.544 cumulative IPC: 1.172 (Simulation time: 04 hr 02 min 38 sec)
Heartbeat CPU 0 instructions: 1810000291 cycles: 1542654523 heartbeat IPC: 1.543 cumulative IPC: 1.173 (Simulation time: 04 hr 03 min 49 sec)
Heartbeat CPU 0 instructions: 1820000294 cycles: 1549119833 heartbeat IPC: 1.547 cumulative IPC: 1.175 (Simulation time: 04 hr 05 min 00 sec)
Heartbeat CPU 0 instructions: 1830000297 cycles: 1555596778 heartbeat IPC: 1.544 cumulative IPC: 1.176 (Simulation time: 04 hr 06 min 11 sec)
Heartbeat CPU 0 instructions: 1840000298 cycles: 1562060426 heartbeat IPC: 1.547 cumulative IPC: 1.178 (Simulation time: 04 hr 07 min 22 sec)
Heartbeat CPU 0 instructions: 1850000300 cycles: 1568535789 heartbeat IPC: 1.544 cumulative IPC: 1.179 (Simulation time: 04 hr 08 min 33 sec)
Heartbeat CPU 0 instructions: 1860000300 cycles: 1575044168 heartbeat IPC: 1.536 cumulative IPC: 1.181 (Simulation time: 04 hr 09 min 44 sec)
Heartbeat CPU 0 instructions: 1870000300 cycles: 1581112178 heartbeat IPC: 1.648 cumulative IPC: 1.183 (Simulation time: 04 hr 10 min 52 sec)
Heartbeat CPU 0 instructions: 1880000300 cycles: 1587344161 heartbeat IPC: 1.605 cumulative IPC: 1.184 (Simulation time: 04 hr 12 min 01 sec)
Heartbeat CPU 0 instructions: 1890000302 cycles: 1593798354 heartbeat IPC: 1.549 cumulative IPC: 1.186 (Simulation time: 04 hr 13 min 11 sec)
Heartbeat CPU 0 instructions: 1900000302 cycles: 1600265847 heartbeat IPC: 1.546 cumulative IPC: 1.187 (Simulation time: 04 hr 14 min 22 sec)
Heartbeat CPU 0 instructions: 1910000302 cycles: 1606723731 heartbeat IPC: 1.548 cumulative IPC: 1.189 (Simulation time: 04 hr 15 min 33 sec)
Heartbeat CPU 0 instructions: 1920000303 cycles: 1613183574 heartbeat IPC: 1.548 cumulative IPC: 1.19 (Simulation time: 04 hr 16 min 44 sec)
Heartbeat CPU 0 instructions: 1930000307 cycles: 1619646612 heartbeat IPC: 1.547 cumulative IPC: 1.192 (Simulation time: 04 hr 17 min 55 sec)
Heartbeat CPU 0 instructions: 1940000308 cycles: 1626138244 heartbeat IPC: 1.54 cumulative IPC: 1.193 (Simulation time: 04 hr 19 min 06 sec)
Heartbeat CPU 0 instructions: 1950000308 cycles: 1632599703 heartbeat IPC: 1.548 cumulative IPC: 1.194 (Simulation time: 04 hr 20 min 17 sec)
Heartbeat CPU 0 instructions: 1960000310 cycles: 1639091751 heartbeat IPC: 1.54 cumulative IPC: 1.196 (Simulation time: 04 hr 21 min 28 sec)
Heartbeat CPU 0 instructions: 1970000311 cycles: 1645560354 heartbeat IPC: 1.546 cumulative IPC: 1.197 (Simulation time: 04 hr 22 min 39 sec)
Heartbeat CPU 0 instructions: 1980000312 cycles: 1652041906 heartbeat IPC: 1.543 cumulative IPC: 1.199 (Simulation time: 04 hr 23 min 49 sec)
Heartbeat CPU 0 instructions: 1990000313 cycles: 1658509485 heartbeat IPC: 1.546 cumulative IPC: 1.2 (Simulation time: 04 hr 25 min 00 sec)

=== ERROR PAGE STATISTICS ===
Mode: CYCLE
Error Cycle Interval: 1000000000 CPU cycles
Total Error Accesses: 2
==============================
Simulation finished CPU 0 instructions: 1999999509 cycles: 1664986073 cumulative IPC: 1.201 (Simulation time: 04 hr 26 min 10 sec)
Simulation complete CPU 0 instructions: 1999999509 cycles: 1664986073 cumulative IPC: 1.201 (Simulation time: 04 hr 26 min 10 sec)

ChampSim completed all CPUs

=== Simulation ===
CPU 0 runs test_traces/654.roms_s-1007B.champsimtrace.xz

Region of Interest Statistics

CPU 0 cumulative IPC: 1.201 instructions: 1999999509 cycles: 1664986073
CPU 0 Branch Prediction Accuracy: 95.85% MPKI: 3.086 Average ROB Occupancy at Mispredict: 45.57
Branch type MPKI
BRANCH_DIRECT_JUMP: 9.8e-05
BRANCH_INDIRECT: 6e-06
BRANCH_CONDITIONAL: 1.593
BRANCH_DIRECT_CALL: 3.65e-05
BRANCH_INDIRECT_CALL: 0
BRANCH_RETURN: 1.493

cpu0->cpu0_STLB TOTAL        ACCESS:   39022110 HIT:   39021230 MISS:        880 MSHR_MERGE:          0
cpu0->cpu0_STLB LOAD         ACCESS:   39022110 HIT:   39021230 MISS:        880 MSHR_MERGE:          0
cpu0->cpu0_STLB RFO          ACCESS:          0 HIT:          0 MISS:          0 MSHR_MERGE:          0
cpu0->cpu0_STLB PREFETCH     ACCESS:          0 HIT:          0 MISS:          0 MSHR_MERGE:          0
cpu0->cpu0_STLB WRITE        ACCESS:          0 HIT:          0 MISS:          0 MSHR_MERGE:          0
cpu0->cpu0_STLB TRANSLATION  ACCESS:          0 HIT:          0 MISS:          0 MSHR_MERGE:          0
cpu0->cpu0_STLB PREFETCH REQUESTED:          0 ISSUED:          0 USEFUL:          0 USELESS:          0
cpu0->cpu0_STLB AVERAGE MISS LATENCY: 8722 cycles
cpu0->cpu0_L2C TOTAL        ACCESS:   35187826 HIT:   15858871 MISS:   19328955 MSHR_MERGE:          0
cpu0->cpu0_L2C LOAD         ACCESS:   22563645 HIT:    7672342 MISS:   14891303 MSHR_MERGE:          0
cpu0->cpu0_L2C RFO          ACCESS:    5289532 HIT:     857703 MISS:    4431829 MSHR_MERGE:          0
cpu0->cpu0_L2C PREFETCH     ACCESS:          0 HIT:          0 MISS:          0 MSHR_MERGE:          0
cpu0->cpu0_L2C WRITE        ACCESS:    7334649 HIT:    7328826 MISS:       5823 MSHR_MERGE:          0
cpu0->cpu0_L2C TRANSLATION  ACCESS:          0 HIT:          0 MISS:          0 MSHR_MERGE:          0
cpu0->cpu0_L2C PREFETCH REQUESTED:          0 ISSUED:          0 USEFUL:          0 USELESS:          0
cpu0->cpu0_L2C AVERAGE MISS LATENCY: 60.27 cycles
cpu0->cpu0_L1I TOTAL        ACCESS:  419294944 HIT:  419294344 MISS:        600 MSHR_MERGE:        187
cpu0->cpu0_L1I LOAD         ACCESS:  419294944 HIT:  419294344 MISS:        600 MSHR_MERGE:        187
cpu0->cpu0_L1I RFO          ACCESS:          0 HIT:          0 MISS:          0 MSHR_MERGE:          0
cpu0->cpu0_L1I PREFETCH     ACCESS:          0 HIT:          0 MISS:          0 MSHR_MERGE:          0
cpu0->cpu0_L1I WRITE        ACCESS:          0 HIT:          0 MISS:          0 MSHR_MERGE:          0
cpu0->cpu0_L1I TRANSLATION  ACCESS:          0 HIT:          0 MISS:          0 MSHR_MERGE:          0
cpu0->cpu0_L1I PREFETCH REQUESTED:          0 ISSUED:          0 USEFUL:          0 USELESS:          0
cpu0->cpu0_L1I AVERAGE MISS LATENCY: 119.5 cycles
cpu0->cpu0_L1D TOTAL        ACCESS:  768701255 HIT:  729991361 MISS:   38709894 MSHR_MERGE:   10856623
cpu0->cpu0_L1D LOAD         ACCESS:  587622068 HIT:  557918296 MISS:   29703772 MSHR_MERGE:    7140532
cpu0->cpu0_L1D RFO          ACCESS:          0 HIT:          0 MISS:          0 MSHR_MERGE:          0
cpu0->cpu0_L1D PREFETCH     ACCESS:          0 HIT:          0 MISS:          0 MSHR_MERGE:          0
cpu0->cpu0_L1D WRITE        ACCESS:  181079187 HIT:  172073065 MISS:    9006122 MSHR_MERGE:    3716091
cpu0->cpu0_L1D TRANSLATION  ACCESS:          0 HIT:          0 MISS:          0 MSHR_MERGE:          0
cpu0->cpu0_L1D PREFETCH REQUESTED:          0 ISSUED:          0 USEFUL:          0 USELESS:          0
cpu0->cpu0_L1D AVERAGE MISS LATENCY: 50.57 cycles
cpu0->cpu0_ITLB TOTAL        ACCESS:  364621780 HIT:  364621779 MISS:          1 MSHR_MERGE:          0
cpu0->cpu0_ITLB LOAD         ACCESS:  364621780 HIT:  364621779 MISS:          1 MSHR_MERGE:          0
cpu0->cpu0_ITLB RFO          ACCESS:          0 HIT:          0 MISS:          0 MSHR_MERGE:          0
cpu0->cpu0_ITLB PREFETCH     ACCESS:          0 HIT:          0 MISS:          0 MSHR_MERGE:          0
cpu0->cpu0_ITLB WRITE        ACCESS:          0 HIT:          0 MISS:          0 MSHR_MERGE:          0
cpu0->cpu0_ITLB TRANSLATION  ACCESS:          0 HIT:          0 MISS:          0 MSHR_MERGE:          0
cpu0->cpu0_ITLB PREFETCH REQUESTED:          0 ISSUED:          0 USEFUL:          0 USELESS:          0
cpu0->cpu0_ITLB AVERAGE MISS LATENCY: 1.722e+04 cycles
cpu0->cpu0_DTLB TOTAL        ACCESS:  653279534 HIT:  614238839 MISS:   39040695 MSHR_MERGE:      18586
cpu0->cpu0_DTLB LOAD         ACCESS:  653279534 HIT:  614238839 MISS:   39040695 MSHR_MERGE:      18586
cpu0->cpu0_DTLB RFO          ACCESS:          0 HIT:          0 MISS:          0 MSHR_MERGE:          0
cpu0->cpu0_DTLB PREFETCH     ACCESS:          0 HIT:          0 MISS:          0 MSHR_MERGE:          0
cpu0->cpu0_DTLB WRITE        ACCESS:          0 HIT:          0 MISS:          0 MSHR_MERGE:          0
cpu0->cpu0_DTLB TRANSLATION  ACCESS:          0 HIT:          0 MISS:          0 MSHR_MERGE:          0
cpu0->cpu0_DTLB PREFETCH REQUESTED:          0 ISSUED:          0 USEFUL:          0 USELESS:          0
cpu0->cpu0_DTLB AVERAGE MISS LATENCY: 5.22 cycles
cpu0->LLC TOTAL        ACCESS:   25251974 HIT:   16383794 MISS:    8868180 MSHR_MERGE:          0
cpu0->LLC LOAD         ACCESS:   14891303 HIT:    7671958 MISS:    7219345 MSHR_MERGE:          0
cpu0->LLC RFO          ACCESS:    4431829 HIT:    2788315 MISS:    1643514 MSHR_MERGE:          0
cpu0->LLC PREFETCH     ACCESS:          0 HIT:          0 MISS:          0 MSHR_MERGE:          0
cpu0->LLC WRITE        ACCESS:    5928842 HIT:    5923521 MISS:       5321 MSHR_MERGE:          0
cpu0->LLC TRANSLATION  ACCESS:          0 HIT:          0 MISS:          0 MSHR_MERGE:          0
cpu0->LLC PREFETCH REQUESTED:          0 ISSUED:          0 USEFUL:          0 USELESS:          0
cpu0->LLC AVERAGE MISS LATENCY: 97.67 cycles

DRAM Statistics

Channel 0 RQ ROW_BUFFER_HIT:      79587
  ROW_BUFFER_MISS:    4352510
  AVG DBUS CONGESTED CYCLE: 11.47
Channel 0 WQ ROW_BUFFER_HIT:     183767
  ROW_BUFFER_MISS:     674508
  FULL:          0
Channel 0 REFRESHES ISSUED:     138739

Channel 1 RQ ROW_BUFFER_HIT:      79640
  ROW_BUFFER_MISS:    4352748
  AVG DBUS CONGESTED CYCLE: 11.45
Channel 1 WQ ROW_BUFFER_HIT:     182378
  ROW_BUFFER_MISS:     675809
  FULL:          0
Channel 1 REFRESHES ISSUED:     138739
