
*** ChampSim Multicore Out-of-Order Simulator ***
Warmup Instructions: 0
Simulation Instructions: 9223372036854775807
Number of CPUs: 1
Page size: 2097152

Off-chip DRAM Size: 64 GiB Channels: 2 Width: 32-bit Data Rate: 4807 MT/s
[ERROR_PAGE_MANAGER] Error latency: 1990500 
[ERROR_PAGE_MANAGER] Random seed: 54321 (fixed for preload reproducibility)
[ERROR_PAGE_MANAGER] Cycle-based error modeling enabled
[ERROR_PAGE_MANAGER] Errors per interval: 1
[ERROR_PAGE_MANAGER] Error cycle interval: 10000000 cycles

=== ERROR PAGE STATISTICS ===
Mode: CYCLE
Error Cycle Interval: 10000000 CPU cycles
Total Error Accesses: 0
==============================
Warmup finished CPU 0 instructions: 0 cycles: 1 cumulative IPC: 0 (Simulation time: 00 hr 00 min 00 sec)
Warmup complete CPU 0 instructions: 0 cycles: 1 cumulative IPC: 0 (Simulation time: 00 hr 00 min 00 sec)
[ERROR_CYCLE] Error added at CPU cycle 7127805, next at 9153305, pending count: 1
[DRAM_CYCLE_ERROR] Cycle-based error applied! address=0x7436f8338 additional_latency=1990500 cycles
[ERROR_CYCLE] Error added at CPU cycle 9153306, next at 25696063, pending count: 1
[DRAM_CYCLE_ERROR] Cycle-based error applied! address=0x7436f9868 additional_latency=1990500 cycles
Heartbeat CPU 0 instructions: 10000001 cycles: 10801003 heartbeat IPC: 0.9258 cumulative IPC: 0.9258 (Simulation time: 00 hr 01 min 19 sec)
Heartbeat CPU 0 instructions: 20000002 cycles: 23201590 heartbeat IPC: 0.8064 cumulative IPC: 0.862 (Simulation time: 00 hr 02 min 49 sec)
[ERROR_CYCLE] Error added at CPU cycle 25696063, next at 53467688, pending count: 1
[DRAM_CYCLE_ERROR] Cycle-based error applied! address=0x7436f9c38 additional_latency=1990500 cycles
Heartbeat CPU 0 instructions: 30000002 cycles: 37978031 heartbeat IPC: 0.6768 cumulative IPC: 0.7899 (Simulation time: 00 hr 04 min 29 sec)
Heartbeat CPU 0 instructions: 40000005 cycles: 48152814 heartbeat IPC: 0.9828 cumulative IPC: 0.8307 (Simulation time: 00 hr 05 min 36 sec)
[ERROR_CYCLE] Error added at CPU cycle 53467689, next at 53768224, pending count: 1
[DRAM_CYCLE_ERROR] Cycle-based error applied! address=0xb44162da0 additional_latency=1990500 cycles
[ERROR_CYCLE] Error added at CPU cycle 53768224, next at 69138641, pending count: 1
[DRAM_CYCLE_ERROR] Cycle-based error applied! address=0xcb2a72228 additional_latency=1990500 cycles
[ERROR_CYCLE] Error added at CPU cycle 69138642, next at 70928443, pending count: 1
[DRAM_CYCLE_ERROR] Cycle-based error applied! address=0x7ccc50e20 additional_latency=1990500 cycles
[ERROR_CYCLE] Error added at CPU cycle 70928444, next at 76617422, pending count: 1
[DRAM_CYCLE_ERROR] Cycle-based error applied! address=0x6a32c9078 additional_latency=1990500 cycles
[ERROR_CYCLE] Error added at CPU cycle 76617422, next at 85156860, pending count: 1
[DRAM_CYCLE_ERROR] Cycle-based error applied! address=0x6a329f8f8 additional_latency=1990500 cycles
Heartbeat CPU 0 instructions: 50000005 cycles: 83469041 heartbeat IPC: 0.2832 cumulative IPC: 0.599 (Simulation time: 00 hr 08 min 48 sec)
[ERROR_CYCLE] Error added at CPU cycle 85156860, next at 87603375, pending count: 1
[DRAM_CYCLE_ERROR] Cycle-based error applied! address=0x838a5ba60 additional_latency=1990500 cycles
[ERROR_CYCLE] Error added at CPU cycle 87603376, next at 105362955, pending count: 1
[DRAM_CYCLE_ERROR] Cycle-based error applied! address=0x81dd722b8 additional_latency=1990500 cycles
Heartbeat CPU 0 instructions: 60000005 cycles: 98547051 heartbeat IPC: 0.6632 cumulative IPC: 0.6088 (Simulation time: 00 hr 10 min 20 sec)
[ERROR_CYCLE] Error added at CPU cycle 105362955, next at 108923137, pending count: 1
[DRAM_CYCLE_ERROR] Cycle-based error applied! address=0x4958a42c0 additional_latency=1990500 cycles
[ERROR_CYCLE] Error added at CPU cycle 108923137, next at 113398998, pending count: 1
[DRAM_CYCLE_ERROR] Cycle-based error applied! address=0xdf1f6f9e8 additional_latency=1990500 cycles
[ERROR_CYCLE] Error added at CPU cycle 113398999, next at 133751835, pending count: 1
[DRAM_CYCLE_ERROR] Cycle-based error applied! address=0x7436f86f8 additional_latency=1990500 cycles
Heartbeat CPU 0 instructions: 70000005 cycles: 114257014 heartbeat IPC: 0.6365 cumulative IPC: 0.6127 (Simulation time: 00 hr 12 min 01 sec)
Heartbeat CPU 0 instructions: 80000007 cycles: 124041902 heartbeat IPC: 1.022 cumulative IPC: 0.6449 (Simulation time: 00 hr 12 min 59 sec)
[ERROR_CYCLE] Error added at CPU cycle 133751835, next at 133874359, pending count: 1
[ERROR_CYCLE] Error added at CPU cycle 133874359, next at 145123863, pending count: 2
[DRAM_CYCLE_ERROR] Cycle-based error applied! address=0xa47003790 additional_latency=1990500 cycles
[DRAM_CYCLE_ERROR] Cycle-based error applied! address=0x8c1d1fd00 additional_latency=1990500 cycles
Heartbeat CPU 0 instructions: 90000007 cycles: 134442957 heartbeat IPC: 0.9614 cumulative IPC: 0.6694 (Simulation time: 00 hr 14 min 09 sec)
Heartbeat CPU 0 instructions: 100000007 cycles: 143709730 heartbeat IPC: 1.079 cumulative IPC: 0.6958 (Simulation time: 00 hr 15 min 03 sec)
[ERROR_CYCLE] Error added at CPU cycle 145123863, next at 151687113, pending count: 1
[DRAM_CYCLE_ERROR] Cycle-based error applied! address=0x883d36680 additional_latency=1990500 cycles
[ERROR_CYCLE] Error added at CPU cycle 151687113, next at 189526482, pending count: 1
[DRAM_CYCLE_ERROR] Cycle-based error applied! address=0x6a3314178 additional_latency=1990500 cycles
Heartbeat CPU 0 instructions: 110000007 cycles: 163420334 heartbeat IPC: 0.5073 cumulative IPC: 0.6731 (Simulation time: 00 hr 16 min 42 sec)
Heartbeat CPU 0 instructions: 120000009 cycles: 176819602 heartbeat IPC: 0.7463 cumulative IPC: 0.6787 (Simulation time: 00 hr 17 min 43 sec)
Heartbeat CPU 0 instructions: 130000011 cycles: 187379030 heartbeat IPC: 0.947 cumulative IPC: 0.6938 (Simulation time: 00 hr 18 min 36 sec)
[ERROR_CYCLE] Error added at CPU cycle 189526483, next at 191895927, pending count: 1
[DRAM_CYCLE_ERROR] Cycle-based error applied! address=0x7436f9c38 additional_latency=1990500 cycles
[ERROR_CYCLE] Error added at CPU cycle 191895927, next at 194297025, pending count: 1
[DRAM_CYCLE_ERROR] Cycle-based error applied! address=0x6a331dc40 additional_latency=1990500 cycles
[ERROR_CYCLE] Error added at CPU cycle 194297026, next at 223119032, pending count: 1
[DRAM_CYCLE_ERROR] Cycle-based error applied! address=0x1db8aeb30 additional_latency=1990500 cycles
Heartbeat CPU 0 instructions: 140000012 cycles: 204505628 heartbeat IPC: 0.5839 cumulative IPC: 0.6846 (Simulation time: 00 hr 20 min 01 sec)
[ERROR_CYCLE] Error added at CPU cycle 223119032, next at 227066706, pending count: 1
[DRAM_CYCLE_ERROR] Cycle-based error applied! address=0xb319c8970 additional_latency=1990500 cycles
[ERROR_CYCLE] Error added at CPU cycle 227066706, next at 269846489, pending count: 1
[DRAM_CYCLE_ERROR] Cycle-based error applied! address=0x49582e030 additional_latency=1990500 cycles
Heartbeat CPU 0 instructions: 150000014 cycles: 230283616 heartbeat IPC: 0.3879 cumulative IPC: 0.6514 (Simulation time: 00 hr 22 min 21 sec)
Heartbeat CPU 0 instructions: 160000017 cycles: 241266566 heartbeat IPC: 0.9105 cumulative IPC: 0.6632 (Simulation time: 00 hr 23 min 31 sec)
Heartbeat CPU 0 instructions: 170000020 cycles: 249341203 heartbeat IPC: 1.238 cumulative IPC: 0.6818 (Simulation time: 00 hr 24 min 34 sec)
[ERROR_CYCLE] Error added at CPU cycle 269846490, next at 275597170, pending count: 1
[DRAM_CYCLE_ERROR] Cycle-based error applied! address=0x6a33a3740 additional_latency=1990500 cycles
[ERROR_CYCLE] Error added at CPU cycle 275597171, next at 309231635, pending count: 1
[DRAM_CYCLE_ERROR] Cycle-based error applied! address=0xea6e84ea0 additional_latency=1990500 cycles
Heartbeat CPU 0 instructions: 180000022 cycles: 278267373 heartbeat IPC: 0.3457 cumulative IPC: 0.6469 (Simulation time: 00 hr 27 min 25 sec)
Heartbeat CPU 0 instructions: 190000022 cycles: 286763674 heartbeat IPC: 1.177 cumulative IPC: 0.6626 (Simulation time: 00 hr 28 min 16 sec)
Heartbeat CPU 0 instructions: 200000022 cycles: 298001981 heartbeat IPC: 0.8898 cumulative IPC: 0.6711 (Simulation time: 00 hr 29 min 25 sec)
[ERROR_CYCLE] Error added at CPU cycle 309231636, next at 312214761, pending count: 1
[DRAM_CYCLE_ERROR] Cycle-based error applied! address=0x7436f86f8 additional_latency=1990500 cycles
[ERROR_CYCLE] Error added at CPU cycle 312214762, next at 326484517, pending count: 1
[DRAM_CYCLE_ERROR] Cycle-based error applied! address=0xd2a5e3390 additional_latency=1990500 cycles
Heartbeat CPU 0 instructions: 210000023 cycles: 314550166 heartbeat IPC: 0.6043 cumulative IPC: 0.6676 (Simulation time: 00 hr 31 min 03 sec)
[ERROR_CYCLE] Error added at CPU cycle 326484517, next at 328619258, pending count: 1
[DRAM_CYCLE_ERROR] Cycle-based error applied! address=0xefbb986a8 additional_latency=1990500 cycles
[ERROR_CYCLE] Error added at CPU cycle 328619258, next at 331945338, pending count: 1
[DRAM_CYCLE_ERROR] Cycle-based error applied! address=0x5aaea9520 additional_latency=1990500 cycles
[ERROR_CYCLE] Error added at CPU cycle 331945339, next at 346622017, pending count: 1
[DRAM_CYCLE_ERROR] Cycle-based error applied! address=0x98a5c0de0 additional_latency=1990500 cycles
Heartbeat CPU 0 instructions: 220000024 cycles: 336538027 heartbeat IPC: 0.4548 cumulative IPC: 0.6537 (Simulation time: 00 hr 32 min 55 sec)
[ERROR_CYCLE] Error added at CPU cycle 346622017, next at 346704171, pending count: 1
[ERROR_CYCLE] Error added at CPU cycle 346704171, next at 351055557, pending count: 2
Heartbeat CPU 0 instructions: 230000024 cycles: 346939545 heartbeat IPC: 0.9614 cumulative IPC: 0.6629 (Simulation time: 00 hr 33 min 46 sec)
[DRAM_CYCLE_ERROR] Cycle-based error applied! address=0x7436fa000 additional_latency=1990500 cycles
[DRAM_CYCLE_ERROR] Cycle-based error applied! address=0x3385f7a8 additional_latency=1990500 cycles
[ERROR_CYCLE] Error added at CPU cycle 351055557, next at 353715518, pending count: 1
[DRAM_CYCLE_ERROR] Cycle-based error applied! address=0x1ac8ee210 additional_latency=1990500 cycles
[ERROR_CYCLE] Error added at CPU cycle 353715518, next at 358578569, pending count: 1
[DRAM_CYCLE_ERROR] Cycle-based error applied! address=0xd9048a190 additional_latency=1990500 cycles
Heartbeat CPU 0 instructions: 240000024 cycles: 358517076 heartbeat IPC: 0.8637 cumulative IPC: 0.6694 (Simulation time: 00 hr 34 min 52 sec)
[ERROR_CYCLE] Error added at CPU cycle 358578569, next at 359734081, pending count: 1
[DRAM_CYCLE_ERROR] Cycle-based error applied! address=0xe18f9ab38 additional_latency=1990500 cycles
[ERROR_CYCLE] Error added at CPU cycle 359734081, next at 364965560, pending count: 1
[DRAM_CYCLE_ERROR] Cycle-based error applied! address=0x7436f8ae0 additional_latency=1990500 cycles
[ERROR_CYCLE] Error added at CPU cycle 364965560, next at 370163876, pending count: 1
[DRAM_CYCLE_ERROR] Cycle-based error applied! address=0x7436f9fe0 additional_latency=1990500 cycles
Heartbeat CPU 0 instructions: 250000028 cycles: 367117347 heartbeat IPC: 1.163 cumulative IPC: 0.681 (Simulation time: 00 hr 35 min 43 sec)
[ERROR_CYCLE] Error added at CPU cycle 370163876, next at 384861686, pending count: 1
[DRAM_CYCLE_ERROR] Cycle-based error applied! address=0x434d28430 additional_latency=1990500 cycles
[ERROR_CYCLE] Error added at CPU cycle 384861686, next at 403305050, pending count: 1
[DRAM_CYCLE_ERROR] Cycle-based error applied! address=0x3eb526b90 additional_latency=1990500 cycles
[ERROR_CYCLE] Error added at CPU cycle 403305051, next at 408299099, pending count: 1
[DRAM_CYCLE_ERROR] Cycle-based error applied! address=0xca39dbdc8 additional_latency=1990500 cycles
Heartbeat CPU 0 instructions: 260000028 cycles: 406866349 heartbeat IPC: 0.2516 cumulative IPC: 0.639 (Simulation time: 00 hr 38 min 34 sec)
[ERROR_CYCLE] Error added at CPU cycle 408299099, next at 414578861, pending count: 1
[DRAM_CYCLE_ERROR] Cycle-based error applied! address=0xd2a4a49e8 additional_latency=1990500 cycles
[ERROR_CYCLE] Error added at CPU cycle 414578862, next at 415677269, pending count: 1
[DRAM_CYCLE_ERROR] Cycle-based error applied! address=0x74517c8c0 additional_latency=1990500 cycles
[ERROR_CYCLE] Error added at CPU cycle 415677270, next at 417793974, pending count: 1
[DRAM_CYCLE_ERROR] Cycle-based error applied! address=0xb33ce5e68 additional_latency=1990500 cycles
[ERROR_CYCLE] Error added at CPU cycle 417793975, next at 428962166, pending count: 1
[DRAM_CYCLE_ERROR] Cycle-based error applied! address=0x43457e9b8 additional_latency=1990500 cycles
[ERROR_CYCLE] Error added at CPU cycle 428962167, next at 435398726, pending count: 1
[DRAM_CYCLE_ERROR] Cycle-based error applied! address=0x7b884b7b8 additional_latency=1990500 cycles
[ERROR_CYCLE] Error added at CPU cycle 435398727, next at 451570558, pending count: 1
[DRAM_CYCLE_ERROR] Cycle-based error applied! address=0x338eb7c0 additional_latency=1990500 cycles
[ERROR_CYCLE] Error added at CPU cycle 451570559, next at 454416191, pending count: 1
[DRAM_CYCLE_ERROR] Cycle-based error applied! address=0xa4703dd98 additional_latency=1990500 cycles
[ERROR_CYCLE] Error added at CPU cycle 454416192, next at 467943289, pending count: 1
[DRAM_CYCLE_ERROR] Cycle-based error applied! address=0xca3947a58 additional_latency=1990500 cycles
Heartbeat CPU 0 instructions: 270000028 cycles: 456385290 heartbeat IPC: 0.2019 cumulative IPC: 0.5916 (Simulation time: 00 hr 41 min 54 sec)
[ERROR_CYCLE] Error added at CPU cycle 467943289, next at 479150351, pending count: 1
[DRAM_CYCLE_ERROR] Cycle-based error applied! address=0x7436f9e30 additional_latency=1990500 cycles
Heartbeat CPU 0 instructions: 280000028 cycles: 473327882 heartbeat IPC: 0.5902 cumulative IPC: 0.5916 (Simulation time: 00 hr 43 min 18 sec)
[ERROR_CYCLE] Error added at CPU cycle 479150352, next at 489818806, pending count: 1
[DRAM_CYCLE_ERROR] Cycle-based error applied! address=0xd14afec48 additional_latency=1990500 cycles
[ERROR_CYCLE] Error added at CPU cycle 489818807, next at 492199391, pending count: 1
[DRAM_CYCLE_ERROR] Cycle-based error applied! address=0x1498d7e60 additional_latency=1990500 cycles
Heartbeat CPU 0 instructions: 290000029 cycles: 490146687 heartbeat IPC: 0.5946 cumulative IPC: 0.5917 (Simulation time: 00 hr 45 min 06 sec)
[ERROR_CYCLE] Error added at CPU cycle 492199392, next at 501105066, pending count: 1
[DRAM_CYCLE_ERROR] Cycle-based error applied! address=0x7436f9e40 additional_latency=1990500 cycles
[ERROR_CYCLE] Error added at CPU cycle 501105067, next at 516413942, pending count: 1
[DRAM_CYCLE_ERROR] Cycle-based error applied! address=0x33933f80 additional_latency=1990500 cycles
Heartbeat CPU 0 instructions: 300000029 cycles: 508319297 heartbeat IPC: 0.5503 cumulative IPC: 0.5902 (Simulation time: 00 hr 47 min 03 sec)
[ERROR_CYCLE] Error added at CPU cycle 516413943, next at 523258148, pending count: 1
[DRAM_CYCLE_ERROR] Cycle-based error applied! address=0x2be88d7a0 additional_latency=1990500 cycles
Heartbeat CPU 0 instructions: 310000030 cycles: 519074348 heartbeat IPC: 0.9298 cumulative IPC: 0.5972 (Simulation time: 00 hr 48 min 22 sec)
[ERROR_CYCLE] Error added at CPU cycle 523258148, next at 524320531, pending count: 1
[DRAM_CYCLE_ERROR] Cycle-based error applied! address=0x3d89cc9e8 additional_latency=1990500 cycles
[ERROR_CYCLE] Error added at CPU cycle 524320531, next at 545421303, pending count: 1
[DRAM_CYCLE_ERROR] Cycle-based error applied! address=0x81dc22fd8 additional_latency=1990500 cycles
Heartbeat CPU 0 instructions: 320000030 cycles: 529730894 heartbeat IPC: 0.9384 cumulative IPC: 0.6041 (Simulation time: 00 hr 49 min 42 sec)
[ERROR_CYCLE] Error added at CPU cycle 545421304, next at 555011553, pending count: 1
[DRAM_CYCLE_ERROR] Cycle-based error applied! address=0x59a694988 additional_latency=1990500 cycles
Heartbeat CPU 0 instructions: 330000032 cycles: 552558690 heartbeat IPC: 0.4381 cumulative IPC: 0.5972 (Simulation time: 00 hr 52 min 09 sec)
[ERROR_CYCLE] Error added at CPU cycle 555011553, next at 566707107, pending count: 1
[DRAM_CYCLE_ERROR] Cycle-based error applied! address=0x6834bb98 additional_latency=1990500 cycles
Heartbeat CPU 0 instructions: 340000032 cycles: 563254823 heartbeat IPC: 0.9349 cumulative IPC: 0.6036 (Simulation time: 00 hr 53 min 29 sec)
[ERROR_CYCLE] Error added at CPU cycle 566707107, next at 602334490, pending count: 1
[DRAM_CYCLE_ERROR] Cycle-based error applied! address=0x40003c1f8 additional_latency=1990500 cycles
Heartbeat CPU 0 instructions: 350000032 cycles: 571377048 heartbeat IPC: 1.231 cumulative IPC: 0.6126 (Simulation time: 00 hr 54 min 35 sec)
Heartbeat CPU 0 instructions: 360000032 cycles: 591922363 heartbeat IPC: 0.4867 cumulative IPC: 0.6082 (Simulation time: 00 hr 56 min 40 sec)
[ERROR_CYCLE] Error added at CPU cycle 602334490, next at 607801697, pending count: 1
[DRAM_CYCLE_ERROR] Cycle-based error applied! address=0xb9c153b58 additional_latency=1990500 cycles
Heartbeat CPU 0 instructions: 370000034 cycles: 604248866 heartbeat IPC: 0.8113 cumulative IPC: 0.6123 (Simulation time: 00 hr 57 min 48 sec)
[ERROR_CYCLE] Error added at CPU cycle 607801697, next at 608543542, pending count: 1
[DRAM_CYCLE_ERROR] Cycle-based error applied! address=0x171bd8c98 additional_latency=1990500 cycles
[ERROR_CYCLE] Error added at CPU cycle 608543543, next at 610655090, pending count: 1
[DRAM_CYCLE_ERROR] Cycle-based error applied! address=0xc6e8b8c80 additional_latency=1990500 cycles
[ERROR_CYCLE] Error added at CPU cycle 610655091, next at 613219349, pending count: 1
[DRAM_CYCLE_ERROR] Cycle-based error applied! address=0x7436f9fe0 additional_latency=1990500 cycles
[ERROR_CYCLE] Error added at CPU cycle 613219350, next at 613730924, pending count: 1
[DRAM_CYCLE_ERROR] Cycle-based error applied! address=0x7436f9b88 additional_latency=1990500 cycles
Heartbeat CPU 0 instructions: 380000034 cycles: 613629972 heartbeat IPC: 1.066 cumulative IPC: 0.6193 (Simulation time: 00 hr 58 min 41 sec)
[ERROR_CYCLE] Error added at CPU cycle 613730925, next at 615686536, pending count: 1
[DRAM_CYCLE_ERROR] Cycle-based error applied! address=0xb66c5a128 additional_latency=1990500 cycles
[ERROR_CYCLE] Error added at CPU cycle 615686536, next at 623830395, pending count: 1
[DRAM_CYCLE_ERROR] Cycle-based error applied! address=0x434461ce8 additional_latency=1990500 cycles
[ERROR_CYCLE] Error added at CPU cycle 623830395, next at 655504590, pending count: 1
[DRAM_CYCLE_ERROR] Cycle-based error applied! address=0xe4384b680 additional_latency=1990500 cycles
Heartbeat CPU 0 instructions: 390000034 cycles: 638341739 heartbeat IPC: 0.4047 cumulative IPC: 0.611 (Simulation time: 01 hr 00 min 44 sec)
[ERROR_CYCLE] Error added at CPU cycle 655504590, next at 685296427, pending count: 1
[DRAM_CYCLE_ERROR] Cycle-based error applied! address=0x47e396098 additional_latency=1990500 cycles
Heartbeat CPU 0 instructions: 400000034 cycles: 662473398 heartbeat IPC: 0.4144 cumulative IPC: 0.6038 (Simulation time: 01 hr 03 min 19 sec)
Heartbeat CPU 0 instructions: 410000034 cycles: 672997084 heartbeat IPC: 0.9502 cumulative IPC: 0.6092 (Simulation time: 01 hr 04 min 38 sec)
Heartbeat CPU 0 instructions: 420000035 cycles: 681878092 heartbeat IPC: 1.126 cumulative IPC: 0.6159 (Simulation time: 01 hr 05 min 47 sec)
[ERROR_CYCLE] Error added at CPU cycle 685296428, next at 692067362, pending count: 1
[DRAM_CYCLE_ERROR] Cycle-based error applied! address=0xdaed5c868 additional_latency=1990500 cycles
[ERROR_CYCLE] Error added at CPU cycle 692067362, next at 693560863, pending count: 1
[DRAM_CYCLE_ERROR] Cycle-based error applied! address=0x7b88ddd80 additional_latency=1990500 cycles
[ERROR_CYCLE] Error added at CPU cycle 693560864, next at 696567615, pending count: 1
[DRAM_CYCLE_ERROR] Cycle-based error applied! address=0xce7fd5880 additional_latency=1990500 cycles
Heartbeat CPU 0 instructions: 430000038 cycles: 695445306 heartbeat IPC: 0.7371 cumulative IPC: 0.6183 (Simulation time: 01 hr 07 min 21 sec)
[ERROR_CYCLE] Error added at CPU cycle 696567615, next at 705122761, pending count: 1
[DRAM_CYCLE_ERROR] Cycle-based error applied! address=0x84a286488 additional_latency=1990500 cycles
[ERROR_CYCLE] Error added at CPU cycle 705122762, next at 747545945, pending count: 1
[DRAM_CYCLE_ERROR] Cycle-based error applied! address=0x7b89b4138 additional_latency=1990500 cycles
Heartbeat CPU 0 instructions: 440000041 cycles: 727339237 heartbeat IPC: 0.3135 cumulative IPC: 0.6049 (Simulation time: 01 hr 09 min 59 sec)
Heartbeat CPU 0 instructions: 450000044 cycles: 735783402 heartbeat IPC: 1.184 cumulative IPC: 0.6116 (Simulation time: 01 hr 11 min 02 sec)
[ERROR_CYCLE] Error added at CPU cycle 747545946, next at 748669179, pending count: 1
[DRAM_CYCLE_ERROR] Cycle-based error applied! address=0xbc1712840 additional_latency=1990500 cycles
[ERROR_CYCLE] Error added at CPU cycle 748669179, next at 755019492, pending count: 1
Heartbeat CPU 0 instructions: 460000044 cycles: 749214972 heartbeat IPC: 0.7445 cumulative IPC: 0.614 (Simulation time: 01 hr 12 min 37 sec)
[DRAM_CYCLE_ERROR] Cycle-based error applied! address=0x7436f9e30 additional_latency=1990500 cycles
[ERROR_CYCLE] Error added at CPU cycle 755019492, next at 755497083, pending count: 1
[DRAM_CYCLE_ERROR] Cycle-based error applied! address=0x4976f5788 additional_latency=1990500 cycles
[ERROR_CYCLE] Error added at CPU cycle 755497084, next at 758773095, pending count: 1
[DRAM_CYCLE_ERROR] Cycle-based error applied! address=0x7436f9fe0 additional_latency=1990500 cycles
Heartbeat CPU 0 instructions: 470000044 cycles: 758103279 heartbeat IPC: 1.125 cumulative IPC: 0.62 (Simulation time: 01 hr 13 min 45 sec)
[ERROR_CYCLE] Error added at CPU cycle 758773095, next at 767932446, pending count: 1
[DRAM_CYCLE_ERROR] Cycle-based error applied! address=0x623ff6ce0 additional_latency=1990500 cycles
[ERROR_CYCLE] Error added at CPU cycle 767932447, next at 768052303, pending count: 1
Heartbeat CPU 0 instructions: 480000045 cycles: 767962614 heartbeat IPC: 1.014 cumulative IPC: 0.625 (Simulation time: 01 hr 14 min 59 sec)
[ERROR_CYCLE] Error added at CPU cycle 768052303, next at 768100071, pending count: 2
[ERROR_CYCLE] Error added at CPU cycle 768100072, next at 768264987, pending count: 3
[ERROR_CYCLE] Error added at CPU cycle 768264987, next at 773476830, pending count: 4
[DRAM_CYCLE_ERROR] Cycle-based error applied! address=0x64b96aa00 additional_latency=1990500 cycles
[DRAM_CYCLE_ERROR] Cycle-based error applied! address=0x5dcdfc190 additional_latency=1990500 cycles
[DRAM_CYCLE_ERROR] Cycle-based error applied! address=0xbb210de60 additional_latency=1990500 cycles
[DRAM_CYCLE_ERROR] Cycle-based error applied! address=0x83a082bc8 additional_latency=1990500 cycles
[ERROR_CYCLE] Error added at CPU cycle 773476830, next at 775408797, pending count: 1
[DRAM_CYCLE_ERROR] Cycle-based error applied! address=0x680afc020 additional_latency=1990500 cycles
[ERROR_CYCLE] Error added at CPU cycle 775408797, next at 776477567, pending count: 1
[DRAM_CYCLE_ERROR] Cycle-based error applied! address=0xadd3a2de8 additional_latency=1990500 cycles
[ERROR_CYCLE] Error added at CPU cycle 776477568, next at 782055313, pending count: 1
[DRAM_CYCLE_ERROR] Cycle-based error applied! address=0xd58d542a8 additional_latency=1990500 cycles
[ERROR_CYCLE] Error added at CPU cycle 782055314, next at 793366198, pending count: 1
[DRAM_CYCLE_ERROR] Cycle-based error applied! address=0xd273ba248 additional_latency=1990500 cycles
[ERROR_CYCLE] Error added at CPU cycle 793366198, next at 800738627, pending count: 1
Heartbeat CPU 0 instructions: 490000046 cycles: 793396852 heartbeat IPC: 0.3932 cumulative IPC: 0.6176 (Simulation time: 01 hr 17 min 37 sec)
[DRAM_CYCLE_ERROR] Cycle-based error applied! address=0x6f7054ad8 additional_latency=1990500 cycles
[ERROR_CYCLE] Error added at CPU cycle 800738628, next at 804703481, pending count: 1
[DRAM_CYCLE_ERROR] Cycle-based error applied! address=0x7b899fe00 additional_latency=1990500 cycles
Heartbeat CPU 0 instructions: 500000046 cycles: 803423643 heartbeat IPC: 0.9973 cumulative IPC: 0.6223 (Simulation time: 01 hr 18 min 52 sec)
[ERROR_CYCLE] Error added at CPU cycle 804703481, next at 812634114, pending count: 1
[DRAM_CYCLE_ERROR] Cycle-based error applied! address=0x7436f9e40 additional_latency=1990500 cycles
[ERROR_CYCLE] Error added at CPU cycle 812634115, next at 825252033, pending count: 1
[DRAM_CYCLE_ERROR] Cycle-based error applied! address=0xdcec99150 additional_latency=1990500 cycles
Heartbeat CPU 0 instructions: 510000047 cycles: 814669925 heartbeat IPC: 0.8892 cumulative IPC: 0.626 (Simulation time: 01 hr 20 min 14 sec)
Heartbeat CPU 0 instructions: 520000048 cycles: 823218718 heartbeat IPC: 1.17 cumulative IPC: 0.6317 (Simulation time: 01 hr 21 min 20 sec)
[ERROR_CYCLE] Error added at CPU cycle 825252034, next at 830437472, pending count: 1
[DRAM_CYCLE_ERROR] Cycle-based error applied! address=0xf08deae70 additional_latency=1990500 cycles
[ERROR_CYCLE] Error added at CPU cycle 830437472, next at 838935145, pending count: 1
[DRAM_CYCLE_ERROR] Cycle-based error applied! address=0x7436f8cb0 additional_latency=1990500 cycles
Heartbeat CPU 0 instructions: 530000052 cycles: 833510031 heartbeat IPC: 0.9717 cumulative IPC: 0.6359 (Simulation time: 01 hr 22 min 36 sec)
[ERROR_CYCLE] Error added at CPU cycle 838935145, next at 861804158, pending count: 1
[DRAM_CYCLE_ERROR] Cycle-based error applied! address=0x61e2202f8 additional_latency=1990500 cycles
[ERROR_CYCLE] Error added at CPU cycle 861804158, next at 864139244, pending count: 1
[DRAM_CYCLE_ERROR] Cycle-based error applied! address=0x61e2eaa80 additional_latency=1990500 cycles
[ERROR_CYCLE] Error added at CPU cycle 864139244, next at 883044804, pending count: 1
[DRAM_CYCLE_ERROR] Cycle-based error applied! address=0x8c1da0190 additional_latency=1990500 cycles
Heartbeat CPU 0 instructions: 540000053 cycles: 865566437 heartbeat IPC: 0.312 cumulative IPC: 0.6239 (Simulation time: 01 hr 25 min 46 sec)
[ERROR_CYCLE] Error added at CPU cycle 883044804, next at 885467139, pending count: 1
[DRAM_CYCLE_ERROR] Cycle-based error applied! address=0x2366fa028 additional_latency=1990500 cycles
[ERROR_CYCLE] Error added at CPU cycle 885467140, next at 887176065, pending count: 1
[DRAM_CYCLE_ERROR] Cycle-based error applied! address=0x4a8d48cf8 additional_latency=1990500 cycles
[ERROR_CYCLE] Error added at CPU cycle 887176065, next at 891433294, pending count: 1
[DRAM_CYCLE_ERROR] Cycle-based error applied! address=0x61e3b8600 additional_latency=1990500 cycles
[ERROR_CYCLE] Error added at CPU cycle 891433294, next at 910142062, pending count: 1
[DRAM_CYCLE_ERROR] Cycle-based error applied! address=0xc373a00e0 additional_latency=1990500 cycles
Heartbeat CPU 0 instructions: 550000056 cycles: 908727101 heartbeat IPC: 0.2317 cumulative IPC: 0.6052 (Simulation time: 01 hr 29 min 48 sec)
[ERROR_CYCLE] Error added at CPU cycle 910142062, next at 912455925, pending count: 1
[DRAM_CYCLE_ERROR] Cycle-based error applied! address=0xf663694b0 additional_latency=1990500 cycles
[ERROR_CYCLE] Error added at CPU cycle 912455925, next at 920452495, pending count: 1
[DRAM_CYCLE_ERROR] Cycle-based error applied! address=0x4ceab88c0 additional_latency=1990500 cycles
[ERROR_CYCLE] Error added at CPU cycle 920452495, next at 925358975, pending count: 1
[DRAM_CYCLE_ERROR] Cycle-based error applied! address=0xbfd49dc8 additional_latency=1990500 cycles
[ERROR_CYCLE] Error added at CPU cycle 925358976, next at 928208581, pending count: 1
[DRAM_CYCLE_ERROR] Cycle-based error applied! address=0x67e8a9208 additional_latency=1990500 cycles
[ERROR_CYCLE] Error added at CPU cycle 928208581, next at 935551244, pending count: 1
[DRAM_CYCLE_ERROR] Cycle-based error applied! address=0x51fbbf10 additional_latency=1990500 cycles
[ERROR_CYCLE] Error added at CPU cycle 935551244, next at 940277711, pending count: 1
[DRAM_CYCLE_ERROR] Cycle-based error applied! address=0xe50e0dad8 additional_latency=1990500 cycles
[ERROR_CYCLE] Error added at CPU cycle 940277711, next at 941361915, pending count: 1
[DRAM_CYCLE_ERROR] Cycle-based error applied! address=0xad04c4940 additional_latency=1990500 cycles
[ERROR_CYCLE] Error added at CPU cycle 941361915, next at 944131710, pending count: 1
[DRAM_CYCLE_ERROR] Cycle-based error applied! address=0x90c3b810 additional_latency=1990500 cycles
[ERROR_CYCLE] Error added at CPU cycle 944131710, next at 965831250, pending count: 1
[DRAM_CYCLE_ERROR] Cycle-based error applied! address=0x69d4c63f8 additional_latency=1990500 cycles
Heartbeat CPU 0 instructions: 560000056 cycles: 951953650 heartbeat IPC: 0.2313 cumulative IPC: 0.5883 (Simulation time: 01 hr 33 min 17 sec)
[ERROR_CYCLE] Error added at CPU cycle 965831250, next at 978230112, pending count: 1
[DRAM_CYCLE_ERROR] Cycle-based error applied! address=0x38d6bdcc0 additional_latency=1990500 cycles
[ERROR_CYCLE] Error added at CPU cycle 978230113, next at 995345989, pending count: 1
[DRAM_CYCLE_ERROR] Cycle-based error applied! address=0x2115b55f0 additional_latency=1990500 cycles
[ERROR_CYCLE] Error added at CPU cycle 995345989, next at 1001484614, pending count: 1
[DRAM_CYCLE_ERROR] Cycle-based error applied! address=0x40c3572e0 additional_latency=1990500 cycles
Heartbeat CPU 0 instructions: 570000057 cycles: 995801559 heartbeat IPC: 0.2281 cumulative IPC: 0.5724 (Simulation time: 01 hr 37 min 04 sec)
[ERROR_CYCLE] Error added at CPU cycle 1001484615, next at 1010972056, pending count: 1
[DRAM_CYCLE_ERROR] Cycle-based error applied! address=0xa3e0c0398 additional_latency=1990500 cycles
[ERROR_CYCLE] Error added at CPU cycle 1010972057, next at 1013450836, pending count: 1
[DRAM_CYCLE_ERROR] Cycle-based error applied! address=0xda897bc40 additional_latency=1990500 cycles
[ERROR_CYCLE] Error added at CPU cycle 1013450836, next at 1027850374, pending count: 1
[DRAM_CYCLE_ERROR] Cycle-based error applied! address=0xda89780c0 additional_latency=1990500 cycles
[ERROR_CYCLE] Error added at CPU cycle 1027850375, next at 1040360188, pending count: 1
[DRAM_CYCLE_ERROR] Cycle-based error applied! address=0xb2173bfe0 additional_latency=1990500 cycles
Heartbeat CPU 0 instructions: 580000060 cycles: 1038819501 heartbeat IPC: 0.2325 cumulative IPC: 0.5583 (Simulation time: 01 hr 41 min 12 sec)
[ERROR_CYCLE] Error added at CPU cycle 1040360189, next at 1048241966, pending count: 1
[DRAM_CYCLE_ERROR] Cycle-based error applied! address=0xe25c1a3a0 additional_latency=1990500 cycles
[ERROR_CYCLE] Error added at CPU cycle 1048241966, next at 1057607729, pending count: 1
[DRAM_CYCLE_ERROR] Cycle-based error applied! address=0x65441dff8 additional_latency=1990500 cycles
[ERROR_CYCLE] Error added at CPU cycle 1057607729, next at 1078039556, pending count: 1
[DRAM_CYCLE_ERROR] Cycle-based error applied! address=0xdb16dc500 additional_latency=1990500 cycles
[ERROR_CYCLE] Error added at CPU cycle 1078039557, next at 1093227895, pending count: 1
[DRAM_CYCLE_ERROR] Cycle-based error applied! address=0xbb215ba48 additional_latency=1990500 cycles
Heartbeat CPU 0 instructions: 590000060 cycles: 1082528695 heartbeat IPC: 0.2288 cumulative IPC: 0.545 (Simulation time: 01 hr 45 min 26 sec)
[ERROR_CYCLE] Error added at CPU cycle 1093227895, next at 1095375545, pending count: 1
[DRAM_CYCLE_ERROR] Cycle-based error applied! address=0xd6065d4e0 additional_latency=1990500 cycles
[ERROR_CYCLE] Error added at CPU cycle 1095375545, next at 1101804530, pending count: 1
[DRAM_CYCLE_ERROR] Cycle-based error applied! address=0x623f88210 additional_latency=1990500 cycles
[ERROR_CYCLE] Error added at CPU cycle 1101804530, next at 1107079687, pending count: 1
[DRAM_CYCLE_ERROR] Cycle-based error applied! address=0x663fb8248 additional_latency=1990500 cycles
[ERROR_CYCLE] Error added at CPU cycle 1107079687, next at 1115318803, pending count: 1
[DRAM_CYCLE_ERROR] Cycle-based error applied! address=0x7e5fdc2d0 additional_latency=1990500 cycles
[ERROR_CYCLE] Error added at CPU cycle 1115318803, next at 1135008200, pending count: 1
[DRAM_CYCLE_ERROR] Cycle-based error applied! address=0xc921eb330 additional_latency=1990500 cycles
Heartbeat CPU 0 instructions: 600000063 cycles: 1125510880 heartbeat IPC: 0.2327 cumulative IPC: 0.5331 (Simulation time: 01 hr 48 min 56 sec)
[ERROR_CYCLE] Error added at CPU cycle 1135008201, next at 1140982700, pending count: 1
[DRAM_CYCLE_ERROR] Cycle-based error applied! address=0x1a8e5b490 additional_latency=1990500 cycles
[ERROR_CYCLE] Error added at CPU cycle 1140982700, next at 1154083331, pending count: 1
[DRAM_CYCLE_ERROR] Cycle-based error applied! address=0xcfbc48ff8 additional_latency=1990500 cycles
[ERROR_CYCLE] Error added at CPU cycle 1154083332, next at 1155066855, pending count: 1
[DRAM_CYCLE_ERROR] Cycle-based error applied! address=0x5e8b45798 additional_latency=1990500 cycles
[ERROR_CYCLE] Error added at CPU cycle 1155066856, next at 1164180982, pending count: 1
[DRAM_CYCLE_ERROR] Cycle-based error applied! address=0x72ad27818 additional_latency=1990500 cycles
[ERROR_CYCLE] Error added at CPU cycle 1164180982, next at 1170052729, pending count: 1
[DRAM_CYCLE_ERROR] Cycle-based error applied! address=0x1a6940078 additional_latency=1990500 cycles
Heartbeat CPU 0 instructions: 610000065 cycles: 1168712052 heartbeat IPC: 0.2315 cumulative IPC: 0.5219 (Simulation time: 01 hr 52 min 26 sec)
[ERROR_CYCLE] Error added at CPU cycle 1170052730, next at 1201159550, pending count: 1
[DRAM_CYCLE_ERROR] Cycle-based error applied! address=0x7239268b8 additional_latency=1990500 cycles
[ERROR_CYCLE] Error added at CPU cycle 1201159551, next at 1219803754, pending count: 1
[DRAM_CYCLE_ERROR] Cycle-based error applied! address=0x495813c48 additional_latency=1990500 cycles
Heartbeat CPU 0 instructions: 620000068 cycles: 1208266584 heartbeat IPC: 0.2528 cumulative IPC: 0.5131 (Simulation time: 01 hr 55 min 09 sec)
[ERROR_CYCLE] Error added at CPU cycle 1219803754, next at 1222032553, pending count: 1
[DRAM_CYCLE_ERROR] Cycle-based error applied! address=0x3e3fb7d40 additional_latency=1990500 cycles
[ERROR_CYCLE] Error added at CPU cycle 1222032554, next at 1224789878, pending count: 1
[DRAM_CYCLE_ERROR] Cycle-based error applied! address=0xed6b7abb8 additional_latency=1990500 cycles
[ERROR_CYCLE] Error added at CPU cycle 1224789879, next at 1231478862, pending count: 1
[DRAM_CYCLE_ERROR] Cycle-based error applied! address=0xa98ecac60 additional_latency=1990500 cycles
[ERROR_CYCLE] Error added at CPU cycle 1231478862, next at 1231912145, pending count: 1
[DRAM_CYCLE_ERROR] Cycle-based error applied! address=0xed6b263b8 additional_latency=1990500 cycles
[ERROR_CYCLE] Error added at CPU cycle 1231912145, next at 1236268432, pending count: 1
[DRAM_CYCLE_ERROR] Cycle-based error applied! address=0xafab18780 additional_latency=1990500 cycles
[ERROR_CYCLE] Error added at CPU cycle 1236268432, next at 1250618753, pending count: 1
[DRAM_CYCLE_ERROR] Cycle-based error applied! address=0xafab756c0 additional_latency=1990500 cycles
Heartbeat CPU 0 instructions: 630000069 cycles: 1247300390 heartbeat IPC: 0.2562 cumulative IPC: 0.5051 (Simulation time: 01 hr 59 min 00 sec)
[ERROR_CYCLE] Error added at CPU cycle 1250618753, next at 1293864347, pending count: 1
[DRAM_CYCLE_ERROR] Cycle-based error applied! address=0xc663e4550 additional_latency=1990500 cycles
Heartbeat CPU 0 instructions: 640000070 cycles: 1284680107 heartbeat IPC: 0.2675 cumulative IPC: 0.4982 (Simulation time: 02 hr 02 min 12 sec)
[ERROR_CYCLE] Error added at CPU cycle 1293864347, next at 1304881196, pending count: 1
[DRAM_CYCLE_ERROR] Cycle-based error applied! address=0xdb17b8738 additional_latency=1990500 cycles
[ERROR_CYCLE] Error added at CPU cycle 1304881197, next at 1314838771, pending count: 1
[DRAM_CYCLE_ERROR] Cycle-based error applied! address=0xca0a8f120 additional_latency=1990500 cycles
[ERROR_CYCLE] Error added at CPU cycle 1314838771, next at 1321326019, pending count: 1
[DRAM_CYCLE_ERROR] Cycle-based error applied! address=0x90ba6c960 additional_latency=1990500 cycles
[ERROR_CYCLE] Error added at CPU cycle 1321326020, next at 1334779567, pending count: 1
[DRAM_CYCLE_ERROR] Cycle-based error applied! address=0x61e2b7b40 additional_latency=1990500 cycles
Heartbeat CPU 0 instructions: 650000070 cycles: 1327499031 heartbeat IPC: 0.2335 cumulative IPC: 0.4896 (Simulation time: 02 hr 06 min 19 sec)
[ERROR_CYCLE] Error added at CPU cycle 1334779568, next at 1341662842, pending count: 1
[DRAM_CYCLE_ERROR] Cycle-based error applied! address=0x8ba95b890 additional_latency=1990500 cycles
[ERROR_CYCLE] Error added at CPU cycle 1341662842, next at 1341958013, pending count: 1
[DRAM_CYCLE_ERROR] Cycle-based error applied! address=0x663ef6730 additional_latency=1990500 cycles
[ERROR_CYCLE] Error added at CPU cycle 1341958014, next at 1347444921, pending count: 1
[DRAM_CYCLE_ERROR] Cycle-based error applied! address=0xfebafe9a0 additional_latency=1990500 cycles
[ERROR_CYCLE] Error added at CPU cycle 1347444921, next at 1348889686, pending count: 1
[DRAM_CYCLE_ERROR] Cycle-based error applied! address=0x43a8d9458 additional_latency=1990500 cycles
[ERROR_CYCLE] Error added at CPU cycle 1348889686, next at 1370368934, pending count: 1
[DRAM_CYCLE_ERROR] Cycle-based error applied! address=0x5d4fb7340 additional_latency=1990500 cycles
[ERROR_CYCLE] Error added at CPU cycle 1370368934, next at 1377657432, pending count: 1
[DRAM_CYCLE_ERROR] Cycle-based error applied! address=0x3f4032398 additional_latency=1990500 cycles
Heartbeat CPU 0 instructions: 660000074 cycles: 1374254445 heartbeat IPC: 0.2139 cumulative IPC: 0.4803 (Simulation time: 02 hr 10 min 46 sec)
[ERROR_CYCLE] Error added at CPU cycle 1377657432, next at 1418042020, pending count: 1
[DRAM_CYCLE_ERROR] Cycle-based error applied! address=0x680b2ed38 additional_latency=1990500 cycles
[ERROR_CYCLE] Error added at CPU cycle 1418042020, next at 1428774744, pending count: 1
[DRAM_CYCLE_ERROR] Cycle-based error applied! address=0x3b7b9db60 additional_latency=1990500 cycles
Heartbeat CPU 0 instructions: 670000075 cycles: 1421658711 heartbeat IPC: 0.211 cumulative IPC: 0.4713 (Simulation time: 02 hr 15 min 15 sec)
[ERROR_CYCLE] Error added at CPU cycle 1428774745, next at 1430659638, pending count: 1
[DRAM_CYCLE_ERROR] Cycle-based error applied! address=0x90bb6a808 additional_latency=1990500 cycles
[ERROR_CYCLE] Error added at CPU cycle 1430659639, next at 1434805602, pending count: 1
[DRAM_CYCLE_ERROR] Cycle-based error applied! address=0x1b2c55440 additional_latency=1990500 cycles
[ERROR_CYCLE] Error added at CPU cycle 1434805602, next at 1439910027, pending count: 1
[DRAM_CYCLE_ERROR] Cycle-based error applied! address=0xf1c281fe8 additional_latency=1990500 cycles
[ERROR_CYCLE] Error added at CPU cycle 1439910028, next at 1455265502, pending count: 1
[DRAM_CYCLE_ERROR] Cycle-based error applied! address=0xafaa6bf38 additional_latency=1990500 cycles
[ERROR_CYCLE] Error added at CPU cycle 1455265502, next at 1456081149, pending count: 1
[DRAM_CYCLE_ERROR] Cycle-based error applied! address=0xad0a0bba0 additional_latency=1990500 cycles
[ERROR_CYCLE] Error added at CPU cycle 1456081149, next at 1459633187, pending count: 1
[DRAM_CYCLE_ERROR] Cycle-based error applied! address=0xa38bcd6e0 additional_latency=1990500 cycles
[ERROR_CYCLE] Error added at CPU cycle 1459633187, next at 1470585164, pending count: 1
[DRAM_CYCLE_ERROR] Cycle-based error applied! address=0x69a6741c8 additional_latency=1990500 cycles
Heartbeat CPU 0 instructions: 680000077 cycles: 1467809655 heartbeat IPC: 0.2167 cumulative IPC: 0.4633 (Simulation time: 02 hr 19 min 41 sec)
[ERROR_CYCLE] Error added at CPU cycle 1470585164, next at 1472949657, pending count: 1
[DRAM_CYCLE_ERROR] Cycle-based error applied! address=0xe03c3c0c0 additional_latency=1990500 cycles
[ERROR_CYCLE] Error added at CPU cycle 1472949657, next at 1483173147, pending count: 1
[DRAM_CYCLE_ERROR] Cycle-based error applied! address=0x4ceb7e960 additional_latency=1990500 cycles
[ERROR_CYCLE] Error added at CPU cycle 1483173148, next at 1484511175, pending count: 1
[DRAM_CYCLE_ERROR] Cycle-based error applied! address=0xee56ab18 additional_latency=1990500 cycles
[ERROR_CYCLE] Error added at CPU cycle 1484511175, next at 1492326095, pending count: 1
[DRAM_CYCLE_ERROR] Cycle-based error applied! address=0xf805563c8 additional_latency=1990500 cycles
[ERROR_CYCLE] Error added at CPU cycle 1492326095, next at 1498403147, pending count: 1
[DRAM_CYCLE_ERROR] Cycle-based error applied! address=0x61e227340 additional_latency=1990500 cycles
[ERROR_CYCLE] Error added at CPU cycle 1498403147, next at 1500174205, pending count: 1
[DRAM_CYCLE_ERROR] Cycle-based error applied! address=0xca1800510 additional_latency=1990500 cycles
[ERROR_CYCLE] Error added at CPU cycle 1500174206, next at 1504681962, pending count: 1
[DRAM_CYCLE_ERROR] Cycle-based error applied! address=0x61e262040 additional_latency=1990500 cycles
Heartbeat CPU 0 instructions: 690000077 cycles: 1500194625 heartbeat IPC: 0.3088 cumulative IPC: 0.4599 (Simulation time: 02 hr 23 min 05 sec)
[ERROR_CYCLE] Error added at CPU cycle 1504681962, next at 1508176422, pending count: 1
[DRAM_CYCLE_ERROR] Cycle-based error applied! address=0x61e23c4c0 additional_latency=1990500 cycles
[ERROR_CYCLE] Error added at CPU cycle 1508176422, next at 1510980618, pending count: 1
[DRAM_CYCLE_ERROR] Cycle-based error applied! address=0xefc0981a8 additional_latency=1990500 cycles
[ERROR_CYCLE] Error added at CPU cycle 1510980618, next at 1540506590, pending count: 1
[DRAM_CYCLE_ERROR] Cycle-based error applied! address=0xe6c1a9740 additional_latency=1990500 cycles
Heartbeat CPU 0 instructions: 700000079 cycles: 1515341889 heartbeat IPC: 0.6602 cumulative IPC: 0.4619 (Simulation time: 02 hr 24 min 49 sec)
Heartbeat CPU 0 instructions: 710000082 cycles: 1524561003 heartbeat IPC: 1.085 cumulative IPC: 0.4657 (Simulation time: 02 hr 25 min 59 sec)
Heartbeat CPU 0 instructions: 720000084 cycles: 1537458115 heartbeat IPC: 0.7754 cumulative IPC: 0.4683 (Simulation time: 02 hr 27 min 31 sec)
[ERROR_CYCLE] Error added at CPU cycle 1540506591, next at 1545633908, pending count: 1
[DRAM_CYCLE_ERROR] Cycle-based error applied! address=0x61e29ed80 additional_latency=1990500 cycles
[ERROR_CYCLE] Error added at CPU cycle 1545633909, next at 1555382131, pending count: 1
[DRAM_CYCLE_ERROR] Cycle-based error applied! address=0x480c2cea8 additional_latency=1990500 cycles
Heartbeat CPU 0 instructions: 730000085 cycles: 1548916881 heartbeat IPC: 0.8727 cumulative IPC: 0.4713 (Simulation time: 02 hr 28 min 52 sec)
[ERROR_CYCLE] Error added at CPU cycle 1555382132, next at 1559379921, pending count: 1
[DRAM_CYCLE_ERROR] Cycle-based error applied! address=0xea6e390c0 additional_latency=1990500 cycles
Heartbeat CPU 0 instructions: 740000087 cycles: 1557348009 heartbeat IPC: 1.186 cumulative IPC: 0.4752 (Simulation time: 02 hr 29 min 54 sec)
[ERROR_CYCLE] Error added at CPU cycle 1559379922, next at 1568250473, pending count: 1
[DRAM_CYCLE_ERROR] Cycle-based error applied! address=0xfcf51bca0 additional_latency=1990500 cycles
[ERROR_CYCLE] Error added at CPU cycle 1568250473, next at 1568397086, pending count: 1
[DRAM_CYCLE_ERROR] Cycle-based error applied! address=0x8e2848ed8 additional_latency=1990500 cycles
[ERROR_CYCLE] Error added at CPU cycle 1568397086, next at 1571204618, pending count: 1
[DRAM_CYCLE_ERROR] Cycle-based error applied! address=0x6768a4ef0 additional_latency=1990500 cycles
[ERROR_CYCLE] Error added at CPU cycle 1571204618, next at 1572401785, pending count: 1
[DRAM_CYCLE_ERROR] Cycle-based error applied! address=0xfe87448e8 additional_latency=1990500 cycles
[ERROR_CYCLE] Error added at CPU cycle 1572401785, next at 1585569552, pending count: 1
[DRAM_CYCLE_ERROR] Cycle-based error applied! address=0xbc17293a0 additional_latency=1990500 cycles
Heartbeat CPU 0 instructions: 750000088 cycles: 1572910084 heartbeat IPC: 0.6426 cumulative IPC: 0.4768 (Simulation time: 02 hr 31 min 27 sec)
Heartbeat CPU 0 instructions: 760000089 cycles: 1581351977 heartbeat IPC: 1.185 cumulative IPC: 0.4806 (Simulation time: 02 hr 32 min 17 sec)
[ERROR_CYCLE] Error added at CPU cycle 1585569553, next at 1586429627, pending count: 1
[DRAM_CYCLE_ERROR] Cycle-based error applied! address=0x680a22de8 additional_latency=1990500 cycles
[ERROR_CYCLE] Error added at CPU cycle 1586429628, next at 1598198580, pending count: 1
[DRAM_CYCLE_ERROR] Cycle-based error applied! address=0x61e34b398 additional_latency=1990500 cycles
Heartbeat CPU 0 instructions: 770000091 cycles: 1590843397 heartbeat IPC: 1.054 cumulative IPC: 0.484 (Simulation time: 02 hr 33 min 13 sec)
[ERROR_CYCLE] Error added at CPU cycle 1598198580, next at 1609933064, pending count: 1
[DRAM_CYCLE_ERROR] Cycle-based error applied! address=0x2bd947818 additional_latency=1990500 cycles
Heartbeat CPU 0 instructions: 780000093 cycles: 1604079491 heartbeat IPC: 0.7555 cumulative IPC: 0.4863 (Simulation time: 02 hr 34 min 28 sec)
[ERROR_CYCLE] Error added at CPU cycle 1609933064, next at 1625877684, pending count: 1
[DRAM_CYCLE_ERROR] Cycle-based error applied! address=0xaea5605e8 additional_latency=1990500 cycles
Heartbeat CPU 0 instructions: 790000093 cycles: 1616802349 heartbeat IPC: 0.786 cumulative IPC: 0.4886 (Simulation time: 02 hr 35 min 52 sec)
[ERROR_CYCLE] Error added at CPU cycle 1625877685, next at 1636789861, pending count: 1
[DRAM_CYCLE_ERROR] Cycle-based error applied! address=0x61e3bd380 additional_latency=1990500 cycles
[ERROR_CYCLE] Error added at CPU cycle 1636789862, next at 1644796500, pending count: 1
[DRAM_CYCLE_ERROR] Cycle-based error applied! address=0xee7def040 additional_latency=1990500 cycles
Heartbeat CPU 0 instructions: 800000093 cycles: 1643302677 heartbeat IPC: 0.3774 cumulative IPC: 0.4868 (Simulation time: 02 hr 38 min 31 sec)
[ERROR_CYCLE] Error added at CPU cycle 1644796501, next at 1651860450, pending count: 1
[DRAM_CYCLE_ERROR] Cycle-based error applied! address=0x171bd43b0 additional_latency=1990500 cycles
[ERROR_CYCLE] Error added at CPU cycle 1651860451, next at 1653809977, pending count: 1
[DRAM_CYCLE_ERROR] Cycle-based error applied! address=0xafaa0e678 additional_latency=1990500 cycles
[ERROR_CYCLE] Error added at CPU cycle 1653809978, next at 1657379418, pending count: 1
[DRAM_CYCLE_ERROR] Cycle-based error applied! address=0x61e3c6080 additional_latency=1990500 cycles
[ERROR_CYCLE] Error added at CPU cycle 1657379418, next at 1658264083, pending count: 1
[DRAM_CYCLE_ERROR] Cycle-based error applied! address=0x2f9c49f48 additional_latency=1990500 cycles
[ERROR_CYCLE] Error added at CPU cycle 1658264083, next at 1665882359, pending count: 1
[DRAM_CYCLE_ERROR] Cycle-based error applied! address=0xa43972b40 additional_latency=1990500 cycles
Heartbeat CPU 0 instructions: 810000094 cycles: 1663506338 heartbeat IPC: 0.495 cumulative IPC: 0.4869 (Simulation time: 02 hr 40 min 36 sec)
[ERROR_CYCLE] Error added at CPU cycle 1665882360, next at 1676059798, pending count: 1
[DRAM_CYCLE_ERROR] Cycle-based error applied! address=0x7436f9c38 additional_latency=1990500 cycles
[ERROR_CYCLE] Error added at CPU cycle 1676059798, next at 1681837268, pending count: 1
[DRAM_CYCLE_ERROR] Cycle-based error applied! address=0x40f7c27a8 additional_latency=1990500 cycles
Heartbeat CPU 0 instructions: 820000094 cycles: 1677882761 heartbeat IPC: 0.6956 cumulative IPC: 0.4887 (Simulation time: 02 hr 42 min 10 sec)
[ERROR_CYCLE] Error added at CPU cycle 1681837269, next at 1682449489, pending count: 1
[DRAM_CYCLE_ERROR] Cycle-based error applied! address=0x1e6c7bfa0 additional_latency=1990500 cycles
[ERROR_CYCLE] Error added at CPU cycle 1682449490, next at 1684531699, pending count: 1
[DRAM_CYCLE_ERROR] Cycle-based error applied! address=0x85cf0f8e8 additional_latency=1990500 cycles
[ERROR_CYCLE] Error added at CPU cycle 1684531699, next at 1689632708, pending count: 1
[DRAM_CYCLE_ERROR] Cycle-based error applied! address=0xd1fbb18a0 additional_latency=1990500 cycles
Heartbeat CPU 0 instructions: 830000094 cycles: 1688543339 heartbeat IPC: 0.938 cumulative IPC: 0.4915 (Simulation time: 02 hr 43 min 27 sec)
[ERROR_CYCLE] Error added at CPU cycle 1689632708, next at 1698666429, pending count: 1
[DRAM_CYCLE_ERROR] Cycle-based error applied! address=0x7436f9e30 additional_latency=1990500 cycles
[ERROR_CYCLE] Error added at CPU cycle 1698666429, next at 1712907950, pending count: 1
[DRAM_CYCLE_ERROR] Cycle-based error applied! address=0xafab34b78 additional_latency=1990500 cycles
[ERROR_CYCLE] Error added at CPU cycle 1712907950, next at 1723767518, pending count: 1
[DRAM_CYCLE_ERROR] Cycle-based error applied! address=0x7a57d3a30 additional_latency=1990500 cycles
Heartbeat CPU 0 instructions: 840000096 cycles: 1713254677 heartbeat IPC: 0.4047 cumulative IPC: 0.4903 (Simulation time: 02 hr 45 min 32 sec)
[ERROR_CYCLE] Error added at CPU cycle 1723767518, next at 1724455640, pending count: 1
[DRAM_CYCLE_ERROR] Cycle-based error applied! address=0xa98e45728 additional_latency=1990500 cycles
[ERROR_CYCLE] Error added at CPU cycle 1724455640, next at 1732720291, pending count: 1
[DRAM_CYCLE_ERROR] Cycle-based error applied! address=0xd27279848 additional_latency=1990500 cycles
[ERROR_CYCLE] Error added at CPU cycle 1732720291, next at 1732872069, pending count: 1
[DRAM_CYCLE_ERROR] Cycle-based error applied! address=0x7436f9578 additional_latency=1990500 cycles
[ERROR_CYCLE] Error added at CPU cycle 1732872069, next at 1761065331, pending count: 1
[DRAM_CYCLE_ERROR] Cycle-based error applied! address=0x7436f9220 additional_latency=1990500 cycles
Heartbeat CPU 0 instructions: 850000097 cycles: 1732964923 heartbeat IPC: 0.5074 cumulative IPC: 0.4905 (Simulation time: 02 hr 47 min 39 sec)
Heartbeat CPU 0 instructions: 860000100 cycles: 1744024842 heartbeat IPC: 0.9042 cumulative IPC: 0.4931 (Simulation time: 02 hr 48 min 59 sec)
Heartbeat CPU 0 instructions: 870000103 cycles: 1752099383 heartbeat IPC: 1.238 cumulative IPC: 0.4965 (Simulation time: 02 hr 50 min 02 sec)
[ERROR_CYCLE] Error added at CPU cycle 1761065331, next at 1793147943, pending count: 1
[DRAM_CYCLE_ERROR] Cycle-based error applied! address=0x92e95e0a0 additional_latency=1990500 cycles
Heartbeat CPU 0 instructions: 880000103 cycles: 1765513381 heartbeat IPC: 0.7455 cumulative IPC: 0.4984 (Simulation time: 02 hr 51 min 36 sec)
Heartbeat CPU 0 instructions: 890000103 cycles: 1775701941 heartbeat IPC: 0.9815 cumulative IPC: 0.5012 (Simulation time: 02 hr 52 min 50 sec)
[ERROR_CYCLE] Error added at CPU cycle 1793147943, next at 1793813373, pending count: 1
[DRAM_CYCLE_ERROR] Cycle-based error applied! address=0x1e96ff158 additional_latency=1990500 cycles
[ERROR_CYCLE] Error added at CPU cycle 1793813374, next at 1797803186, pending count: 1
[DRAM_CYCLE_ERROR] Cycle-based error applied! address=0x7436f9278 additional_latency=1990500 cycles
Heartbeat CPU 0 instructions: 900000107 cycles: 1794209358 heartbeat IPC: 0.5403 cumulative IPC: 0.5016 (Simulation time: 02 hr 54 min 50 sec)
[ERROR_CYCLE] Error added at CPU cycle 1797803186, next at 1799966554, pending count: 1
[DRAM_CYCLE_ERROR] Cycle-based error applied! address=0x7436f9e30 additional_latency=1990500 cycles
[ERROR_CYCLE] Error added at CPU cycle 1799966554, next at 1816349209, pending count: 1
[DRAM_CYCLE_ERROR] Cycle-based error applied! address=0xb90512568 additional_latency=1990500 cycles
Heartbeat CPU 0 instructions: 910000107 cycles: 1803155763 heartbeat IPC: 1.118 cumulative IPC: 0.5047 (Simulation time: 02 hr 55 min 57 sec)
Heartbeat CPU 0 instructions: 920000108 cycles: 1815452007 heartbeat IPC: 0.8133 cumulative IPC: 0.5068 (Simulation time: 02 hr 57 min 24 sec)
[ERROR_CYCLE] Error added at CPU cycle 1816349210, next at 1825528779, pending count: 1
[DRAM_CYCLE_ERROR] Cycle-based error applied! address=0x7436f9e68 additional_latency=1990500 cycles
Heartbeat CPU 0 instructions: 930000109 cycles: 1824748421 heartbeat IPC: 1.076 cumulative IPC: 0.5097 (Simulation time: 02 hr 58 min 34 sec)
[ERROR_CYCLE] Error added at CPU cycle 1825528779, next at 1834768449, pending count: 1
[DRAM_CYCLE_ERROR] Cycle-based error applied! address=0xafab5fe40 additional_latency=1990500 cycles
[ERROR_CYCLE] Error added at CPU cycle 1834768449, next at 1844525260, pending count: 1
[DRAM_CYCLE_ERROR] Cycle-based error applied! address=0xa00b7fea0 additional_latency=1990500 cycles
[ERROR_CYCLE] Error added at CPU cycle 1844525260, next at 1850641546, pending count: 1
[DRAM_CYCLE_ERROR] Cycle-based error applied! address=0xafabc5cc0 additional_latency=1990500 cycles
[ERROR_CYCLE] Error added at CPU cycle 1850641546, next at 1889060908, pending count: 1
[DRAM_CYCLE_ERROR] Cycle-based error applied! address=0xdb1612578 additional_latency=1990500 cycles
Heartbeat CPU 0 instructions: 940000110 cycles: 1862910440 heartbeat IPC: 0.262 cumulative IPC: 0.5046 (Simulation time: 03 hr 02 min 18 sec)
[ERROR_CYCLE] Error added at CPU cycle 1889060908, next at 1893058439, pending count: 1
[DRAM_CYCLE_ERROR] Cycle-based error applied! address=0xc372a7858 additional_latency=1990500 cycles
[ERROR_CYCLE] Error added at CPU cycle 1893058439, next at 1893848597, pending count: 1
[DRAM_CYCLE_ERROR] Cycle-based error applied! address=0x26a05eec0 additional_latency=1990500 cycles
[ERROR_CYCLE] Error added at CPU cycle 1893848597, next at 1896618500, pending count: 1
[DRAM_CYCLE_ERROR] Cycle-based error applied! address=0xda880bd00 additional_latency=1990500 cycles
[ERROR_CYCLE] Error added at CPU cycle 1896618500, next at 1899563940, pending count: 1
[DRAM_CYCLE_ERROR] Cycle-based error applied! address=0xda884a300 additional_latency=1990500 cycles
[ERROR_CYCLE] Error added at CPU cycle 1899563940, next at 1916523007, pending count: 1
[DRAM_CYCLE_ERROR] Cycle-based error applied! address=0x72ace9c58 additional_latency=1990500 cycles
Heartbeat CPU 0 instructions: 950000112 cycles: 1903983604 heartbeat IPC: 0.2435 cumulative IPC: 0.499 (Simulation time: 03 hr 06 min 20 sec)
[ERROR_CYCLE] Error added at CPU cycle 1916523007, next at 1919993062, pending count: 1
[DRAM_CYCLE_ERROR] Cycle-based error applied! address=0xb633496d8 additional_latency=1990500 cycles
[ERROR_CYCLE] Error added at CPU cycle 1919993063, next at 1953397181, pending count: 1
[DRAM_CYCLE_ERROR] Cycle-based error applied! address=0x1999b1408 additional_latency=1990500 cycles
Heartbeat CPU 0 instructions: 960000113 cycles: 1922147544 heartbeat IPC: 0.5505 cumulative IPC: 0.4994 (Simulation time: 03 hr 08 min 21 sec)
Heartbeat CPU 0 instructions: 970000113 cycles: 1931935319 heartbeat IPC: 1.022 cumulative IPC: 0.5021 (Simulation time: 03 hr 09 min 35 sec)
Heartbeat CPU 0 instructions: 980000113 cycles: 1940977697 heartbeat IPC: 1.106 cumulative IPC: 0.5049 (Simulation time: 03 hr 10 min 44 sec)
[ERROR_CYCLE] Error added at CPU cycle 1953397182, next at 1957960083, pending count: 1
[DRAM_CYCLE_ERROR] Cycle-based error applied! address=0x8def38b60 additional_latency=1990500 cycles
Heartbeat CPU 0 instructions: 990000115 cycles: 1956923784 heartbeat IPC: 0.6271 cumulative IPC: 0.5059 (Simulation time: 03 hr 12 min 33 sec)
[ERROR_CYCLE] Error added at CPU cycle 1957960083, next at 1964413148, pending count: 1
[DRAM_CYCLE_ERROR] Cycle-based error applied! address=0x7436f9c60 additional_latency=1990500 cycles
[ERROR_CYCLE] Error added at CPU cycle 1964413148, next at 1975694798, pending count: 1
[DRAM_CYCLE_ERROR] Cycle-based error applied! address=0x7436f9bc0 additional_latency=1990500 cycles
Heartbeat CPU 0 instructions: 1000000115 cycles: 1967601530 heartbeat IPC: 0.9365 cumulative IPC: 0.5082 (Simulation time: 03 hr 13 min 51 sec)
[ERROR_CYCLE] Error added at CPU cycle 1975694799, next at 1978590678, pending count: 1
[DRAM_CYCLE_ERROR] Cycle-based error applied! address=0x3b7a734f0 additional_latency=1990500 cycles
Heartbeat CPU 0 instructions: 1010000115 cycles: 1978455205 heartbeat IPC: 0.9213 cumulative IPC: 0.5105 (Simulation time: 03 hr 15 min 09 sec)
[ERROR_CYCLE] Error added at CPU cycle 1978590678, next at 1999903695, pending count: 1
[DRAM_CYCLE_ERROR] Cycle-based error applied! address=0x180ec0f70 additional_latency=1990500 cycles
Heartbeat CPU 0 instructions: 1020000118 cycles: 1989927343 heartbeat IPC: 0.8717 cumulative IPC: 0.5126 (Simulation time: 03 hr 16 min 34 sec)
[ERROR_CYCLE] Error added at CPU cycle 1999903696, next at 2039968677, pending count: 1
[DRAM_CYCLE_ERROR] Cycle-based error applied! address=0xddcb0cf30 additional_latency=1990500 cycles
Heartbeat CPU 0 instructions: 1030000119 cycles: 2000717002 heartbeat IPC: 0.9268 cumulative IPC: 0.5148 (Simulation time: 03 hr 17 min 53 sec)
Heartbeat CPU 0 instructions: 1040000121 cycles: 2014486843 heartbeat IPC: 0.7262 cumulative IPC: 0.5163 (Simulation time: 03 hr 19 min 26 sec)
[ERROR_CYCLE] Error added at CPU cycle 2039968677, next at 2041475847, pending count: 1
[DRAM_CYCLE_ERROR] Cycle-based error applied! address=0x836828650 additional_latency=1990500 cycles
[ERROR_CYCLE] Error added at CPU cycle 2041475847, next at 2047560792, pending count: 1
[DRAM_CYCLE_ERROR] Cycle-based error applied! address=0xda89cdfc0 additional_latency=1990500 cycles
[ERROR_CYCLE] Error added at CPU cycle 2047560792, next at 2057318185, pending count: 1
[DRAM_CYCLE_ERROR] Cycle-based error applied! address=0x6736b4a70 additional_latency=1990500 cycles
[ERROR_CYCLE] Error added at CPU cycle 2057318185, next at 2060443789, pending count: 1
[DRAM_CYCLE_ERROR] Cycle-based error applied! address=0xcb2a5a828 additional_latency=1990500 cycles
[ERROR_CYCLE] Error added at CPU cycle 2060443790, next at 2081336312, pending count: 1
[DRAM_CYCLE_ERROR] Cycle-based error applied! address=0x1e6dcbdc0 additional_latency=1990500 cycles
Heartbeat CPU 0 instructions: 1050000121 cycles: 2063624137 heartbeat IPC: 0.2035 cumulative IPC: 0.5088 (Simulation time: 03 hr 24 min 06 sec)
[ERROR_CYCLE] Error added at CPU cycle 2081336313, next at 2086511136, pending count: 1
[DRAM_CYCLE_ERROR] Cycle-based error applied! address=0x96d2aca38 additional_latency=1990500 cycles
[ERROR_CYCLE] Error added at CPU cycle 2086511137, next at 2122093809, pending count: 1
[DRAM_CYCLE_ERROR] Cycle-based error applied! address=0xda88f5038 additional_latency=1990500 cycles
Heartbeat CPU 0 instructions: 1060000125 cycles: 2097298006 heartbeat IPC: 0.297 cumulative IPC: 0.5054 (Simulation time: 03 hr 27 min 27 sec)
Heartbeat CPU 0 instructions: 1070000129 cycles: 2105927591 heartbeat IPC: 1.159 cumulative IPC: 0.5081 (Simulation time: 03 hr 28 min 31 sec)
Heartbeat CPU 0 instructions: 1080000129 cycles: 2115476892 heartbeat IPC: 1.047 cumulative IPC: 0.5105 (Simulation time: 03 hr 29 min 20 sec)
[ERROR_CYCLE] Error added at CPU cycle 2122093810, next at 2127094108, pending count: 1
[DRAM_CYCLE_ERROR] Cycle-based error applied! address=0x16563b520 additional_latency=1990500 cycles
[ERROR_CYCLE] Error added at CPU cycle 2127094108, next at 2135895343, pending count: 1
[DRAM_CYCLE_ERROR] Cycle-based error applied! address=0xdb1603a78 additional_latency=1990500 cycles
[ERROR_CYCLE] Error added at CPU cycle 2135895344, next at 2136799738, pending count: 1
[DRAM_CYCLE_ERROR] Cycle-based error applied! address=0xda89d6978 additional_latency=1990500 cycles
[ERROR_CYCLE] Error added at CPU cycle 2136799738, next at 2139453762, pending count: 1
[DRAM_CYCLE_ERROR] Cycle-based error applied! address=0xc4bde8818 additional_latency=1990500 cycles
[ERROR_CYCLE] Error added at CPU cycle 2139453763, next at 2143754350, pending count: 1
[DRAM_CYCLE_ERROR] Cycle-based error applied! address=0x22f2849a0 additional_latency=1990500 cycles
[ERROR_CYCLE] Error added at CPU cycle 2143754351, next at 2143833455, pending count: 1
[DRAM_CYCLE_ERROR] Cycle-based error applied! address=0xda8946140 additional_latency=1990500 cycles
[ERROR_CYCLE] Error added at CPU cycle 2143833456, next at 2170169196, pending count: 1
[DRAM_CYCLE_ERROR] Cycle-based error applied! address=0x9e5cb4c00 additional_latency=1990500 cycles
Heartbeat CPU 0 instructions: 1090000131 cycles: 2150209946 heartbeat IPC: 0.2879 cumulative IPC: 0.5069 (Simulation time: 03 hr 32 min 21 sec)
Heartbeat CPU 0 instructions: 1100000134 cycles: 2165179198 heartbeat IPC: 0.668 cumulative IPC: 0.508 (Simulation time: 03 hr 33 min 45 sec)
[ERROR_CYCLE] Error added at CPU cycle 2170169196, next at 2170565878, pending count: 1
[DRAM_CYCLE_ERROR] Cycle-based error applied! address=0x7436f98a0 additional_latency=1990500 cycles
[ERROR_CYCLE] Error added at CPU cycle 2170565879, next at 2195034269, pending count: 1
[DRAM_CYCLE_ERROR] Cycle-based error applied! address=0x13937ef80 additional_latency=1990500 cycles
Heartbeat CPU 0 instructions: 1110000135 cycles: 2175734431 heartbeat IPC: 0.9474 cumulative IPC: 0.5102 (Simulation time: 03 hr 34 min 43 sec)
Heartbeat CPU 0 instructions: 1120000135 cycles: 2185185392 heartbeat IPC: 1.058 cumulative IPC: 0.5125 (Simulation time: 03 hr 35 min 39 sec)
Heartbeat CPU 0 instructions: 1130000136 cycles: 2193391355 heartbeat IPC: 1.219 cumulative IPC: 0.5152 (Simulation time: 03 hr 36 min 38 sec)
[ERROR_CYCLE] Error added at CPU cycle 2195034270, next at 2204436534, pending count: 1
[DRAM_CYCLE_ERROR] Cycle-based error applied! address=0x7436f9e48 additional_latency=1990500 cycles
[ERROR_CYCLE] Error added at CPU cycle 2204436534, next at 2217211204, pending count: 1
[DRAM_CYCLE_ERROR] Cycle-based error applied! address=0x81dc4d088 additional_latency=1990500 cycles
Heartbeat CPU 0 instructions: 1140000137 cycles: 2216825443 heartbeat IPC: 0.4267 cumulative IPC: 0.5142 (Simulation time: 03 hr 38 min 54 sec)
[ERROR_CYCLE] Error added at CPU cycle 2217211205, next at 2223054796, pending count: 1
[DRAM_CYCLE_ERROR] Cycle-based error applied! address=0xda89bc1c8 additional_latency=1990500 cycles
[ERROR_CYCLE] Error added at CPU cycle 2223054797, next at 2228544198, pending count: 1
[DRAM_CYCLE_ERROR] Cycle-based error applied! address=0x67ccd85e0 additional_latency=1990500 cycles
Heartbeat CPU 0 instructions: 1150000137 cycles: 2227083449 heartbeat IPC: 0.9748 cumulative IPC: 0.5164 (Simulation time: 03 hr 40 min 02 sec)
[ERROR_CYCLE] Error added at CPU cycle 2228544198, next at 2232019815, pending count: 1
[DRAM_CYCLE_ERROR] Cycle-based error applied! address=0x7436f9c98 additional_latency=1990500 cycles
[ERROR_CYCLE] Error added at CPU cycle 2232019815, next at 2235515925, pending count: 1
[DRAM_CYCLE_ERROR] Cycle-based error applied! address=0xb216c6068 additional_latency=1990500 cycles
[ERROR_CYCLE] Error added at CPU cycle 2235515925, next at 2237647010, pending count: 1
[DRAM_CYCLE_ERROR] Cycle-based error applied! address=0xad7a2aa38 additional_latency=1990500 cycles
[ERROR_CYCLE] Error added at CPU cycle 2237647010, next at 2248080448, pending count: 1
[DRAM_CYCLE_ERROR] Cycle-based error applied! address=0xadb3e1060 additional_latency=1990500 cycles
Heartbeat CPU 0 instructions: 1160000139 cycles: 2243703930 heartbeat IPC: 0.6017 cumulative IPC: 0.517 (Simulation time: 03 hr 41 min 35 sec)
[ERROR_CYCLE] Error added at CPU cycle 2248080448, next at 2268555961, pending count: 1
[DRAM_CYCLE_ERROR] Cycle-based error applied! address=0xad04c4700 additional_latency=1990500 cycles
Heartbeat CPU 0 instructions: 1170000141 cycles: 2252130493 heartbeat IPC: 1.187 cumulative IPC: 0.5195 (Simulation time: 03 hr 42 min 29 sec)
Heartbeat CPU 0 instructions: 1180000142 cycles: 2261857643 heartbeat IPC: 1.028 cumulative IPC: 0.5217 (Simulation time: 03 hr 43 min 29 sec)
[ERROR_CYCLE] Error added at CPU cycle 2268555961, next at 2288482074, pending count: 1
[DRAM_CYCLE_ERROR] Cycle-based error applied! address=0xd10ba0f00 additional_latency=1990500 cycles
[ERROR_CYCLE] Error added at CPU cycle 2288482074, next at 2294298920, pending count: 1
[DRAM_CYCLE_ERROR] Cycle-based error applied! address=0xdb16bec78 additional_latency=1990500 cycles
Heartbeat CPU 0 instructions: 1190000146 cycles: 2291006710 heartbeat IPC: 0.3431 cumulative IPC: 0.5194 (Simulation time: 03 hr 45 min 40 sec)
[ERROR_CYCLE] Error added at CPU cycle 2294298920, next at 2295073929, pending count: 1
[DRAM_CYCLE_ERROR] Cycle-based error applied! address=0x7436f86f8 additional_latency=1990500 cycles
[ERROR_CYCLE] Error added at CPU cycle 2295073930, next at 2296867031, pending count: 1
[DRAM_CYCLE_ERROR] Cycle-based error applied! address=0xdb1667050 additional_latency=1990500 cycles
[ERROR_CYCLE] Error added at CPU cycle 2296867031, next at 2305759519, pending count: 1
[DRAM_CYCLE_ERROR] Cycle-based error applied! address=0xdb166cbe0 additional_latency=1990500 cycles
Heartbeat CPU 0 instructions: 1200000147 cycles: 2300729716 heartbeat IPC: 1.028 cumulative IPC: 0.5216 (Simulation time: 03 hr 46 min 53 sec)
[ERROR_CYCLE] Error added at CPU cycle 2305759519, next at 2317589146, pending count: 1
[DRAM_CYCLE_ERROR] Cycle-based error applied! address=0x3a3e70a08 additional_latency=1990500 cycles
Heartbeat CPU 0 instructions: 1210000151 cycles: 2315811214 heartbeat IPC: 0.6631 cumulative IPC: 0.5225 (Simulation time: 03 hr 48 min 39 sec)
[ERROR_CYCLE] Error added at CPU cycle 2317589146, next at 2319340389, pending count: 1
[DRAM_CYCLE_ERROR] Cycle-based error applied! address=0xdb16a5178 additional_latency=1990500 cycles
[ERROR_CYCLE] Error added at CPU cycle 2319340390, next at 2321630499, pending count: 1
[DRAM_CYCLE_ERROR] Cycle-based error applied! address=0x7436f9df8 additional_latency=1990500 cycles
[ERROR_CYCLE] Error added at CPU cycle 2321630499, next at 2328230742, pending count: 1
[DRAM_CYCLE_ERROR] Cycle-based error applied! address=0x473f4b400 additional_latency=1990500 cycles
[ERROR_CYCLE] Error added at CPU cycle 2328230742, next at 2330492435, pending count: 1
[DRAM_CYCLE_ERROR] Cycle-based error applied! address=0xe0dcdc2c8 additional_latency=1990500 cycles
Heartbeat CPU 0 instructions: 1220000151 cycles: 2329761798 heartbeat IPC: 0.7168 cumulative IPC: 0.5237 (Simulation time: 03 hr 50 min 19 sec)
[ERROR_CYCLE] Error added at CPU cycle 2330492436, next at 2331166908, pending count: 1
[DRAM_CYCLE_ERROR] Cycle-based error applied! address=0xa9c02e470 additional_latency=1990500 cycles
[ERROR_CYCLE] Error added at CPU cycle 2331166908, next at 2332314393, pending count: 1
[DRAM_CYCLE_ERROR] Cycle-based error applied! address=0x7436f83a0 additional_latency=1990500 cycles
[ERROR_CYCLE] Error added at CPU cycle 2332314393, next at 2334063851, pending count: 1
[DRAM_CYCLE_ERROR] Cycle-based error applied! address=0x165656ef8 additional_latency=1990500 cycles
[ERROR_CYCLE] Error added at CPU cycle 2334063851, next at 2375625705, pending count: 1
[DRAM_CYCLE_ERROR] Cycle-based error applied! address=0x5447972c8 additional_latency=1990500 cycles
Heartbeat CPU 0 instructions: 1230000154 cycles: 2337731039 heartbeat IPC: 1.255 cumulative IPC: 0.5262 (Simulation time: 03 hr 51 min 23 sec)
Heartbeat CPU 0 instructions: 1240000154 cycles: 2347404988 heartbeat IPC: 1.034 cumulative IPC: 0.5282 (Simulation time: 03 hr 52 min 38 sec)
Heartbeat CPU 0 instructions: 1250000157 cycles: 2368258727 heartbeat IPC: 0.4795 cumulative IPC: 0.5278 (Simulation time: 03 hr 54 min 52 sec)
[ERROR_CYCLE] Error added at CPU cycle 2375625705, next at 2388203853, pending count: 1
[DRAM_CYCLE_ERROR] Cycle-based error applied! address=0x26a055140 additional_latency=1990500 cycles
Heartbeat CPU 0 instructions: 1260000157 cycles: 2377369045 heartbeat IPC: 1.098 cumulative IPC: 0.53 (Simulation time: 03 hr 55 min 56 sec)
[ERROR_CYCLE] Error added at CPU cycle 2388203853, next at 2394260406, pending count: 1
[DRAM_CYCLE_ERROR] Cycle-based error applied! address=0x8ce26a968 additional_latency=1990500 cycles
Heartbeat CPU 0 instructions: 1270000157 cycles: 2389508977 heartbeat IPC: 0.8237 cumulative IPC: 0.5315 (Simulation time: 03 hr 57 min 12 sec)
[ERROR_CYCLE] Error added at CPU cycle 2394260407, next at 2419140556, pending count: 1
[DRAM_CYCLE_ERROR] Cycle-based error applied! address=0x1a6886978 additional_latency=1990500 cycles
Heartbeat CPU 0 instructions: 1280000159 cycles: 2408115129 heartbeat IPC: 0.5375 cumulative IPC: 0.5315 (Simulation time: 03 hr 58 min 51 sec)
[ERROR_CYCLE] Error added at CPU cycle 2419140557, next at 2424145521, pending count: 1
[DRAM_CYCLE_ERROR] Cycle-based error applied! address=0xdb17f6fc0 additional_latency=1990500 cycles
[ERROR_CYCLE] Error added at CPU cycle 2424145521, next at 2429301214, pending count: 1
[DRAM_CYCLE_ERROR] Cycle-based error applied! address=0xed6a05200 additional_latency=1990500 cycles
[ERROR_CYCLE] Error added at CPU cycle 2429301214, next at 2462176563, pending count: 1
[DRAM_CYCLE_ERROR] Cycle-based error applied! address=0xefbb738e0 additional_latency=1990500 cycles
Heartbeat CPU 0 instructions: 1290000163 cycles: 2439782636 heartbeat IPC: 0.3158 cumulative IPC: 0.5287 (Simulation time: 04 hr 01 min 45 sec)
Heartbeat CPU 0 instructions: 1300000165 cycles: 2448891674 heartbeat IPC: 1.098 cumulative IPC: 0.5309 (Simulation time: 04 hr 02 min 48 sec)
Heartbeat CPU 0 instructions: 1310000166 cycles: 2458478413 heartbeat IPC: 1.043 cumulative IPC: 0.5328 (Simulation time: 04 hr 03 min 47 sec)
[ERROR_CYCLE] Error added at CPU cycle 2462176564, next at 2471115500, pending count: 1
[DRAM_CYCLE_ERROR] Cycle-based error applied! address=0x3b7bd3540 additional_latency=1990500 cycles
Heartbeat CPU 0 instructions: 1320000166 cycles: 2466718904 heartbeat IPC: 1.214 cumulative IPC: 0.5351 (Simulation time: 04 hr 04 min 43 sec)
[ERROR_CYCLE] Error added at CPU cycle 2471115500, next at 2482235696, pending count: 1
[DRAM_CYCLE_ERROR] Cycle-based error applied! address=0xdb17f6b80 additional_latency=1990500 cycles
[ERROR_CYCLE] Error added at CPU cycle 2482235696, next at 2484445689, pending count: 1
[DRAM_CYCLE_ERROR] Cycle-based error applied! address=0xfeba2ca18 additional_latency=1990500 cycles
[ERROR_CYCLE] Error added at CPU cycle 2484445689, next at 2487826583, pending count: 1
[DRAM_CYCLE_ERROR] Cycle-based error applied! address=0xaa9fcf020 additional_latency=1990500 cycles
Heartbeat CPU 0 instructions: 1330000167 cycles: 2487358084 heartbeat IPC: 0.4845 cumulative IPC: 0.5347 (Simulation time: 04 hr 06 min 55 sec)
[ERROR_CYCLE] Error added at CPU cycle 2487826583, next at 2492127373, pending count: 1
[DRAM_CYCLE_ERROR] Cycle-based error applied! address=0x2115d9758 additional_latency=1990500 cycles
[ERROR_CYCLE] Error added at CPU cycle 2492127374, next at 2505689272, pending count: 1
[DRAM_CYCLE_ERROR] Cycle-based error applied! address=0xd03c75c60 additional_latency=1990500 cycles
[ERROR_CYCLE] Error added at CPU cycle 2505689272, next at 2515529207, pending count: 1
[DRAM_CYCLE_ERROR] Cycle-based error applied! address=0xed6b7a9f8 additional_latency=1990500 cycles
[ERROR_CYCLE] Error added at CPU cycle 2515529208, next at 2520692507, pending count: 1
[DRAM_CYCLE_ERROR] Cycle-based error applied! address=0xed6a906c0 additional_latency=1990500 cycles
[ERROR_CYCLE] Error added at CPU cycle 2520692507, next at 2526977663, pending count: 1
[DRAM_CYCLE_ERROR] Cycle-based error applied! address=0x7a7cce070 additional_latency=1990500 cycles
Heartbeat CPU 0 instructions: 1340000168 cycles: 2523194331 heartbeat IPC: 0.279 cumulative IPC: 0.5311 (Simulation time: 04 hr 10 min 17 sec)
[ERROR_CYCLE] Error added at CPU cycle 2526977664, next at 2534787706, pending count: 1
[DRAM_CYCLE_ERROR] Cycle-based error applied! address=0xd86b45040 additional_latency=1990500 cycles
[ERROR_CYCLE] Error added at CPU cycle 2534787706, next at 2539634993, pending count: 1
[DRAM_CYCLE_ERROR] Cycle-based error applied! address=0xed6a25500 additional_latency=1990500 cycles
[ERROR_CYCLE] Error added at CPU cycle 2539634993, next at 2541357327, pending count: 1
[DRAM_CYCLE_ERROR] Cycle-based error applied! address=0x226aceab8 additional_latency=1990500 cycles
[ERROR_CYCLE] Error added at CPU cycle 2541357328, next at 2563015622, pending count: 1
[DRAM_CYCLE_ERROR] Cycle-based error applied! address=0xdafc44728 additional_latency=1990500 cycles
Heartbeat CPU 0 instructions: 1350000171 cycles: 2544971125 heartbeat IPC: 0.4592 cumulative IPC: 0.5305 (Simulation time: 04 hr 12 min 29 sec)
Heartbeat CPU 0 instructions: 1360000171 cycles: 2554288111 heartbeat IPC: 1.073 cumulative IPC: 0.5324 (Simulation time: 04 hr 13 min 34 sec)
[ERROR_CYCLE] Error added at CPU cycle 2563015623, next at 2574248413, pending count: 1
[DRAM_CYCLE_ERROR] Cycle-based error applied! address=0xed6a916c0 additional_latency=1990500 cycles
Heartbeat CPU 0 instructions: 1370000175 cycles: 2568823062 heartbeat IPC: 0.688 cumulative IPC: 0.5333 (Simulation time: 04 hr 15 min 17 sec)
[ERROR_CYCLE] Error added at CPU cycle 2574248413, next at 2584536777, pending count: 1
[DRAM_CYCLE_ERROR] Cycle-based error applied! address=0xac4960620 additional_latency=1990500 cycles
Heartbeat CPU 0 instructions: 1380000177 cycles: 2578981359 heartbeat IPC: 0.9844 cumulative IPC: 0.5351 (Simulation time: 04 hr 16 min 26 sec)
[ERROR_CYCLE] Error added at CPU cycle 2584536777, next at 2633667804, pending count: 1
[DRAM_CYCLE_ERROR] Cycle-based error applied! address=0xec8857ea0 additional_latency=1990500 cycles
Heartbeat CPU 0 instructions: 1390000181 cycles: 2587202632 heartbeat IPC: 1.216 cumulative IPC: 0.5373 (Simulation time: 04 hr 17 min 16 sec)
Heartbeat CPU 0 instructions: 1400000181 cycles: 2596720771 heartbeat IPC: 1.051 cumulative IPC: 0.5391 (Simulation time: 04 hr 18 min 09 sec)
Heartbeat CPU 0 instructions: 1410000183 cycles: 2612076806 heartbeat IPC: 0.6512 cumulative IPC: 0.5398 (Simulation time: 04 hr 19 min 50 sec)
Heartbeat CPU 0 instructions: 1420000187 cycles: 2621255833 heartbeat IPC: 1.089 cumulative IPC: 0.5417 (Simulation time: 04 hr 21 min 00 sec)
Heartbeat CPU 0 instructions: 1430000189 cycles: 2629809196 heartbeat IPC: 1.169 cumulative IPC: 0.5438 (Simulation time: 04 hr 22 min 08 sec)
[ERROR_CYCLE] Error added at CPU cycle 2633667805, next at 2637894515, pending count: 1
[DRAM_CYCLE_ERROR] Cycle-based error applied! address=0x21f1a48b8 additional_latency=1990500 cycles
[ERROR_CYCLE] Error added at CPU cycle 2637894516, next at 2648211880, pending count: 1
[DRAM_CYCLE_ERROR] Cycle-based error applied! address=0xda461b380 additional_latency=1990500 cycles
[ERROR_CYCLE] Error added at CPU cycle 2648211880, next at 2649012483, pending count: 1
[DRAM_CYCLE_ERROR] Cycle-based error applied! address=0xed6bd7fc0 additional_latency=1990500 cycles
[ERROR_CYCLE] Error added at CPU cycle 2649012484, next at 2655650192, pending count: 1
[DRAM_CYCLE_ERROR] Cycle-based error applied! address=0xed6bcc380 additional_latency=1990500 cycles
[ERROR_CYCLE] Error added at CPU cycle 2655650192, next at 2663525915, pending count: 1
[DRAM_CYCLE_ERROR] Cycle-based error applied! address=0x171b1de10 additional_latency=1990500 cycles
Heartbeat CPU 0 instructions: 1440000189 cycles: 2657356467 heartbeat IPC: 0.363 cumulative IPC: 0.5419 (Simulation time: 04 hr 25 min 00 sec)
[ERROR_CYCLE] Error added at CPU cycle 2663525915, next at 2686778622, pending count: 1
[DRAM_CYCLE_ERROR] Cycle-based error applied! address=0xcddc42230 additional_latency=1990500 cycles
Heartbeat CPU 0 instructions: 1450000189 cycles: 2671432501 heartbeat IPC: 0.7104 cumulative IPC: 0.5428 (Simulation time: 04 hr 26 min 38 sec)
Heartbeat CPU 0 instructions: 1460000191 cycles: 2681079569 heartbeat IPC: 1.037 cumulative IPC: 0.5446 (Simulation time: 04 hr 27 min 37 sec)
[ERROR_CYCLE] Error added at CPU cycle 2686778623, next at 2706990306, pending count: 1
[DRAM_CYCLE_ERROR] Cycle-based error applied! address=0x466cfeb20 additional_latency=1990500 cycles
Heartbeat CPU 0 instructions: 1470000194 cycles: 2690037373 heartbeat IPC: 1.116 cumulative IPC: 0.5465 (Simulation time: 04 hr 28 min 38 sec)
Heartbeat CPU 0 instructions: 1480000194 cycles: 2699932650 heartbeat IPC: 1.011 cumulative IPC: 0.5482 (Simulation time: 04 hr 29 min 53 sec)
[ERROR_CYCLE] Error added at CPU cycle 2706990306, next at 2707500157, pending count: 1
[DRAM_CYCLE_ERROR] Cycle-based error applied! address=0x64c86a7a8 additional_latency=1990500 cycles
[ERROR_CYCLE] Error added at CPU cycle 2707500157, next at 2711785951, pending count: 1
[DRAM_CYCLE_ERROR] Cycle-based error applied! address=0xb441ef560 additional_latency=1990500 cycles
[ERROR_CYCLE] Error added at CPU cycle 2711785952, next at 2722419252, pending count: 1
[DRAM_CYCLE_ERROR] Cycle-based error applied! address=0xa12120d60 additional_latency=1990500 cycles
[ERROR_CYCLE] Error added at CPU cycle 2722419253, next at 2734191801, pending count: 1
[DRAM_CYCLE_ERROR] Cycle-based error applied! address=0x613f1df58 additional_latency=1990500 cycles
Heartbeat CPU 0 instructions: 1490000196 cycles: 2726872287 heartbeat IPC: 0.3712 cumulative IPC: 0.5464 (Simulation time: 04 hr 32 min 23 sec)
[ERROR_CYCLE] Error added at CPU cycle 2734191802, next at 2762580882, pending count: 1
[DRAM_CYCLE_ERROR] Cycle-based error applied! address=0x910101570 additional_latency=1990500 cycles
Heartbeat CPU 0 instructions: 1500000198 cycles: 2735147388 heartbeat IPC: 1.208 cumulative IPC: 0.5484 (Simulation time: 04 hr 33 min 28 sec)
Heartbeat CPU 0 instructions: 1510000201 cycles: 2744154656 heartbeat IPC: 1.11 cumulative IPC: 0.5503 (Simulation time: 04 hr 34 min 38 sec)
Heartbeat CPU 0 instructions: 1520000201 cycles: 2754379602 heartbeat IPC: 0.978 cumulative IPC: 0.5518 (Simulation time: 04 hr 35 min 54 sec)
[ERROR_CYCLE] Error added at CPU cycle 2762580882, next at 2768610152, pending count: 1
[DRAM_CYCLE_ERROR] Cycle-based error applied! address=0x28a2b34e0 additional_latency=1990500 cycles
[ERROR_CYCLE] Error added at CPU cycle 2768610153, next at 2784603218, pending count: 1
[DRAM_CYCLE_ERROR] Cycle-based error applied! address=0x4c3336930 additional_latency=1990500 cycles
[ERROR_CYCLE] Error added at CPU cycle 2784603218, next at 2791831024, pending count: 1
[DRAM_CYCLE_ERROR] Cycle-based error applied! address=0x1656bd9f8 additional_latency=1990500 cycles
Heartbeat CPU 0 instructions: 1530000203 cycles: 2788176458 heartbeat IPC: 0.2959 cumulative IPC: 0.5487 (Simulation time: 04 hr 39 min 17 sec)
[ERROR_CYCLE] Error added at CPU cycle 2791831025, next at 2801792805, pending count: 1
[DRAM_CYCLE_ERROR] Cycle-based error applied! address=0x3be4937e8 additional_latency=1990500 cycles
[ERROR_CYCLE] Error added at CPU cycle 2801792805, next at 2802263784, pending count: 1
[DRAM_CYCLE_ERROR] Cycle-based error applied! address=0xd1fb9ee80 additional_latency=1990500 cycles
[ERROR_CYCLE] Error added at CPU cycle 2802263784, next at 2805327961, pending count: 1
[DRAM_CYCLE_ERROR] Cycle-based error applied! address=0x4a8ce4878 additional_latency=1990500 cycles
[ERROR_CYCLE] Error added at CPU cycle 2805327962, next at 2808931246, pending count: 1
[DRAM_CYCLE_ERROR] Cycle-based error applied! address=0x112709598 additional_latency=1990500 cycles
[ERROR_CYCLE] Error added at CPU cycle 2808931247, next at 2816309239, pending count: 1
[DRAM_CYCLE_ERROR] Cycle-based error applied! address=0x9ae64bd90 additional_latency=1990500 cycles
[ERROR_CYCLE] Error added at CPU cycle 2816309240, next at 2826601536, pending count: 1
[DRAM_CYCLE_ERROR] Cycle-based error applied! address=0x61553b88 additional_latency=1990500 cycles
[ERROR_CYCLE] Error added at CPU cycle 2826601536, next at 2860916053, pending count: 1
[DRAM_CYCLE_ERROR] Cycle-based error applied! address=0x222a79190 additional_latency=1990500 cycles
Heartbeat CPU 0 instructions: 1540000207 cycles: 2830050152 heartbeat IPC: 0.2388 cumulative IPC: 0.5442 (Simulation time: 04 hr 43 min 24 sec)
[ERROR_CYCLE] Error added at CPU cycle 2860916053, next at 2870223242, pending count: 1
[DRAM_CYCLE_ERROR] Cycle-based error applied! address=0x1bf3cf038 additional_latency=1990500 cycles
[ERROR_CYCLE] Error added at CPU cycle 2870223243, next at 2884087618, pending count: 1
[DRAM_CYCLE_ERROR] Cycle-based error applied! address=0x3cd609ce8 additional_latency=1990500 cycles
[...]
[ERROR_CYCLE] Error added at CPU cycle 3288094035, next at 3300989344, pending count: 1
[DRAM_CYCLE_ERROR] Cycle-based error applied! address=0x7436f9e48 additional_latency=1990500 cycles
Heartbeat CPU 0 instructions: 1750000236 cycles: 3291831982 heartbeat IPC: 1.158 cumulative IPC: 0.5316 (Simulation time: 05 hr 30 min 26 sec)
[ERROR_CYCLE] Error added at CPU cycle 3300989344, next at 3305309758, pending count: 1
[DRAM_CYCLE_ERROR] Cycle-based error applied! address=0x67cc129d0 additional_latency=1990500 cycles
Heartbeat CPU 0 instructions: 1760000236 cycles: 3305055159 heartbeat IPC: 0.7562 cumulative IPC: 0.5325 (Simulation time: 05 hr 31 min 55 sec)
[ERROR_CYCLE] Error added at CPU cycle 3305309759, next at 3321174652, pending count: 1
[DRAM_CYCLE_ERROR] Cycle-based error applied! address=0x7436f9e40 additional_latency=1990500 cycles
Heartbeat CPU 0 instructions: 1770000237 cycles: 3314888163 heartbeat IPC: 1.017 cumulative IPC: 0.534 (Simulation time: 05 hr 32 min 51 sec)
[ERROR_CYCLE] Error added at CPU cycle 3321174653, next at 3326854844, pending count: 1
[DRAM_CYCLE_ERROR] Cycle-based error applied! address=0x6d48be018 additional_latency=1990500 cycles
[ERROR_CYCLE] Error added at CPU cycle 3326854845, next at 3342910329, pending count: 1
[DRAM_CYCLE_ERROR] Cycle-based error applied! address=0x89a1340b8 additional_latency=1990500 cycles
Heartbeat CPU 0 instructions: 1780000237 cycles: 3335561877 heartbeat IPC: 0.4837 cumulative IPC: 0.5336 (Simulation time: 05 hr 34 min 55 sec)
[ERROR_CYCLE] Error added at CPU cycle 3342910330, next at 3348962766, pending count: 1
[DRAM_CYCLE_ERROR] Cycle-based error applied! address=0xc6e8f5250 additional_latency=1990500 cycles
[ERROR_CYCLE] Error added at CPU cycle 3348962767, next at 3350255608, pending count: 1
[DRAM_CYCLE_ERROR] Cycle-based error applied! address=0xe03ca1b70 additional_latency=1990500 cycles
[ERROR_CYCLE] Error added at CPU cycle 3350255608, next at 3351164361, pending count: 1
[DRAM_CYCLE_ERROR] Cycle-based error applied! address=0x5d4ee4408 additional_latency=1990500 cycles
[ERROR_CYCLE] Error added at CPU cycle 3351164362, next at 3354561796, pending count: 1
[DRAM_CYCLE_ERROR] Cycle-based error applied! address=0x775db9870 additional_latency=1990500 cycles
[ERROR_CYCLE] Error added at CPU cycle 3354561796, next at 3364362074, pending count: 1
[DRAM_CYCLE_ERROR] Cycle-based error applied! address=0x8f3fea300 additional_latency=1990500 cycles
[ERROR_CYCLE] Error added at CPU cycle 3364362074, next at 3369457193, pending count: 1
[DRAM_CYCLE_ERROR] Cycle-based error applied! address=0xcfbd0db80 additional_latency=1990500 cycles
[ERROR_CYCLE] Error added at CPU cycle 3369457193, next at 3403455375, pending count: 1
[DRAM_CYCLE_ERROR] Cycle-based error applied! address=0x89a05bdb8 additional_latency=1990500 cycles
Heartbeat CPU 0 instructions: 1790000238 cycles: 3383452856 heartbeat IPC: 0.2088 cumulative IPC: 0.529 (Simulation time: 05 hr 39 min 09 sec)
[ERROR_CYCLE] Error added at CPU cycle 3403455376, next at 3404563521, pending count: 1
[DRAM_CYCLE_ERROR] Cycle-based error applied! address=0xd03d59f90 additional_latency=1990500 cycles
[ERROR_CYCLE] Error added at CPU cycle 3404563522, next at 3411322508, pending count: 1
[DRAM_CYCLE_ERROR] Cycle-based error applied! address=0xcfbd0ccf8 additional_latency=1990500 cycles
Heartbeat CPU 0 instructions: 1800000240 cycles: 3405555032 heartbeat IPC: 0.4524 cumulative IPC: 0.5285 (Simulation time: 05 hr 41 min 20 sec)
[ERROR_CYCLE] Error added at CPU cycle 3411322508, next at 3415989098, pending count: 1
[DRAM_CYCLE_ERROR] Cycle-based error applied! address=0x2366f83d0 additional_latency=1990500 cycles
Heartbeat CPU 0 instructions: 1810000240 cycles: 3415424998 heartbeat IPC: 1.013 cumulative IPC: 0.5299 (Simulation time: 05 hr 42 min 33 sec)
[ERROR_CYCLE] Error added at CPU cycle 3415989098, next at 3417517228, pending count: 1
[DRAM_CYCLE_ERROR] Cycle-based error applied! address=0x38d61a880 additional_latency=1990500 cycles
[ERROR_CYCLE] Error added at CPU cycle 3417517229, next at 3426164803, pending count: 1
[DRAM_CYCLE_ERROR] Cycle-based error applied! address=0x7436f9e48 additional_latency=1990500 cycles
[ERROR_CYCLE] Error added at CPU cycle 3426164804, next at 3432074276, pending count: 1
[DRAM_CYCLE_ERROR] Cycle-based error applied! address=0xcfbda8ff8 additional_latency=1990500 cycles
[ERROR_CYCLE] Error added at CPU cycle 3432074277, next at 3434976975, pending count: 1
[DRAM_CYCLE_ERROR] Cycle-based error applied! address=0xc39e0fc78 additional_latency=1990500 cycles
[ERROR_CYCLE] Error added at CPU cycle 3434976975, next at 3448295297, pending count: 1
[DRAM_CYCLE_ERROR] Cycle-based error applied! address=0xddca716f8 additional_latency=1990500 cycles
Heartbeat CPU 0 instructions: 1820000242 cycles: 3435392423 heartbeat IPC: 0.5008 cumulative IPC: 0.5298 (Simulation time: 05 hr 44 min 45 sec)
Heartbeat CPU 0 instructions: 1830000243 cycles: 3445099423 heartbeat IPC: 1.03 cumulative IPC: 0.5312 (Simulation time: 05 hr 45 min 59 sec)
[ERROR_CYCLE] Error added at CPU cycle 3448295297, next at 3458665818, pending count: 1
[DRAM_CYCLE_ERROR] Cycle-based error applied! address=0xb519bc988 additional_latency=1990500 cycles
Heartbeat CPU 0 instructions: 1840000243 cycles: 3452933411 heartbeat IPC: 1.276 cumulative IPC: 0.5329 (Simulation time: 05 hr 46 min 58 sec)
[ERROR_CYCLE] Error added at CPU cycle 3458665819, next at 3481700724, pending count: 1
[DRAM_CYCLE_ERROR] Cycle-based error applied! address=0x7436f8bf0 additional_latency=1990500 cycles
Heartbeat CPU 0 instructions: 1850000243 cycles: 3462808522 heartbeat IPC: 1.013 cumulative IPC: 0.5342 (Simulation time: 05 hr 48 min 13 sec)
Heartbeat CPU 0 instructions: 1860000245 cycles: 3477847836 heartbeat IPC: 0.6649 cumulative IPC: 0.5348 (Simulation time: 05 hr 49 min 56 sec)
[ERROR_CYCLE] Error added at CPU cycle 3481700724, next at 3482039287, pending count: 1
[DRAM_CYCLE_ERROR] Cycle-based error applied! address=0x365f757b8 additional_latency=1990500 cycles
[ERROR_CYCLE] Error added at CPU cycle 3482039287, next at 3504647273, pending count: 1
[DRAM_CYCLE_ERROR] Cycle-based error applied! address=0xda870e1d8 additional_latency=1990500 cycles
Heartbeat CPU 0 instructions: 1870000249 cycles: 3493464008 heartbeat IPC: 0.6404 cumulative IPC: 0.5353 (Simulation time: 05 hr 51 min 45 sec)
Heartbeat CPU 0 instructions: 1880000253 cycles: 3502258664 heartbeat IPC: 1.137 cumulative IPC: 0.5368 (Simulation time: 05 hr 52 min 53 sec)
[ERROR_CYCLE] Error added at CPU cycle 3504647273, next at 3507775714, pending count: 1
[DRAM_CYCLE_ERROR] Cycle-based error applied! address=0x8e0c172f0 additional_latency=1990500 cycles
[ERROR_CYCLE] Error added at CPU cycle 3507775714, next at 3520934974, pending count: 1
[DRAM_CYCLE_ERROR] Cycle-based error applied! address=0x89a09b538 additional_latency=1990500 cycles
Heartbeat CPU 0 instructions: 1890000255 cycles: 3519010645 heartbeat IPC: 0.5969 cumulative IPC: 0.5371 (Simulation time: 05 hr 54 min 49 sec)
[ERROR_CYCLE] Error added at CPU cycle 3520934974, next at 3532945407, pending count: 1
[DRAM_CYCLE_ERROR] Cycle-based error applied! address=0x226adcfe0 additional_latency=1990500 cycles
Heartbeat CPU 0 instructions: 1900000258 cycles: 3527519933 heartbeat IPC: 1.175 cumulative IPC: 0.5386 (Simulation time: 05 hr 55 min 56 sec)
[ERROR_CYCLE] Error added at CPU cycle 3532945408, next at 3543834986, pending count: 1
[DRAM_CYCLE_ERROR] Cycle-based error applied! address=0xf80430428 additional_latency=1990500 cycles
Heartbeat CPU 0 instructions: 1910000258 cycles: 3538432938 heartbeat IPC: 0.9163 cumulative IPC: 0.5398 (Simulation time: 05 hr 57 min 16 sec)
[ERROR_CYCLE] Error added at CPU cycle 3543834987, next at 3551892986, pending count: 1
[DRAM_CYCLE_ERROR] Cycle-based error applied! address=0x7436fa1d0 additional_latency=1990500 cycles
Heartbeat CPU 0 instructions: 1920000259 cycles: 3547873914 heartbeat IPC: 1.059 cumulative IPC: 0.5412 (Simulation time: 05 hr 58 min 29 sec)
[ERROR_CYCLE] Error added at CPU cycle 3551892987, next at 3565954259, pending count: 1
[DRAM_CYCLE_ERROR] Cycle-based error applied! address=0x89a11d438 additional_latency=1990500 cycles
Heartbeat CPU 0 instructions: 1930000261 cycles: 3563725991 heartbeat IPC: 0.6308 cumulative IPC: 0.5416 (Simulation time: 06 hr 00 min 17 sec)
[ERROR_CYCLE] Error added at CPU cycle 3565954259, next at 3566647601, pending count: 1
[DRAM_CYCLE_ERROR] Cycle-based error applied! address=0xbe0380a98 additional_latency=1990500 cycles
[ERROR_CYCLE] Error added at CPU cycle 3566647601, next at 3569252409, pending count: 1
[DRAM_CYCLE_ERROR] Cycle-based error applied! address=0x6d4903f30 additional_latency=1990500 cycles
[ERROR_CYCLE] Error added at CPU cycle 3569252409, next at 3579893962, pending count: 1
[DRAM_CYCLE_ERROR] Cycle-based error applied! address=0xb6aff6d70 additional_latency=1990500 cycles
Heartbeat CPU 0 instructions: 1940000262 cycles: 3572547047 heartbeat IPC: 1.134 cumulative IPC: 0.543 (Simulation time: 06 hr 01 min 26 sec)
[ERROR_CYCLE] Error added at CPU cycle 3579893962, next at 3606582011, pending count: 1
[DRAM_CYCLE_ERROR] Cycle-based error applied! address=0x161f8c08 additional_latency=1990500 cycles
Heartbeat CPU 0 instructions: 1950000263 cycles: 3584576463 heartbeat IPC: 0.8313 cumulative IPC: 0.544 (Simulation time: 06 hr 02 min 55 sec)
Heartbeat CPU 0 instructions: 1960000263 cycles: 3594767307 heartbeat IPC: 0.9813 cumulative IPC: 0.5452 (Simulation time: 06 hr 04 min 12 sec)
[ERROR_CYCLE] Error added at CPU cycle 3606582011, next at 3608811150, pending count: 1
[DRAM_CYCLE_ERROR] Cycle-based error applied! address=0x7e9971f90 additional_latency=1990500 cycles
[ERROR_CYCLE] Error added at CPU cycle 3608811150, next at 3610418252, pending count: 1
[DRAM_CYCLE_ERROR] Cycle-based error applied! address=0x83a07a870 additional_latency=1990500 cycles
[ERROR_CYCLE] Error added at CPU cycle 3610418253, next at 3624192562, pending count: 1
[DRAM_CYCLE_ERROR] Cycle-based error applied! address=0x9675002e8 additional_latency=1990500 cycles
Heartbeat CPU 0 instructions: 1970000266 cycles: 3620535459 heartbeat IPC: 0.3881 cumulative IPC: 0.5441 (Simulation time: 06 hr 06 min 19 sec)
[ERROR_CYCLE] Error added at CPU cycle 3624192562, next at 3625862035, pending count: 1
[DRAM_CYCLE_ERROR] Cycle-based error applied! address=0x3e85f6d78 additional_latency=1990500 cycles
[ERROR_CYCLE] Error added at CPU cycle 3625862035, next at 3632047595, pending count: 1
[DRAM_CYCLE_ERROR] Cycle-based error applied! address=0x2d6df0ab8 additional_latency=1990500 cycles
[ERROR_CYCLE] Error added at CPU cycle 3632047595, next at 3650093527, pending count: 1
[DRAM_CYCLE_ERROR] Cycle-based error applied! address=0xb18549cc0 additional_latency=1990500 cycles
[ERROR_CYCLE] Error added at CPU cycle 3650093527, next at 3656076235, pending count: 1
[DRAM_CYCLE_ERROR] Cycle-based error applied! address=0x4a8d8f838 additional_latency=1990500 cycles
[ERROR_CYCLE] Error added at CPU cycle 3656076235, next at 3700355232, pending count: 1
[DRAM_CYCLE_ERROR] Cycle-based error applied! address=0xc03fff078 additional_latency=1990500 cycles
Heartbeat CPU 0 instructions: 1980000267 cycles: 3668173379 heartbeat IPC: 0.2099 cumulative IPC: 0.5398 (Simulation time: 06 hr 10 min 17 sec)
[ERROR_CYCLE] Error added at CPU cycle 3700355233, next at 3712127400, pending count: 1
[DRAM_CYCLE_ERROR] Cycle-based error applied! address=0x69d579f78 additional_latency=1990500 cycles
[ERROR_CYCLE] Error added at CPU cycle 3712127401, next at 3720656106, pending count: 1
[DRAM_CYCLE_ERROR] Cycle-based error applied! address=0x640ce1de8 additional_latency=1990500 cycles
Heartbeat CPU 0 instructions: 1990000270 cycles: 3716302918 heartbeat IPC: 0.2078 cumulative IPC: 0.5355 (Simulation time: 06 hr 14 min 02 sec)
[ERROR_CYCLE] Error added at CPU cycle 3720656106, next at 3723985014, pending count: 1
[DRAM_CYCLE_ERROR] Cycle-based error applied! address=0xc4bd56f58 additional_latency=1990500 cycles
[ERROR_CYCLE] Error added at CPU cycle 3723985015, next at 3728688585, pending count: 1
[DRAM_CYCLE_ERROR] Cycle-based error applied! address=0x61837e20 additional_latency=1990500 cycles
[ERROR_CYCLE] Error added at CPU cycle 3728688585, next at 3733921543, pending count: 1
[DRAM_CYCLE_ERROR] Cycle-based error applied! address=0x497610c30 additional_latency=1990500 cycles
[ERROR_CYCLE] Error added at CPU cycle 3733921543, next at 3740986518, pending count: 1
[DRAM_CYCLE_ERROR] Cycle-based error applied! address=0xc4bcaf240 additional_latency=1990500 cycles
[ERROR_CYCLE] Error added at CPU cycle 3740986519, next at 3745262405, pending count: 1
[DRAM_CYCLE_ERROR] Cycle-based error applied! address=0x1bf355f00 additional_latency=1990500 cycles
[ERROR_CYCLE] Error added at CPU cycle 3745262405, next at 3756703565, pending count: 1
[DRAM_CYCLE_ERROR] Cycle-based error applied! address=0x41060ab30 additional_latency=1990500 cycles
[ERROR_CYCLE] Error added at CPU cycle 3756703565, next at 3781119322, pending count: 1
[DRAM_CYCLE_ERROR] Cycle-based error applied! address=0x4f386d468 additional_latency=1990500 cycles

=== ERROR PAGE STATISTICS ===
Mode: CYCLE
Error Cycle Interval: 10000000 CPU cycles
Total Error Accesses: 392
==============================
Simulation finished CPU 0 instructions: 1999999938 cycles: 3760662006 cumulative IPC: 0.5318 (Simulation time: 06 hr 18 min 15 sec)
Simulation complete CPU 0 instructions: 1999999938 cycles: 3760662006 cumulative IPC: 0.5318 (Simulation time: 06 hr 18 min 15 sec)

ChampSim completed all CPUs

=== Simulation ===
CPU 0 runs test_traces/605.mcf_s-994B.champsimtrace.xz

Region of Interest Statistics

CPU 0 cumulative IPC: 0.5318 instructions: 1999999938 cycles: 3760662006
CPU 0 Branch Prediction Accuracy: 92.62% MPKI: 18.99 Average ROB Occupancy at Mispredict: 32.65
Branch type MPKI
BRANCH_DIRECT_JUMP: 0.123
BRANCH_INDIRECT: 0
BRANCH_CONDITIONAL: 18.86
BRANCH_DIRECT_CALL: 6.5e-06
BRANCH_INDIRECT_CALL: 0.0004185
BRANCH_RETURN: 1e-05

cpu0->cpu0_STLB TOTAL        ACCESS:    5250117 HIT:    5249235 MISS:        882 MSHR_MERGE:          0
cpu0->cpu0_STLB LOAD         ACCESS:    5250117 HIT:    5249235 MISS:        882 MSHR_MERGE:          0
cpu0->cpu0_STLB RFO          ACCESS:          0 HIT:          0 MISS:          0 MSHR_MERGE:          0
cpu0->cpu0_STLB PREFETCH     ACCESS:          0 HIT:          0 MISS:          0 MSHR_MERGE:          0
cpu0->cpu0_STLB WRITE        ACCESS:          0 HIT:          0 MISS:          0 MSHR_MERGE:          0
cpu0->cpu0_STLB TRANSLATION  ACCESS:          0 HIT:          0 MISS:          0 MSHR_MERGE:          0
cpu0->cpu0_STLB PREFETCH REQUESTED:          0 ISSUED:          0 USEFUL:          0 USELESS:          0
cpu0->cpu0_STLB AVERAGE MISS LATENCY: 8689 cycles
cpu0->cpu0_L2C TOTAL        ACCESS:   81180854 HIT:   27540048 MISS:   53640806 MSHR_MERGE:          0
cpu0->cpu0_L2C LOAD         ACCESS:   75043369 HIT:   21467019 MISS:   53576350 MSHR_MERGE:          0
cpu0->cpu0_L2C RFO          ACCESS:     492509 HIT:     432338 MISS:      60171 MSHR_MERGE:          0
cpu0->cpu0_L2C PREFETCH     ACCESS:          0 HIT:          0 MISS:          0 MSHR_MERGE:          0
cpu0->cpu0_L2C WRITE        ACCESS:    5644976 HIT:    5640691 MISS:       4285 MSHR_MERGE:          0
cpu0->cpu0_L2C TRANSLATION  ACCESS:          0 HIT:          0 MISS:          0 MSHR_MERGE:          0
cpu0->cpu0_L2C PREFETCH REQUESTED:          0 ISSUED:          0 USEFUL:          0 USELESS:          0
cpu0->cpu0_L2C AVERAGE MISS LATENCY: 94.11 cycles
cpu0->cpu0_L1I TOTAL        ACCESS:    2873421 HIT:    2873329 MISS:         92 MSHR_MERGE:         26
cpu0->cpu0_L1I LOAD         ACCESS:    2873421 HIT:    2873329 MISS:         92 MSHR_MERGE:         26
cpu0->cpu0_L1I RFO          ACCESS:          0 HIT:          0 MISS:          0 MSHR_MERGE:          0
cpu0->cpu0_L1I PREFETCH     ACCESS:          0 HIT:          0 MISS:          0 MSHR_MERGE:          0
cpu0->cpu0_L1I WRITE        ACCESS:          0 HIT:          0 MISS:          0 MSHR_MERGE:          0
cpu0->cpu0_L1I TRANSLATION  ACCESS:          0 HIT:          0 MISS:          0 MSHR_MERGE:          0
cpu0->cpu0_L1I PREFETCH REQUESTED:          0 ISSUED:          0 USEFUL:          0 USELESS:          0
cpu0->cpu0_L1I AVERAGE MISS LATENCY: 115.7 cycles
cpu0->cpu0_L1D TOTAL        ACCESS:  810917434 HIT:  728556763 MISS:   82360671 MSHR_MERGE:    6823702
cpu0->cpu0_L1D LOAD         ACCESS:  610333661 HIT:  529349674 MISS:   80983987 MSHR_MERGE:    5940665
cpu0->cpu0_L1D RFO          ACCESS:          0 HIT:          0 MISS:          0 MSHR_MERGE:          0
cpu0->cpu0_L1D PREFETCH     ACCESS:          0 HIT:          0 MISS:          0 MSHR_MERGE:          0
cpu0->cpu0_L1D WRITE        ACCESS:  200583773 HIT:  199207089 MISS:    1376684 MSHR_MERGE:     883037
cpu0->cpu0_L1D TRANSLATION  ACCESS:          0 HIT:          0 MISS:          0 MSHR_MERGE:          0
cpu0->cpu0_L1D PREFETCH REQUESTED:          0 ISSUED:          0 USEFUL:          0 USELESS:          0
cpu0->cpu0_L1D AVERAGE MISS LATENCY: 75.67 cycles
cpu0->cpu0_ITLB TOTAL        ACCESS:    2722862 HIT:    2722861 MISS:          1 MSHR_MERGE:          0
cpu0->cpu0_ITLB LOAD         ACCESS:    2722862 HIT:    2722861 MISS:          1 MSHR_MERGE:          0
cpu0->cpu0_ITLB RFO          ACCESS:          0 HIT:          0 MISS:          0 MSHR_MERGE:          0
cpu0->cpu0_ITLB PREFETCH     ACCESS:          0 HIT:          0 MISS:          0 MSHR_MERGE:          0
cpu0->cpu0_ITLB WRITE        ACCESS:          0 HIT:          0 MISS:          0 MSHR_MERGE:          0
cpu0->cpu0_ITLB TRANSLATION  ACCESS:          0 HIT:          0 MISS:          0 MSHR_MERGE:          0
cpu0->cpu0_ITLB PREFETCH REQUESTED:          0 ISSUED:          0 USEFUL:          0 USELESS:          0
cpu0->cpu0_ITLB AVERAGE MISS LATENCY: 1.722e+04 cycles
cpu0->cpu0_DTLB TOTAL        ACCESS:  704845565 HIT:  699172199 MISS:    5673366 MSHR_MERGE:     423250
cpu0->cpu0_DTLB LOAD         ACCESS:  704845565 HIT:  699172199 MISS:    5673366 MSHR_MERGE:     423250
cpu0->cpu0_DTLB RFO          ACCESS:          0 HIT:          0 MISS:          0 MSHR_MERGE:          0
cpu0->cpu0_DTLB PREFETCH     ACCESS:          0 HIT:          0 MISS:          0 MSHR_MERGE:          0
cpu0->cpu0_DTLB WRITE        ACCESS:          0 HIT:          0 MISS:          0 MSHR_MERGE:          0
cpu0->cpu0_DTLB TRANSLATION  ACCESS:          0 HIT:          0 MISS:          0 MSHR_MERGE:          0
cpu0->cpu0_DTLB PREFETCH REQUESTED:          0 ISSUED:          0 USEFUL:          0 USELESS:          0
cpu0->cpu0_DTLB AVERAGE MISS LATENCY: 6.465 cycles
cpu0->LLC TOTAL        ACCESS:   57571111 HIT:   16528554 MISS:   41042557 MSHR_MERGE:          0
cpu0->LLC LOAD         ACCESS:   53576350 HIT:   12553502 MISS:   41022848 MSHR_MERGE:          0
cpu0->LLC RFO          ACCESS:      60171 HIT:      41696 MISS:      18475 MSHR_MERGE:          0
cpu0->LLC PREFETCH     ACCESS:          0 HIT:          0 MISS:          0 MSHR_MERGE:          0
cpu0->LLC WRITE        ACCESS:    3934590 HIT:    3933356 MISS:       1234 MSHR_MERGE:          0
cpu0->LLC TRANSLATION  ACCESS:          0 HIT:          0 MISS:          0 MSHR_MERGE:          0
cpu0->LLC PREFETCH REQUESTED:          0 ISSUED:          0 USEFUL:          0 USELESS:          0
cpu0->LLC AVERAGE MISS LATENCY: 102.4 cycles

DRAM Statistics

Channel 0 RQ ROW_BUFFER_HIT:     274154
  ROW_BUFFER_MISS:   20245327
  AVG DBUS CONGESTED CYCLE: 9.325
Channel 0 WQ ROW_BUFFER_HIT:     333018
  ROW_BUFFER_MISS:    1234902
  FULL:          0
Channel 0 REFRESHES ISSUED:     313368

Channel 1 RQ ROW_BUFFER_HIT:     274622
  ROW_BUFFER_MISS:   20248942
  AVG DBUS CONGESTED CYCLE: 9.323
Channel 1 WQ ROW_BUFFER_HIT:     332237
  ROW_BUFFER_MISS:    1235480
  FULL:          0
Channel 1 REFRESHES ISSUED:     313368
