
*** ChampSim Multicore Out-of-Order Simulator ***
Warmup Instructions: 0
Simulation Instructions: 9223372036854775807
Number of CPUs: 1
Page size: 2097152

Off-chip DRAM Size: 128 GiB Channels: 2 Width: 32-bit Data Rate: 4807 MT/s
[ERROR_PAGE_MANAGER] Error latency: 1990500 
[ERROR_PAGE_MANAGER] Random seed: 54321 (fixed for preload reproducibility)
[ERROR_PAGE_MANAGER] Cycle-based error modeling enabled
[ERROR_PAGE_MANAGER] Errors per interval: 1
[ERROR_PAGE_MANAGER] Error cycle interval: 800000000 cycles

=== ERROR PAGE STATISTICS ===
Mode: CYCLE
Error Cycle Interval: 800000000 CPU cycles
Total Error Accesses: 0
==============================
Warmup finished CPU 0 instructions: 0 cycles: 1 cumulative IPC: 0 (Simulation time: 00 hr 00 min 00 sec)
Warmup complete CPU 0 instructions: 0 cycles: 1 cumulative IPC: 0 (Simulation time: 00 hr 00 min 00 sec)
Heartbeat CPU 0 instructions: 10000000 cycles: 9439884 heartbeat IPC: 1.059 cumulative IPC: 1.059 (Simulation time: 00 hr 01 min 11 sec)
Heartbeat CPU 0 instructions: 20000000 cycles: 18752567 heartbeat IPC: 1.074 cumulative IPC: 1.067 (Simulation time: 00 hr 02 min 21 sec)
Heartbeat CPU 0 instructions: 30000000 cycles: 28127373 heartbeat IPC: 1.067 cumulative IPC: 1.067 (Simulation time: 00 hr 03 min 32 sec)
Heartbeat CPU 0 instructions: 40000001 cycles: 37515578 heartbeat IPC: 1.065 cumulative IPC: 1.066 (Simulation time: 00 hr 04 min 43 sec)
Heartbeat CPU 0 instructions: 50000005 cycles: 52632522 heartbeat IPC: 0.6615 cumulative IPC: 0.95 (Simulation time: 00 hr 06 min 48 sec)
Heartbeat CPU 0 instructions: 60000005 cycles: 71139097 heartbeat IPC: 0.5403 cumulative IPC: 0.8434 (Simulation time: 00 hr 09 min 11 sec)
Heartbeat CPU 0 instructions: 70000008 cycles: 80453017 heartbeat IPC: 1.074 cumulative IPC: 0.8701 (Simulation time: 00 hr 10 min 22 sec)
Heartbeat CPU 0 instructions: 80000011 cycles: 89772114 heartbeat IPC: 1.073 cumulative IPC: 0.8911 (Simulation time: 00 hr 11 min 32 sec)
Heartbeat CPU 0 instructions: 90000011 cycles: 99082824 heartbeat IPC: 1.074 cumulative IPC: 0.9083 (Simulation time: 00 hr 12 min 43 sec)
Heartbeat CPU 0 instructions: 100000014 cycles: 108393105 heartbeat IPC: 1.074 cumulative IPC: 0.9226 (Simulation time: 00 hr 13 min 53 sec)
Heartbeat CPU 0 instructions: 110000014 cycles: 117703235 heartbeat IPC: 1.074 cumulative IPC: 0.9346 (Simulation time: 00 hr 14 min 45 sec)
Heartbeat CPU 0 instructions: 120000018 cycles: 129319921 heartbeat IPC: 0.8608 cumulative IPC: 0.9279 (Simulation time: 00 hr 16 min 19 sec)
Heartbeat CPU 0 instructions: 130000019 cycles: 147296753 heartbeat IPC: 0.5563 cumulative IPC: 0.8826 (Simulation time: 00 hr 18 min 26 sec)
Heartbeat CPU 0 instructions: 140000019 cycles: 156608260 heartbeat IPC: 1.074 cumulative IPC: 0.894 (Simulation time: 00 hr 19 min 20 sec)
Heartbeat CPU 0 instructions: 150000019 cycles: 165928081 heartbeat IPC: 1.073 cumulative IPC: 0.904 (Simulation time: 00 hr 20 min 18 sec)
Heartbeat CPU 0 instructions: 160000020 cycles: 175249190 heartbeat IPC: 1.073 cumulative IPC: 0.913 (Simulation time: 00 hr 21 min 29 sec)
Heartbeat CPU 0 instructions: 170000020 cycles: 184558421 heartbeat IPC: 1.074 cumulative IPC: 0.9211 (Simulation time: 00 hr 22 min 40 sec)
Heartbeat CPU 0 instructions: 180000023 cycles: 193868057 heartbeat IPC: 1.074 cumulative IPC: 0.9285 (Simulation time: 00 hr 23 min 50 sec)
Heartbeat CPU 0 instructions: 190000026 cycles: 203178791 heartbeat IPC: 1.074 cumulative IPC: 0.9351 (Simulation time: 00 hr 24 min 53 sec)
Heartbeat CPU 0 instructions: 200000027 cycles: 220403897 heartbeat IPC: 0.5805 cumulative IPC: 0.9074 (Simulation time: 00 hr 27 min 10 sec)
Heartbeat CPU 0 instructions: 210000029 cycles: 232715424 heartbeat IPC: 0.8122 cumulative IPC: 0.9024 (Simulation time: 00 hr 28 min 43 sec)
Heartbeat CPU 0 instructions: 220000033 cycles: 242027980 heartbeat IPC: 1.074 cumulative IPC: 0.909 (Simulation time: 00 hr 29 min 36 sec)
Heartbeat CPU 0 instructions: 230000036 cycles: 251360527 heartbeat IPC: 1.072 cumulative IPC: 0.915 (Simulation time: 00 hr 30 min 37 sec)
Heartbeat CPU 0 instructions: 240000039 cycles: 260671245 heartbeat IPC: 1.074 cumulative IPC: 0.9207 (Simulation time: 00 hr 31 min 30 sec)
Heartbeat CPU 0 instructions: 250000039 cycles: 269981969 heartbeat IPC: 1.074 cumulative IPC: 0.926 (Simulation time: 00 hr 32 min 24 sec)
Heartbeat CPU 0 instructions: 260000039 cycles: 279295492 heartbeat IPC: 1.074 cumulative IPC: 0.9309 (Simulation time: 00 hr 33 min 33 sec)
Heartbeat CPU 0 instructions: 270000040 cycles: 293216861 heartbeat IPC: 0.7183 cumulative IPC: 0.9208 (Simulation time: 00 hr 35 min 28 sec)
Heartbeat CPU 0 instructions: 280000044 cycles: 308866639 heartbeat IPC: 0.639 cumulative IPC: 0.9065 (Simulation time: 00 hr 37 min 16 sec)
Heartbeat CPU 0 instructions: 290000047 cycles: 318187138 heartbeat IPC: 1.073 cumulative IPC: 0.9114 (Simulation time: 00 hr 38 min 21 sec)
Heartbeat CPU 0 instructions: 300000048 cycles: 327499265 heartbeat IPC: 1.074 cumulative IPC: 0.916 (Simulation time: 00 hr 39 min 24 sec)
Heartbeat CPU 0 instructions: 310000050 cycles: 336809764 heartbeat IPC: 1.074 cumulative IPC: 0.9204 (Simulation time: 00 hr 40 min 14 sec)
Heartbeat CPU 0 instructions: 320000054 cycles: 346121951 heartbeat IPC: 1.074 cumulative IPC: 0.9245 (Simulation time: 00 hr 41 min 11 sec)
Heartbeat CPU 0 instructions: 330000056 cycles: 355432473 heartbeat IPC: 1.074 cumulative IPC: 0.9284 (Simulation time: 00 hr 42 min 18 sec)
Heartbeat CPU 0 instructions: 340000056 cycles: 366026963 heartbeat IPC: 0.9439 cumulative IPC: 0.9289 (Simulation time: 00 hr 43 min 38 sec)
Heartbeat CPU 0 instructions: 350000056 cycles: 384706953 heartbeat IPC: 0.5353 cumulative IPC: 0.9098 (Simulation time: 00 hr 45 min 29 sec)
Heartbeat CPU 0 instructions: 360000056 cycles: 395028258 heartbeat IPC: 0.9689 cumulative IPC: 0.9113 (Simulation time: 00 hr 46 min 19 sec)
Heartbeat CPU 0 instructions: 370000058 cycles: 405349570 heartbeat IPC: 0.9689 cumulative IPC: 0.9128 (Simulation time: 00 hr 47 min 28 sec)
Heartbeat CPU 0 instructions: 380000062 cycles: 415661996 heartbeat IPC: 0.9697 cumulative IPC: 0.9142 (Simulation time: 00 hr 48 min 36 sec)
Heartbeat CPU 0 instructions: 390000062 cycles: 428276921 heartbeat IPC: 0.7927 cumulative IPC: 0.9106 (Simulation time: 00 hr 49 min 46 sec)
Heartbeat CPU 0 instructions: 400000062 cycles: 442575062 heartbeat IPC: 0.6994 cumulative IPC: 0.9038 (Simulation time: 00 hr 51 min 32 sec)
Heartbeat CPU 0 instructions: 410000062 cycles: 449412161 heartbeat IPC: 1.463 cumulative IPC: 0.9123 (Simulation time: 00 hr 52 min 30 sec)
Heartbeat CPU 0 instructions: 420000064 cycles: 456596428 heartbeat IPC: 1.392 cumulative IPC: 0.9198 (Simulation time: 00 hr 53 min 32 sec)
Heartbeat CPU 0 instructions: 430000067 cycles: 465218030 heartbeat IPC: 1.16 cumulative IPC: 0.9243 (Simulation time: 00 hr 54 min 41 sec)
Heartbeat CPU 0 instructions: 440000067 cycles: 474217851 heartbeat IPC: 1.111 cumulative IPC: 0.9278 (Simulation time: 00 hr 56 min 04 sec)
Heartbeat CPU 0 instructions: 450000067 cycles: 482846729 heartbeat IPC: 1.159 cumulative IPC: 0.932 (Simulation time: 00 hr 57 min 10 sec)
Heartbeat CPU 0 instructions: 460000069 cycles: 491518237 heartbeat IPC: 1.153 cumulative IPC: 0.9359 (Simulation time: 00 hr 58 min 13 sec)
Heartbeat CPU 0 instructions: 470000073 cycles: 500196363 heartbeat IPC: 1.152 cumulative IPC: 0.9396 (Simulation time: 00 hr 59 min 18 sec)
Heartbeat CPU 0 instructions: 480000074 cycles: 508986398 heartbeat IPC: 1.138 cumulative IPC: 0.9431 (Simulation time: 01 hr 00 min 30 sec)
Heartbeat CPU 0 instructions: 490000074 cycles: 517882177 heartbeat IPC: 1.124 cumulative IPC: 0.9462 (Simulation time: 01 hr 01 min 38 sec)
Heartbeat CPU 0 instructions: 500000076 cycles: 526502200 heartbeat IPC: 1.16 cumulative IPC: 0.9497 (Simulation time: 01 hr 03 min 02 sec)
Heartbeat CPU 0 instructions: 510000079 cycles: 535176000 heartbeat IPC: 1.153 cumulative IPC: 0.953 (Simulation time: 01 hr 04 min 13 sec)
Heartbeat CPU 0 instructions: 520000083 cycles: 543918160 heartbeat IPC: 1.144 cumulative IPC: 0.956 (Simulation time: 01 hr 05 min 42 sec)
Heartbeat CPU 0 instructions: 530000087 cycles: 552815361 heartbeat IPC: 1.124 cumulative IPC: 0.9587 (Simulation time: 01 hr 07 min 12 sec)
Heartbeat CPU 0 instructions: 540000087 cycles: 561496463 heartbeat IPC: 1.152 cumulative IPC: 0.9617 (Simulation time: 01 hr 08 min 40 sec)
Heartbeat CPU 0 instructions: 550000089 cycles: 570153661 heartbeat IPC: 1.155 cumulative IPC: 0.9647 (Simulation time: 01 hr 10 min 04 sec)
[ERROR_CYCLE] Error added at CPU cycle 570224455, next at 732264503, pending count: 1
[DRAM_CYCLE_ERROR] Cycle-based error applied! address=0x18f82f5a40 additional_latency=1990500 cycles
Heartbeat CPU 0 instructions: 560000093 cycles: 578879951 heartbeat IPC: 1.146 cumulative IPC: 0.9674 (Simulation time: 01 hr 11 min 29 sec)
Heartbeat CPU 0 instructions: 570000097 cycles: 587593090 heartbeat IPC: 1.148 cumulative IPC: 0.9701 (Simulation time: 01 hr 12 min 43 sec)
Heartbeat CPU 0 instructions: 580000100 cycles: 596576314 heartbeat IPC: 1.113 cumulative IPC: 0.9722 (Simulation time: 01 hr 14 min 08 sec)
Heartbeat CPU 0 instructions: 590000101 cycles: 605117468 heartbeat IPC: 1.171 cumulative IPC: 0.975 (Simulation time: 01 hr 15 min 32 sec)
Heartbeat CPU 0 instructions: 600000105 cycles: 613819821 heartbeat IPC: 1.149 cumulative IPC: 0.9775 (Simulation time: 01 hr 16 min 57 sec)
Heartbeat CPU 0 instructions: 610000107 cycles: 620829796 heartbeat IPC: 1.427 cumulative IPC: 0.9826 (Simulation time: 01 hr 18 min 10 sec)
Heartbeat CPU 0 instructions: 620000108 cycles: 627643779 heartbeat IPC: 1.468 cumulative IPC: 0.9878 (Simulation time: 01 hr 19 min 20 sec)
Heartbeat CPU 0 instructions: 630000109 cycles: 634445895 heartbeat IPC: 1.47 cumulative IPC: 0.993 (Simulation time: 01 hr 20 min 31 sec)
Heartbeat CPU 0 instructions: 640000109 cycles: 641260626 heartbeat IPC: 1.467 cumulative IPC: 0.998 (Simulation time: 01 hr 21 min 41 sec)
Heartbeat CPU 0 instructions: 650000113 cycles: 647891999 heartbeat IPC: 1.508 cumulative IPC: 1.003 (Simulation time: 01 hr 22 min 50 sec)
Heartbeat CPU 0 instructions: 660000113 cycles: 654465373 heartbeat IPC: 1.521 cumulative IPC: 1.008 (Simulation time: 01 hr 23 min 53 sec)
Heartbeat CPU 0 instructions: 670000114 cycles: 661043308 heartbeat IPC: 1.52 cumulative IPC: 1.014 (Simulation time: 01 hr 24 min 59 sec)
Heartbeat CPU 0 instructions: 680000118 cycles: 668484365 heartbeat IPC: 1.344 cumulative IPC: 1.017 (Simulation time: 01 hr 26 min 15 sec)
Heartbeat CPU 0 instructions: 690000120 cycles: 676060087 heartbeat IPC: 1.32 cumulative IPC: 1.021 (Simulation time: 01 hr 27 min 11 sec)
Heartbeat CPU 0 instructions: 700000120 cycles: 682611420 heartbeat IPC: 1.526 cumulative IPC: 1.025 (Simulation time: 01 hr 28 min 05 sec)
Heartbeat CPU 0 instructions: 710000123 cycles: 689795552 heartbeat IPC: 1.392 cumulative IPC: 1.029 (Simulation time: 01 hr 29 min 17 sec)
Heartbeat CPU 0 instructions: 720000125 cycles: 698769678 heartbeat IPC: 1.114 cumulative IPC: 1.03 (Simulation time: 01 hr 30 min 26 sec)
Heartbeat CPU 0 instructions: 730000125 cycles: 707422139 heartbeat IPC: 1.156 cumulative IPC: 1.032 (Simulation time: 01 hr 31 min 34 sec)
Heartbeat CPU 0 instructions: 740000128 cycles: 716095534 heartbeat IPC: 1.153 cumulative IPC: 1.033 (Simulation time: 01 hr 32 min 48 sec)
Heartbeat CPU 0 instructions: 750000129 cycles: 724780560 heartbeat IPC: 1.151 cumulative IPC: 1.035 (Simulation time: 01 hr 33 min 51 sec)
[ERROR_CYCLE] Error added at CPU cycle 732264504, next at 2055685120, pending count: 1
[DRAM_CYCLE_ERROR] Cycle-based error applied! address=0x62bc67d80 additional_latency=1990500 cycles
Heartbeat CPU 0 instructions: 760000129 cycles: 733518312 heartbeat IPC: 1.144 cumulative IPC: 1.036 (Simulation time: 01 hr 35 min 02 sec)
Heartbeat CPU 0 instructions: 770000130 cycles: 742487523 heartbeat IPC: 1.115 cumulative IPC: 1.037 (Simulation time: 01 hr 36 min 08 sec)
Heartbeat CPU 0 instructions: 780000133 cycles: 751001263 heartbeat IPC: 1.175 cumulative IPC: 1.039 (Simulation time: 01 hr 37 min 30 sec)
Heartbeat CPU 0 instructions: 790000136 cycles: 759673326 heartbeat IPC: 1.153 cumulative IPC: 1.04 (Simulation time: 01 hr 38 min 43 sec)
Heartbeat CPU 0 instructions: 800000136 cycles: 768391961 heartbeat IPC: 1.147 cumulative IPC: 1.041 (Simulation time: 01 hr 40 min 05 sec)
Heartbeat CPU 0 instructions: 810000136 cycles: 777247845 heartbeat IPC: 1.129 cumulative IPC: 1.042 (Simulation time: 01 hr 41 min 26 sec)
Heartbeat CPU 0 instructions: 820000139 cycles: 785914243 heartbeat IPC: 1.154 cumulative IPC: 1.043 (Simulation time: 01 hr 42 min 43 sec)
Heartbeat CPU 0 instructions: 830000143 cycles: 794585988 heartbeat IPC: 1.153 cumulative IPC: 1.045 (Simulation time: 01 hr 44 min 02 sec)
Heartbeat CPU 0 instructions: 840000143 cycles: 803251767 heartbeat IPC: 1.154 cumulative IPC: 1.046 (Simulation time: 01 hr 45 min 19 sec)
Heartbeat CPU 0 instructions: 850000144 cycles: 811920749 heartbeat IPC: 1.154 cumulative IPC: 1.047 (Simulation time: 01 hr 46 min 43 sec)
Heartbeat CPU 0 instructions: 860000145 cycles: 820914164 heartbeat IPC: 1.112 cumulative IPC: 1.048 (Simulation time: 01 hr 48 min 12 sec)
Heartbeat CPU 0 instructions: 870000148 cycles: 829411445 heartbeat IPC: 1.177 cumulative IPC: 1.049 (Simulation time: 01 hr 49 min 16 sec)
Heartbeat CPU 0 instructions: 880000152 cycles: 838086808 heartbeat IPC: 1.153 cumulative IPC: 1.05 (Simulation time: 01 hr 50 min 20 sec)
Heartbeat CPU 0 instructions: 890000155 cycles: 846749496 heartbeat IPC: 1.154 cumulative IPC: 1.051 (Simulation time: 01 hr 51 min 34 sec)
Heartbeat CPU 0 instructions: 900000156 cycles: 855555056 heartbeat IPC: 1.136 cumulative IPC: 1.052 (Simulation time: 01 hr 52 min 54 sec)
Heartbeat CPU 0 instructions: 910000156 cycles: 864277912 heartbeat IPC: 1.146 cumulative IPC: 1.053 (Simulation time: 01 hr 54 min 14 sec)
Heartbeat CPU 0 instructions: 920000159 cycles: 872932548 heartbeat IPC: 1.155 cumulative IPC: 1.054 (Simulation time: 01 hr 55 min 19 sec)
Heartbeat CPU 0 instructions: 930000159 cycles: 881574347 heartbeat IPC: 1.157 cumulative IPC: 1.055 (Simulation time: 01 hr 56 min 23 sec)
Heartbeat CPU 0 instructions: 940000161 cycles: 890220779 heartbeat IPC: 1.157 cumulative IPC: 1.056 (Simulation time: 01 hr 57 min 21 sec)
Heartbeat CPU 0 instructions: 950000161 cycles: 899216285 heartbeat IPC: 1.112 cumulative IPC: 1.056 (Simulation time: 01 hr 58 min 22 sec)
Heartbeat CPU 0 instructions: 960000163 cycles: 907780143 heartbeat IPC: 1.168 cumulative IPC: 1.058 (Simulation time: 01 hr 59 min 20 sec)
Heartbeat CPU 0 instructions: 970000164 cycles: 916464332 heartbeat IPC: 1.152 cumulative IPC: 1.058 (Simulation time: 02 hr 00 min 18 sec)
Heartbeat CPU 0 instructions: 980000164 cycles: 925156933 heartbeat IPC: 1.15 cumulative IPC: 1.059 (Simulation time: 02 hr 01 min 17 sec)
Heartbeat CPU 0 instructions: 990000166 cycles: 933933926 heartbeat IPC: 1.139 cumulative IPC: 1.06 (Simulation time: 02 hr 02 min 33 sec)
Heartbeat CPU 0 instructions: 1000000170 cycles: 942756981 heartbeat IPC: 1.133 cumulative IPC: 1.061 (Simulation time: 02 hr 04 min 02 sec)
Heartbeat CPU 0 instructions: 1010000172 cycles: 951374044 heartbeat IPC: 1.16 cumulative IPC: 1.062 (Simulation time: 02 hr 05 min 21 sec)
Heartbeat CPU 0 instructions: 1020000172 cycles: 960051098 heartbeat IPC: 1.152 cumulative IPC: 1.062 (Simulation time: 02 hr 06 min 49 sec)
Heartbeat CPU 0 instructions: 1030000174 cycles: 968698305 heartbeat IPC: 1.156 cumulative IPC: 1.063 (Simulation time: 02 hr 08 min 16 sec)
Heartbeat CPU 0 instructions: 1040000175 cycles: 977641303 heartbeat IPC: 1.118 cumulative IPC: 1.064 (Simulation time: 02 hr 09 min 45 sec)
Heartbeat CPU 0 instructions: 1050000178 cycles: 986283584 heartbeat IPC: 1.157 cumulative IPC: 1.065 (Simulation time: 02 hr 11 min 13 sec)
Heartbeat CPU 0 instructions: 1060000182 cycles: 994975314 heartbeat IPC: 1.151 cumulative IPC: 1.065 (Simulation time: 02 hr 12 min 40 sec)
Heartbeat CPU 0 instructions: 1070000182 cycles: 1003650600 heartbeat IPC: 1.153 cumulative IPC: 1.066 (Simulation time: 02 hr 14 min 08 sec)
Heartbeat CPU 0 instructions: 1080000186 cycles: 1012383326 heartbeat IPC: 1.145 cumulative IPC: 1.067 (Simulation time: 02 hr 15 min 36 sec)
Heartbeat CPU 0 instructions: 1090000187 cycles: 1021358641 heartbeat IPC: 1.114 cumulative IPC: 1.067 (Simulation time: 02 hr 17 min 06 sec)
Heartbeat CPU 0 instructions: 1100000191 cycles: 1029922564 heartbeat IPC: 1.168 cumulative IPC: 1.068 (Simulation time: 02 hr 18 min 32 sec)
Heartbeat CPU 0 instructions: 1110000194 cycles: 1038615195 heartbeat IPC: 1.15 cumulative IPC: 1.069 (Simulation time: 02 hr 20 min 00 sec)
Heartbeat CPU 0 instructions: 1120000198 cycles: 1047318367 heartbeat IPC: 1.149 cumulative IPC: 1.069 (Simulation time: 02 hr 21 min 28 sec)
Heartbeat CPU 0 instructions: 1130000200 cycles: 1056215026 heartbeat IPC: 1.124 cumulative IPC: 1.07 (Simulation time: 02 hr 22 min 57 sec)
Heartbeat CPU 0 instructions: 1140000200 cycles: 1064916518 heartbeat IPC: 1.149 cumulative IPC: 1.071 (Simulation time: 02 hr 24 min 25 sec)
Heartbeat CPU 0 instructions: 1150000201 cycles: 1073607345 heartbeat IPC: 1.151 cumulative IPC: 1.071 (Simulation time: 02 hr 25 min 53 sec)
Heartbeat CPU 0 instructions: 1160000202 cycles: 1082280719 heartbeat IPC: 1.153 cumulative IPC: 1.072 (Simulation time: 02 hr 27 min 21 sec)
Heartbeat CPU 0 instructions: 1170000204 cycles: 1091006652 heartbeat IPC: 1.146 cumulative IPC: 1.072 (Simulation time: 02 hr 28 min 49 sec)
Heartbeat CPU 0 instructions: 1180000204 cycles: 1099989701 heartbeat IPC: 1.113 cumulative IPC: 1.073 (Simulation time: 02 hr 30 min 19 sec)
Heartbeat CPU 0 instructions: 1190000204 cycles: 1108548011 heartbeat IPC: 1.168 cumulative IPC: 1.073 (Simulation time: 02 hr 31 min 46 sec)
Heartbeat CPU 0 instructions: 1200000206 cycles: 1117205651 heartbeat IPC: 1.155 cumulative IPC: 1.074 (Simulation time: 02 hr 33 min 13 sec)
Heartbeat CPU 0 instructions: 1210000208 cycles: 1125904308 heartbeat IPC: 1.15 cumulative IPC: 1.075 (Simulation time: 02 hr 34 min 42 sec)
Heartbeat CPU 0 instructions: 1220000211 cycles: 1134717126 heartbeat IPC: 1.135 cumulative IPC: 1.075 (Simulation time: 02 hr 35 min 59 sec)
Heartbeat CPU 0 instructions: 1230000213 cycles: 1143463331 heartbeat IPC: 1.143 cumulative IPC: 1.076 (Simulation time: 02 hr 37 min 06 sec)
Heartbeat CPU 0 instructions: 1240000214 cycles: 1152134447 heartbeat IPC: 1.153 cumulative IPC: 1.076 (Simulation time: 02 hr 38 min 18 sec)
Heartbeat CPU 0 instructions: 1250000215 cycles: 1160803707 heartbeat IPC: 1.154 cumulative IPC: 1.077 (Simulation time: 02 hr 39 min 23 sec)
Heartbeat CPU 0 instructions: 1260000219 cycles: 1169484604 heartbeat IPC: 1.152 cumulative IPC: 1.077 (Simulation time: 02 hr 40 min 34 sec)
Heartbeat CPU 0 instructions: 1270000221 cycles: 1178479705 heartbeat IPC: 1.112 cumulative IPC: 1.078 (Simulation time: 02 hr 41 min 32 sec)
Heartbeat CPU 0 instructions: 1280000223 cycles: 1187057708 heartbeat IPC: 1.166 cumulative IPC: 1.078 (Simulation time: 02 hr 42 min 54 sec)
Heartbeat CPU 0 instructions: 1290000223 cycles: 1195724718 heartbeat IPC: 1.154 cumulative IPC: 1.079 (Simulation time: 02 hr 44 min 13 sec)
Heartbeat CPU 0 instructions: 1300000223 cycles: 1204413599 heartbeat IPC: 1.151 cumulative IPC: 1.079 (Simulation time: 02 hr 45 min 37 sec)
Heartbeat CPU 0 instructions: 1310000225 cycles: 1213180665 heartbeat IPC: 1.141 cumulative IPC: 1.08 (Simulation time: 02 hr 47 min 07 sec)
Heartbeat CPU 0 instructions: 1320000227 cycles: 1222017430 heartbeat IPC: 1.132 cumulative IPC: 1.08 (Simulation time: 02 hr 48 min 28 sec)
Heartbeat CPU 0 instructions: 1330000227 cycles: 1230635587 heartbeat IPC: 1.16 cumulative IPC: 1.081 (Simulation time: 02 hr 49 min 42 sec)
Heartbeat CPU 0 instructions: 1340000230 cycles: 1239332915 heartbeat IPC: 1.15 cumulative IPC: 1.081 (Simulation time: 02 hr 51 min 12 sec)
Heartbeat CPU 0 instructions: 1350000233 cycles: 1247969522 heartbeat IPC: 1.158 cumulative IPC: 1.082 (Simulation time: 02 hr 52 min 40 sec)
Heartbeat CPU 0 instructions: 1360000236 cycles: 1256924323 heartbeat IPC: 1.117 cumulative IPC: 1.082 (Simulation time: 02 hr 54 min 11 sec)
Heartbeat CPU 0 instructions: 1370000237 cycles: 1265542031 heartbeat IPC: 1.16 cumulative IPC: 1.083 (Simulation time: 02 hr 55 min 40 sec)
Heartbeat CPU 0 instructions: 1380000237 cycles: 1274226532 heartbeat IPC: 1.151 cumulative IPC: 1.083 (Simulation time: 02 hr 57 min 10 sec)
Heartbeat CPU 0 instructions: 1390000238 cycles: 1282881961 heartbeat IPC: 1.155 cumulative IPC: 1.083 (Simulation time: 02 hr 58 min 39 sec)
Heartbeat CPU 0 instructions: 1400000238 cycles: 1291627057 heartbeat IPC: 1.143 cumulative IPC: 1.084 (Simulation time: 03 hr 00 min 09 sec)
Heartbeat CPU 0 instructions: 1410000239 cycles: 1300544375 heartbeat IPC: 1.121 cumulative IPC: 1.084 (Simulation time: 03 hr 01 min 40 sec)
Heartbeat CPU 0 instructions: 1420000239 cycles: 1309108074 heartbeat IPC: 1.168 cumulative IPC: 1.085 (Simulation time: 03 hr 03 min 08 sec)
Heartbeat CPU 0 instructions: 1430000243 cycles: 1317758835 heartbeat IPC: 1.156 cumulative IPC: 1.085 (Simulation time: 03 hr 04 min 37 sec)
Heartbeat CPU 0 instructions: 1440000247 cycles: 1326458864 heartbeat IPC: 1.149 cumulative IPC: 1.086 (Simulation time: 03 hr 05 min 52 sec)
Heartbeat CPU 0 instructions: 1450000248 cycles: 1332955588 heartbeat IPC: 1.539 cumulative IPC: 1.088 (Simulation time: 03 hr 07 min 02 sec)
Heartbeat CPU 0 instructions: 1460000250 cycles: 1339476732 heartbeat IPC: 1.533 cumulative IPC: 1.09 (Simulation time: 03 hr 08 min 12 sec)
Heartbeat CPU 0 instructions: 1470000250 cycles: 1346014770 heartbeat IPC: 1.53 cumulative IPC: 1.092 (Simulation time: 03 hr 09 min 22 sec)
Heartbeat CPU 0 instructions: 1480000251 cycles: 1352526297 heartbeat IPC: 1.536 cumulative IPC: 1.094 (Simulation time: 03 hr 10 min 12 sec)
Heartbeat CPU 0 instructions: 1490000254 cycles: 1359051225 heartbeat IPC: 1.533 cumulative IPC: 1.096 (Simulation time: 03 hr 11 min 08 sec)
Heartbeat CPU 0 instructions: 1500000258 cycles: 1365564152 heartbeat IPC: 1.535 cumulative IPC: 1.098 (Simulation time: 03 hr 11 min 55 sec)
Heartbeat CPU 0 instructions: 1510000260 cycles: 1372119062 heartbeat IPC: 1.526 cumulative IPC: 1.1 (Simulation time: 03 hr 12 min 48 sec)
Heartbeat CPU 0 instructions: 1520000261 cycles: 1378640009 heartbeat IPC: 1.534 cumulative IPC: 1.103 (Simulation time: 03 hr 13 min 55 sec)
Heartbeat CPU 0 instructions: 1530000261 cycles: 1385179313 heartbeat IPC: 1.529 cumulative IPC: 1.105 (Simulation time: 03 hr 14 min 41 sec)
Heartbeat CPU 0 instructions: 1540000261 cycles: 1391705407 heartbeat IPC: 1.532 cumulative IPC: 1.107 (Simulation time: 03 hr 15 min 32 sec)
Heartbeat CPU 0 instructions: 1550000261 cycles: 1398252298 heartbeat IPC: 1.527 cumulative IPC: 1.109 (Simulation time: 03 hr 16 min 18 sec)
Heartbeat CPU 0 instructions: 1560000262 cycles: 1404766985 heartbeat IPC: 1.535 cumulative IPC: 1.111 (Simulation time: 03 hr 17 min 04 sec)
Heartbeat CPU 0 instructions: 1570000266 cycles: 1411223592 heartbeat IPC: 1.549 cumulative IPC: 1.113 (Simulation time: 03 hr 17 min 49 sec)
Heartbeat CPU 0 instructions: 1580000270 cycles: 1417304717 heartbeat IPC: 1.644 cumulative IPC: 1.115 (Simulation time: 03 hr 18 min 33 sec)
Heartbeat CPU 0 instructions: 1590000273 cycles: 1423723899 heartbeat IPC: 1.558 cumulative IPC: 1.117 (Simulation time: 03 hr 19 min 37 sec)
Heartbeat CPU 0 instructions: 1600000273 cycles: 1430228944 heartbeat IPC: 1.537 cumulative IPC: 1.119 (Simulation time: 03 hr 20 min 48 sec)
Heartbeat CPU 0 instructions: 1610000275 cycles: 1436745496 heartbeat IPC: 1.535 cumulative IPC: 1.121 (Simulation time: 03 hr 21 min 58 sec)
Heartbeat CPU 0 instructions: 1620000276 cycles: 1443262330 heartbeat IPC: 1.534 cumulative IPC: 1.122 (Simulation time: 03 hr 23 min 09 sec)
Heartbeat CPU 0 instructions: 1630000277 cycles: 1449797601 heartbeat IPC: 1.53 cumulative IPC: 1.124 (Simulation time: 03 hr 24 min 19 sec)
Heartbeat CPU 0 instructions: 1640000279 cycles: 1456340291 heartbeat IPC: 1.528 cumulative IPC: 1.126 (Simulation time: 03 hr 25 min 29 sec)
Heartbeat CPU 0 instructions: 1650000283 cycles: 1462857631 heartbeat IPC: 1.534 cumulative IPC: 1.128 (Simulation time: 03 hr 26 min 39 sec)
Heartbeat CPU 0 instructions: 1660000283 cycles: 1469383461 heartbeat IPC: 1.532 cumulative IPC: 1.13 (Simulation time: 03 hr 27 min 49 sec)
Heartbeat CPU 0 instructions: 1670000283 cycles: 1475915226 heartbeat IPC: 1.531 cumulative IPC: 1.132 (Simulation time: 03 hr 28 min 59 sec)
Heartbeat CPU 0 instructions: 1680000284 cycles: 1482460365 heartbeat IPC: 1.528 cumulative IPC: 1.133 (Simulation time: 03 hr 30 min 08 sec)
Heartbeat CPU 0 instructions: 1690000284 cycles: 1488976171 heartbeat IPC: 1.535 cumulative IPC: 1.135 (Simulation time: 03 hr 31 min 17 sec)
Heartbeat CPU 0 instructions: 1700000285 cycles: 1495523879 heartbeat IPC: 1.527 cumulative IPC: 1.137 (Simulation time: 03 hr 32 min 06 sec)
Heartbeat CPU 0 instructions: 1710000285 cycles: 1502058086 heartbeat IPC: 1.53 cumulative IPC: 1.138 (Simulation time: 03 hr 32 min 51 sec)
Heartbeat CPU 0 instructions: 1720000287 cycles: 1508348855 heartbeat IPC: 1.59 cumulative IPC: 1.14 (Simulation time: 03 hr 33 min 35 sec)
Heartbeat CPU 0 instructions: 1730000291 cycles: 1514475832 heartbeat IPC: 1.632 cumulative IPC: 1.142 (Simulation time: 03 hr 34 min 21 sec)
Heartbeat CPU 0 instructions: 1740000293 cycles: 1521011388 heartbeat IPC: 1.53 cumulative IPC: 1.144 (Simulation time: 03 hr 35 min 06 sec)
Heartbeat CPU 0 instructions: 1750000293 cycles: 1527524110 heartbeat IPC: 1.535 cumulative IPC: 1.146 (Simulation time: 03 hr 35 min 50 sec)
Heartbeat CPU 0 instructions: 1760000297 cycles: 1534044315 heartbeat IPC: 1.534 cumulative IPC: 1.147 (Simulation time: 03 hr 36 min 35 sec)
Heartbeat CPU 0 instructions: 1770000297 cycles: 1540569012 heartbeat IPC: 1.533 cumulative IPC: 1.149 (Simulation time: 03 hr 37 min 29 sec)
Heartbeat CPU 0 instructions: 1780000300 cycles: 1547105533 heartbeat IPC: 1.53 cumulative IPC: 1.151 (Simulation time: 03 hr 38 min 20 sec)
Heartbeat CPU 0 instructions: 1790000301 cycles: 1553628847 heartbeat IPC: 1.533 cumulative IPC: 1.152 (Simulation time: 03 hr 39 min 27 sec)
Heartbeat CPU 0 instructions: 1800000305 cycles: 1560167205 heartbeat IPC: 1.529 cumulative IPC: 1.154 (Simulation time: 03 hr 40 min 25 sec)
Heartbeat CPU 0 instructions: 1810000307 cycles: 1566713109 heartbeat IPC: 1.528 cumulative IPC: 1.155 (Simulation time: 03 hr 41 min 10 sec)
Heartbeat CPU 0 instructions: 1820000307 cycles: 1573234488 heartbeat IPC: 1.533 cumulative IPC: 1.157 (Simulation time: 03 hr 41 min 55 sec)
Heartbeat CPU 0 instructions: 1830000307 cycles: 1579755812 heartbeat IPC: 1.533 cumulative IPC: 1.158 (Simulation time: 03 hr 42 min 42 sec)
Heartbeat CPU 0 instructions: 1840000308 cycles: 1586273879 heartbeat IPC: 1.534 cumulative IPC: 1.16 (Simulation time: 03 hr 43 min 49 sec)
Heartbeat CPU 0 instructions: 1850000310 cycles: 1592802123 heartbeat IPC: 1.532 cumulative IPC: 1.161 (Simulation time: 03 hr 44 min 55 sec)
Heartbeat CPU 0 instructions: 1860000312 cycles: 1599373027 heartbeat IPC: 1.522 cumulative IPC: 1.163 (Simulation time: 03 hr 45 min 41 sec)
Heartbeat CPU 0 instructions: 1870000316 cycles: 1605485229 heartbeat IPC: 1.636 cumulative IPC: 1.165 (Simulation time: 03 hr 46 min 26 sec)
Heartbeat CPU 0 instructions: 1880000318 cycles: 1611774710 heartbeat IPC: 1.59 cumulative IPC: 1.166 (Simulation time: 03 hr 47 min 10 sec)
Heartbeat CPU 0 instructions: 1890000320 cycles: 1618288210 heartbeat IPC: 1.535 cumulative IPC: 1.168 (Simulation time: 03 hr 47 min 55 sec)
Heartbeat CPU 0 instructions: 1900000320 cycles: 1624808034 heartbeat IPC: 1.534 cumulative IPC: 1.169 (Simulation time: 03 hr 48 min 40 sec)
Heartbeat CPU 0 instructions: 1910000322 cycles: 1631322330 heartbeat IPC: 1.535 cumulative IPC: 1.171 (Simulation time: 03 hr 49 min 27 sec)
Heartbeat CPU 0 instructions: 1920000323 cycles: 1637852745 heartbeat IPC: 1.531 cumulative IPC: 1.172 (Simulation time: 03 hr 50 min 12 sec)
Heartbeat CPU 0 instructions: 1930000326 cycles: 1644369513 heartbeat IPC: 1.535 cumulative IPC: 1.174 (Simulation time: 03 hr 50 min 57 sec)
Heartbeat CPU 0 instructions: 1940000326 cycles: 1650925200 heartbeat IPC: 1.525 cumulative IPC: 1.175 (Simulation time: 03 hr 51 min 41 sec)
Heartbeat CPU 0 instructions: 1950000328 cycles: 1657442225 heartbeat IPC: 1.534 cumulative IPC: 1.177 (Simulation time: 03 hr 52 min 26 sec)
Heartbeat CPU 0 instructions: 1960000330 cycles: 1663984020 heartbeat IPC: 1.529 cumulative IPC: 1.178 (Simulation time: 03 hr 53 min 11 sec)
Heartbeat CPU 0 instructions: 1970000331 cycles: 1670512266 heartbeat IPC: 1.532 cumulative IPC: 1.179 (Simulation time: 03 hr 53 min 55 sec)
Heartbeat CPU 0 instructions: 1980000334 cycles: 1677053111 heartbeat IPC: 1.529 cumulative IPC: 1.181 (Simulation time: 03 hr 54 min 40 sec)
Heartbeat CPU 0 instructions: 1990000336 cycles: 1683587338 heartbeat IPC: 1.53 cumulative IPC: 1.182 (Simulation time: 03 hr 55 min 25 sec)

=== ERROR PAGE STATISTICS ===
Mode: CYCLE
Error Cycle Interval: 800000000 CPU cycles
Total Error Accesses: 2
==============================
Simulation finished CPU 0 instructions: 1999999509 cycles: 1690112050 cumulative IPC: 1.183 (Simulation time: 03 hr 56 min 10 sec)
Simulation complete CPU 0 instructions: 1999999509 cycles: 1690112050 cumulative IPC: 1.183 (Simulation time: 03 hr 56 min 10 sec)

ChampSim completed all CPUs

=== Simulation ===
CPU 0 runs test_traces/654.roms_s-1007B.champsimtrace.xz

Region of Interest Statistics

CPU 0 cumulative IPC: 1.183 instructions: 1999999509 cycles: 1690112050
CPU 0 Branch Prediction Accuracy: 95.85% MPKI: 3.086 Average ROB Occupancy at Mispredict: 45.56
Branch type MPKI
BRANCH_DIRECT_JUMP: 9.8e-05
BRANCH_INDIRECT: 6e-06
BRANCH_CONDITIONAL: 1.593
BRANCH_DIRECT_CALL: 3.65e-05
BRANCH_INDIRECT_CALL: 0
BRANCH_RETURN: 1.493

cpu0->cpu0_STLB TOTAL        ACCESS:   39022119 HIT:   39021239 MISS:        880 MSHR_MERGE:          0
cpu0->cpu0_STLB LOAD         ACCESS:   39022119 HIT:   39021239 MISS:        880 MSHR_MERGE:          0
cpu0->cpu0_STLB RFO          ACCESS:          0 HIT:          0 MISS:          0 MSHR_MERGE:          0
cpu0->cpu0_STLB PREFETCH     ACCESS:          0 HIT:          0 MISS:          0 MSHR_MERGE:          0
cpu0->cpu0_STLB WRITE        ACCESS:          0 HIT:          0 MISS:          0 MSHR_MERGE:          0
cpu0->cpu0_STLB TRANSLATION  ACCESS:          0 HIT:          0 MISS:          0 MSHR_MERGE:          0
cpu0->cpu0_STLB PREFETCH REQUESTED:          0 ISSUED:          0 USEFUL:          0 USELESS:          0
cpu0->cpu0_STLB AVERAGE MISS LATENCY: 8740 cycles
cpu0->cpu0_L2C TOTAL        ACCESS:   35187817 HIT:   15858870 MISS:   19328947 MSHR_MERGE:          0
cpu0->cpu0_L2C LOAD         ACCESS:   22563614 HIT:    7672356 MISS:   14891258 MSHR_MERGE:          0
cpu0->cpu0_L2C RFO          ACCESS:    5289540 HIT:     857679 MISS:    4431861 MSHR_MERGE:          0
cpu0->cpu0_L2C PREFETCH     ACCESS:          0 HIT:          0 MISS:          0 MSHR_MERGE:          0
cpu0->cpu0_L2C WRITE        ACCESS:    7334663 HIT:    7328835 MISS:       5828 MSHR_MERGE:          0
cpu0->cpu0_L2C TRANSLATION  ACCESS:          0 HIT:          0 MISS:          0 MSHR_MERGE:          0
cpu0->cpu0_L2C PREFETCH REQUESTED:          0 ISSUED:          0 USEFUL:          0 USELESS:          0
cpu0->cpu0_L2C AVERAGE MISS LATENCY: 62.28 cycles
cpu0->cpu0_L1I TOTAL        ACCESS:  419296808 HIT:  419296203 MISS:        605 MSHR_MERGE:        192
cpu0->cpu0_L1I LOAD         ACCESS:  419296808 HIT:  419296203 MISS:        605 MSHR_MERGE:        192
cpu0->cpu0_L1I RFO          ACCESS:          0 HIT:          0 MISS:          0 MSHR_MERGE:          0
cpu0->cpu0_L1I PREFETCH     ACCESS:          0 HIT:          0 MISS:          0 MSHR_MERGE:          0
cpu0->cpu0_L1I WRITE        ACCESS:          0 HIT:          0 MISS:          0 MSHR_MERGE:          0
cpu0->cpu0_L1I TRANSLATION  ACCESS:          0 HIT:          0 MISS:          0 MSHR_MERGE:          0
cpu0->cpu0_L1I PREFETCH REQUESTED:          0 ISSUED:          0 USEFUL:          0 USELESS:          0
cpu0->cpu0_L1I AVERAGE MISS LATENCY: 122.3 cycles
cpu0->cpu0_L1D TOTAL        ACCESS:  768695727 HIT:  729971644 MISS:   38724083 MSHR_MERGE:   10870807
cpu0->cpu0_L1D LOAD         ACCESS:  587616584 HIT:  557891331 MISS:   29725253 MSHR_MERGE:    7162042
cpu0->cpu0_L1D RFO          ACCESS:          0 HIT:          0 MISS:          0 MSHR_MERGE:          0
cpu0->cpu0_L1D PREFETCH     ACCESS:          0 HIT:          0 MISS:          0 MSHR_MERGE:          0
cpu0->cpu0_L1D WRITE        ACCESS:  181079143 HIT:  172080313 MISS:    8998830 MSHR_MERGE:    3708765
cpu0->cpu0_L1D TRANSLATION  ACCESS:          0 HIT:          0 MISS:          0 MSHR_MERGE:          0
cpu0->cpu0_L1D PREFETCH REQUESTED:          0 ISSUED:          0 USEFUL:          0 USELESS:          0
cpu0->cpu0_L1D AVERAGE MISS LATENCY: 51.97 cycles
cpu0->cpu0_ITLB TOTAL        ACCESS:  364640119 HIT:  364640118 MISS:          1 MSHR_MERGE:          0
cpu0->cpu0_ITLB LOAD         ACCESS:  364640119 HIT:  364640118 MISS:          1 MSHR_MERGE:          0
cpu0->cpu0_ITLB RFO          ACCESS:          0 HIT:          0 MISS:          0 MSHR_MERGE:          0
cpu0->cpu0_ITLB PREFETCH     ACCESS:          0 HIT:          0 MISS:          0 MSHR_MERGE:          0
cpu0->cpu0_ITLB WRITE        ACCESS:          0 HIT:          0 MISS:          0 MSHR_MERGE:          0
cpu0->cpu0_ITLB TRANSLATION  ACCESS:          0 HIT:          0 MISS:          0 MSHR_MERGE:          0
cpu0->cpu0_ITLB PREFETCH REQUESTED:          0 ISSUED:          0 USEFUL:          0 USELESS:          0
cpu0->cpu0_ITLB AVERAGE MISS LATENCY: 1.722e+04 cycles
cpu0->cpu0_DTLB TOTAL        ACCESS:  653279600 HIT:  614238897 MISS:   39040703 MSHR_MERGE:      18585
cpu0->cpu0_DTLB LOAD         ACCESS:  653279600 HIT:  614238897 MISS:   39040703 MSHR_MERGE:      18585
cpu0->cpu0_DTLB RFO          ACCESS:          0 HIT:          0 MISS:          0 MSHR_MERGE:          0
cpu0->cpu0_DTLB PREFETCH     ACCESS:          0 HIT:          0 MISS:          0 MSHR_MERGE:          0
cpu0->cpu0_DTLB WRITE        ACCESS:          0 HIT:          0 MISS:          0 MSHR_MERGE:          0
cpu0->cpu0_DTLB TRANSLATION  ACCESS:          0 HIT:          0 MISS:          0 MSHR_MERGE:          0
cpu0->cpu0_DTLB PREFETCH REQUESTED:          0 ISSUED:          0 USEFUL:          0 USELESS:          0
cpu0->cpu0_DTLB AVERAGE MISS LATENCY: 5.22 cycles
cpu0->LLC TOTAL        ACCESS:   25251970 HIT:   16383791 MISS:    8868179 MSHR_MERGE:          0
cpu0->LLC LOAD         ACCESS:   14891258 HIT:    7671919 MISS:    7219339 MSHR_MERGE:          0
cpu0->LLC RFO          ACCESS:    4431861 HIT:    2788345 MISS:    1643516 MSHR_MERGE:          0
cpu0->LLC PREFETCH     ACCESS:          0 HIT:          0 MISS:          0 MSHR_MERGE:          0
cpu0->LLC WRITE        ACCESS:    5928851 HIT:    5923527 MISS:       5324 MSHR_MERGE:          0
cpu0->LLC TRANSLATION  ACCESS:          0 HIT:          0 MISS:          0 MSHR_MERGE:          0
cpu0->LLC PREFETCH REQUESTED:          0 ISSUED:          0 USEFUL:          0 USELESS:          0
cpu0->LLC AVERAGE MISS LATENCY: 102.1 cycles

DRAM Statistics

Channel 0 RQ ROW_BUFFER_HIT:      77786
  ROW_BUFFER_MISS:    4353847
  AVG DBUS CONGESTED CYCLE: 11.47
Channel 0 WQ ROW_BUFFER_HIT:     180037
  ROW_BUFFER_MISS:     678330
  FULL:          0
Channel 0 REFRESHES ISSUED:     140833

Channel 1 RQ ROW_BUFFER_HIT:      77598
  ROW_BUFFER_MISS:    4355249
  AVG DBUS CONGESTED CYCLE: 11.46
Channel 1 WQ ROW_BUFFER_HIT:     179574
  ROW_BUFFER_MISS:     678522
  FULL:          0
Channel 1 REFRESHES ISSUED:     140833
