[VMEM] WARNING: physical memory size is smaller than virtual memory size.

*** ChampSim Multicore Out-of-Order Simulator ***
Warmup Instructions: 0
Simulation Instructions: 9223372036854775807
Number of CPUs: 1
Page size: 4096

Off-chip DRAM Size: 32 GiB Channels: 2 Width: 32-bit Data Rate: 4807 MT/s
[ERROR_PAGE_MANAGER] Error latency: 173500 
[ERROR_PAGE_MANAGER] Random seed: 54321 (fixed for preload reproducibility)
[ERROR_PAGE_MANAGER] Cycle-based error modeling enabled
[ERROR_PAGE_MANAGER] Errors per interval: 1
[ERROR_PAGE_MANAGER] Error cycle interval: 20000000 cycles

=== ERROR PAGE STATISTICS ===
Mode: CYCLE
Error Cycle Interval: 20000000 CPU cycles
Total Error Accesses: 0
==============================
Warmup finished CPU 0 instructions: 0 cycles: 1 cumulative IPC: 0 (Simulation time: 00 hr 00 min 00 sec)
Warmup complete CPU 0 instructions: 0 cycles: 1 cumulative IPC: 0 (Simulation time: 00 hr 00 min 00 sec)
[ERROR_CYCLE] Error added at CPU cycle 14255611, next at 18306612, pending count: 1
[DRAM_CYCLE_ERROR] Cycle-based error applied! address=0x3b90278d8 additional_latency=173500 cycles
[ERROR_CYCLE] Error added at CPU cycle 18306612, next at 51392127, pending count: 1
[DRAM_CYCLE_ERROR] Cycle-based error applied! address=0x67bd1a9a8 additional_latency=173500 cycles
Heartbeat CPU 0 instructions: 10000003 cycles: 30922939 heartbeat IPC: 0.3234 cumulative IPC: 0.3234 (Simulation time: 00 hr 03 min 22 sec)
[ERROR_CYCLE] Error added at CPU cycle 51392127, next at 106935378, pending count: 1
[DRAM_CYCLE_ERROR] Cycle-based error applied! address=0x56c54d670 additional_latency=173500 cycles
Heartbeat CPU 0 instructions: 20000007 cycles: 58537059 heartbeat IPC: 0.3621 cumulative IPC: 0.3417 (Simulation time: 00 hr 06 min 24 sec)
Heartbeat CPU 0 instructions: 30000008 cycles: 84228774 heartbeat IPC: 0.3892 cumulative IPC: 0.3562 (Simulation time: 00 hr 09 min 15 sec)
[ERROR_CYCLE] Error added at CPU cycle 106935379, next at 107536449, pending count: 1
[DRAM_CYCLE_ERROR] Cycle-based error applied! address=0x484540248 additional_latency=173500 cycles
[ERROR_CYCLE] Error added at CPU cycle 107536449, next at 138277283, pending count: 1
[DRAM_CYCLE_ERROR] Cycle-based error applied! address=0x6f7254c80 additional_latency=173500 cycles
Heartbeat CPU 0 instructions: 40000008 cycles: 110143839 heartbeat IPC: 0.3859 cumulative IPC: 0.3632 (Simulation time: 00 hr 12 min 04 sec)
Heartbeat CPU 0 instructions: 50000008 cycles: 135527412 heartbeat IPC: 0.394 cumulative IPC: 0.3689 (Simulation time: 00 hr 14 min 28 sec)
[ERROR_CYCLE] Error added at CPU cycle 138277283, next at 141856885, pending count: 1
[DRAM_CYCLE_ERROR] Cycle-based error applied! address=0x5adfddb28 additional_latency=173500 cycles
[ERROR_CYCLE] Error added at CPU cycle 141856885, next at 153234841, pending count: 1
[DRAM_CYCLE_ERROR] Cycle-based error applied! address=0x1c576e410 additional_latency=173500 cycles
[ERROR_CYCLE] Error added at CPU cycle 153234841, next at 170313718, pending count: 1
[DRAM_CYCLE_ERROR] Cycle-based error applied! address=0x267bf5648 additional_latency=173500 cycles
Heartbeat CPU 0 instructions: 60000011 cycles: 159663481 heartbeat IPC: 0.4143 cumulative IPC: 0.3758 (Simulation time: 00 hr 17 min 02 sec)
[ERROR_CYCLE] Error added at CPU cycle 170313718, next at 175206749, pending count: 1
[DRAM_CYCLE_ERROR] Cycle-based error applied! address=0x558555c10 additional_latency=173500 cycles
[ERROR_CYCLE] Error added at CPU cycle 175206749, next at 210725907, pending count: 1
[DRAM_CYCLE_ERROR] Cycle-based error applied! address=0x65d6c8d28 additional_latency=173500 cycles
Heartbeat CPU 0 instructions: 70000011 cycles: 184085781 heartbeat IPC: 0.4095 cumulative IPC: 0.3803 (Simulation time: 00 hr 19 min 48 sec)
Heartbeat CPU 0 instructions: 80000012 cycles: 208190539 heartbeat IPC: 0.4149 cumulative IPC: 0.3843 (Simulation time: 00 hr 22 min 33 sec)
[ERROR_CYCLE] Error added at CPU cycle 210725908, next at 217846273, pending count: 1
[DRAM_CYCLE_ERROR] Cycle-based error applied! address=0x9f1c430 additional_latency=173500 cycles
[ERROR_CYCLE] Error added at CPU cycle 217846274, next at 226797996, pending count: 1
[DRAM_CYCLE_ERROR] Cycle-based error applied! address=0x13682fb40 additional_latency=173500 cycles
[ERROR_CYCLE] Error added at CPU cycle 226797996, next at 267503668, pending count: 1
[DRAM_CYCLE_ERROR] Cycle-based error applied! address=0x62f7d1958 additional_latency=173500 cycles
Heartbeat CPU 0 instructions: 90000013 cycles: 231981501 heartbeat IPC: 0.4203 cumulative IPC: 0.388 (Simulation time: 00 hr 25 min 04 sec)
Heartbeat CPU 0 instructions: 100000016 cycles: 255555681 heartbeat IPC: 0.4242 cumulative IPC: 0.3913 (Simulation time: 00 hr 27 min 43 sec)
[ERROR_CYCLE] Error added at CPU cycle 267503668, next at 267748717, pending count: 1
[DRAM_CYCLE_ERROR] Cycle-based error applied! address=0x2c2cd1550 additional_latency=173500 cycles
[ERROR_CYCLE] Error added at CPU cycle 267748717, next at 290247725, pending count: 1
[DRAM_CYCLE_ERROR] Cycle-based error applied! address=0x7226c12c0 additional_latency=173500 cycles
Heartbeat CPU 0 instructions: 110000018 cycles: 279086718 heartbeat IPC: 0.425 cumulative IPC: 0.3941 (Simulation time: 00 hr 30 min 22 sec)
[ERROR_CYCLE] Error added at CPU cycle 290247726, next at 303374226, pending count: 1
[DRAM_CYCLE_ERROR] Cycle-based error applied! address=0x5bfe57f80 additional_latency=173500 cycles
Heartbeat CPU 0 instructions: 120000018 cycles: 302515425 heartbeat IPC: 0.4268 cumulative IPC: 0.3967 (Simulation time: 00 hr 32 min 59 sec)
[ERROR_CYCLE] Error added at CPU cycle 303374226, next at 379052965, pending count: 1
[DRAM_CYCLE_ERROR] Cycle-based error applied! address=0x7b401168 additional_latency=173500 cycles
Heartbeat CPU 0 instructions: 130000018 cycles: 326610675 heartbeat IPC: 0.415 cumulative IPC: 0.398 (Simulation time: 00 hr 35 min 38 sec)
Heartbeat CPU 0 instructions: 140000020 cycles: 350239491 heartbeat IPC: 0.4232 cumulative IPC: 0.3997 (Simulation time: 00 hr 38 min 11 sec)
Heartbeat CPU 0 instructions: 150000021 cycles: 374258600 heartbeat IPC: 0.4163 cumulative IPC: 0.4008 (Simulation time: 00 hr 40 min 41 sec)
[ERROR_CYCLE] Error added at CPU cycle 379052966, next at 383791854, pending count: 1
[DRAM_CYCLE_ERROR] Cycle-based error applied! address=0x620bf71c0 additional_latency=173500 cycles
[ERROR_CYCLE] Error added at CPU cycle 383791855, next at 388594052, pending count: 1
[DRAM_CYCLE_ERROR] Cycle-based error applied! address=0x71c09cf80 additional_latency=173500 cycles
[ERROR_CYCLE] Error added at CPU cycle 388594053, next at 446238065, pending count: 1
[DRAM_CYCLE_ERROR] Cycle-based error applied! address=0x64b7a5110 additional_latency=173500 cycles
Heartbeat CPU 0 instructions: 160000021 cycles: 397943593 heartbeat IPC: 0.4222 cumulative IPC: 0.4021 (Simulation time: 00 hr 42 min 42 sec)
Heartbeat CPU 0 instructions: 170000021 cycles: 421432267 heartbeat IPC: 0.4257 cumulative IPC: 0.4034 (Simulation time: 00 hr 45 min 00 sec)
Heartbeat CPU 0 instructions: 180000024 cycles: 444935022 heartbeat IPC: 0.4255 cumulative IPC: 0.4046 (Simulation time: 00 hr 47 min 18 sec)
[ERROR_CYCLE] Error added at CPU cycle 446238066, next at 454133415, pending count: 1
[DRAM_CYCLE_ERROR] Cycle-based error applied! address=0x4ff699008 additional_latency=173500 cycles
[ERROR_CYCLE] Error added at CPU cycle 454133415, next at 539692982, pending count: 1
[DRAM_CYCLE_ERROR] Cycle-based error applied! address=0x40a537c68 additional_latency=173500 cycles
Heartbeat CPU 0 instructions: 190000028 cycles: 468263413 heartbeat IPC: 0.4287 cumulative IPC: 0.4058 (Simulation time: 00 hr 49 min 50 sec)
Heartbeat CPU 0 instructions: 200000029 cycles: 492497212 heartbeat IPC: 0.4126 cumulative IPC: 0.4061 (Simulation time: 00 hr 52 min 37 sec)
Heartbeat CPU 0 instructions: 210000033 cycles: 516353270 heartbeat IPC: 0.4192 cumulative IPC: 0.4067 (Simulation time: 00 hr 55 min 19 sec)
[ERROR_CYCLE] Error added at CPU cycle 539692982, next at 551194342, pending count: 1
[DRAM_CYCLE_ERROR] Cycle-based error applied! address=0x594178870 additional_latency=173500 cycles
Heartbeat CPU 0 instructions: 220000035 cycles: 540083136 heartbeat IPC: 0.4214 cumulative IPC: 0.4073 (Simulation time: 00 hr 58 min 02 sec)
[ERROR_CYCLE] Error added at CPU cycle 551194342, next at 618463271, pending count: 1
[DRAM_CYCLE_ERROR] Cycle-based error applied! address=0x4553ea600 additional_latency=173500 cycles
Heartbeat CPU 0 instructions: 230000036 cycles: 564058193 heartbeat IPC: 0.4171 cumulative IPC: 0.4078 (Simulation time: 01 hr 00 min 45 sec)
Heartbeat CPU 0 instructions: 240000036 cycles: 588075764 heartbeat IPC: 0.4164 cumulative IPC: 0.4081 (Simulation time: 01 hr 03 min 29 sec)
Heartbeat CPU 0 instructions: 250000038 cycles: 610886555 heartbeat IPC: 0.4384 cumulative IPC: 0.4092 (Simulation time: 01 hr 06 min 06 sec)
[ERROR_CYCLE] Error added at CPU cycle 618463271, next at 624429521, pending count: 1
[DRAM_CYCLE_ERROR] Cycle-based error applied! address=0x3ef273dd8 additional_latency=173500 cycles
[ERROR_CYCLE] Error added at CPU cycle 624429521, next at 652969032, pending count: 1
[DRAM_CYCLE_ERROR] Cycle-based error applied! address=0x2e91afab8 additional_latency=173500 cycles
Heartbeat CPU 0 instructions: 260000038 cycles: 634017812 heartbeat IPC: 0.4323 cumulative IPC: 0.4101 (Simulation time: 01 hr 08 min 45 sec)
[ERROR_CYCLE] Error added at CPU cycle 652969033, next at 657238516, pending count: 1
[DRAM_CYCLE_ERROR] Cycle-based error applied! address=0x6e181c638 additional_latency=173500 cycles
[ERROR_CYCLE] Error added at CPU cycle 657238516, next at 663890677, pending count: 1
[DRAM_CYCLE_ERROR] Cycle-based error applied! address=0x39c939968 additional_latency=173500 cycles
Heartbeat CPU 0 instructions: 270000038 cycles: 657603694 heartbeat IPC: 0.424 cumulative IPC: 0.4106 (Simulation time: 01 hr 11 min 26 sec)
[ERROR_CYCLE] Error added at CPU cycle 663890677, next at 693244034, pending count: 1
[DRAM_CYCLE_ERROR] Cycle-based error applied! address=0x17914b550 additional_latency=173500 cycles
Heartbeat CPU 0 instructions: 280000041 cycles: 682267770 heartbeat IPC: 0.4054 cumulative IPC: 0.4104 (Simulation time: 01 hr 14 min 12 sec)
[ERROR_CYCLE] Error added at CPU cycle 693244035, next at 693408343, pending count: 1
[DRAM_CYCLE_ERROR] Cycle-based error applied! address=0x5625d9138 additional_latency=173500 cycles
[ERROR_CYCLE] Error added at CPU cycle 693408343, next at 702111115, pending count: 1
[DRAM_CYCLE_ERROR] Cycle-based error applied! address=0xfc0ae720 additional_latency=173500 cycles
[ERROR_CYCLE] Error added at CPU cycle 702111115, next at 707431038, pending count: 1
[DRAM_CYCLE_ERROR] Cycle-based error applied! address=0x27e92b1a0 additional_latency=173500 cycles
Heartbeat CPU 0 instructions: 290000043 cycles: 706252153 heartbeat IPC: 0.4169 cumulative IPC: 0.4106 (Simulation time: 01 hr 16 min 56 sec)
[ERROR_CYCLE] Error added at CPU cycle 707431038, next at 717157141, pending count: 1
[DRAM_CYCLE_ERROR] Cycle-based error applied! address=0x1d85d5e80 additional_latency=173500 cycles
[ERROR_CYCLE] Error added at CPU cycle 717157141, next at 719468166, pending count: 1
[DRAM_CYCLE_ERROR] Cycle-based error applied! address=0x79e36c600 additional_latency=173500 cycles
[ERROR_CYCLE] Error added at CPU cycle 719468166, next at 729931125, pending count: 1
[DRAM_CYCLE_ERROR] Cycle-based error applied! address=0x433c870f0 additional_latency=173500 cycles
Heartbeat CPU 0 instructions: 300000044 cycles: 729188694 heartbeat IPC: 0.436 cumulative IPC: 0.4114 (Simulation time: 01 hr 19 min 12 sec)
[ERROR_CYCLE] Error added at CPU cycle 729931125, next at 740327757, pending count: 1
[DRAM_CYCLE_ERROR] Cycle-based error applied! address=0x53c149c80 additional_latency=173500 cycles
[ERROR_CYCLE] Error added at CPU cycle 740327757, next at 769723378, pending count: 1
[DRAM_CYCLE_ERROR] Cycle-based error applied! address=0x3d4219d48 additional_latency=173500 cycles
Heartbeat CPU 0 instructions: 310000044 cycles: 753359973 heartbeat IPC: 0.4137 cumulative IPC: 0.4115 (Simulation time: 01 hr 21 min 47 sec)
[ERROR_CYCLE] Error added at CPU cycle 769723378, next at 806610107, pending count: 1
[DRAM_CYCLE_ERROR] Cycle-based error applied! address=0x5c81e9754 additional_latency=173500 cycles
Heartbeat CPU 0 instructions: 320000046 cycles: 777118365 heartbeat IPC: 0.4209 cumulative IPC: 0.4118 (Simulation time: 01 hr 23 min 34 sec)
Heartbeat CPU 0 instructions: 330000046 cycles: 800654055 heartbeat IPC: 0.4249 cumulative IPC: 0.4122 (Simulation time: 01 hr 25 min 55 sec)
[ERROR_CYCLE] Error added at CPU cycle 806610107, next at 816598203, pending count: 1
[DRAM_CYCLE_ERROR] Cycle-based error applied! address=0xe9037370 additional_latency=173500 cycles
[ERROR_CYCLE] Error added at CPU cycle 816598204, next at 829157728, pending count: 1
[DRAM_CYCLE_ERROR] Cycle-based error applied! address=0x19dbb00 additional_latency=173500 cycles
Heartbeat CPU 0 instructions: 340000050 cycles: 822638481 heartbeat IPC: 0.4549 cumulative IPC: 0.4133 (Simulation time: 01 hr 28 min 27 sec)
[ERROR_CYCLE] Error added at CPU cycle 829157728, next at 831354542, pending count: 1
[DRAM_CYCLE_ERROR] Cycle-based error applied! address=0x6654d3e40 additional_latency=173500 cycles
[ERROR_CYCLE] Error added at CPU cycle 831354542, next at 835587951, pending count: 1
[DRAM_CYCLE_ERROR] Cycle-based error applied! address=0x7c939ae98 additional_latency=173500 cycles
[ERROR_CYCLE] Error added at CPU cycle 835587951, next at 857924333, pending count: 1
[DRAM_CYCLE_ERROR] Cycle-based error applied! address=0x7334b3930 additional_latency=173500 cycles
Heartbeat CPU 0 instructions: 350000050 cycles: 846087259 heartbeat IPC: 0.4265 cumulative IPC: 0.4137 (Simulation time: 01 hr 31 min 06 sec)
[ERROR_CYCLE] Error added at CPU cycle 857924334, next at 870797452, pending count: 1
[DRAM_CYCLE_ERROR] Cycle-based error applied! address=0x51e117910 additional_latency=173500 cycles
Heartbeat CPU 0 instructions: 360000051 cycles: 868963418 heartbeat IPC: 0.4371 cumulative IPC: 0.4143 (Simulation time: 01 hr 33 min 43 sec)
[ERROR_CYCLE] Error added at CPU cycle 870797452, next at 903141115, pending count: 1
[DRAM_CYCLE_ERROR] Cycle-based error applied! address=0x1ad0b9968 additional_latency=173500 cycles
Heartbeat CPU 0 instructions: 370000052 cycles: 892114873 heartbeat IPC: 0.4319 cumulative IPC: 0.4147 (Simulation time: 01 hr 36 min 17 sec)
[ERROR_CYCLE] Error added at CPU cycle 903141115, next at 908832379, pending count: 1
[DRAM_CYCLE_ERROR] Cycle-based error applied! address=0x140168d41 additional_latency=173500 cycles
[ERROR_CYCLE] Error added at CPU cycle 908832379, next at 935886573, pending count: 1
[DRAM_CYCLE_ERROR] Cycle-based error applied! address=0x9e6e9988 additional_latency=173500 cycles
Heartbeat CPU 0 instructions: 380000054 cycles: 915079289 heartbeat IPC: 0.4355 cumulative IPC: 0.4153 (Simulation time: 01 hr 38 min 50 sec)
[ERROR_CYCLE] Error added at CPU cycle 935886573, next at 958300697, pending count: 1
[DRAM_CYCLE_ERROR] Cycle-based error applied! address=0x1d9ab4a54 additional_latency=173500 cycles
Heartbeat CPU 0 instructions: 390000058 cycles: 938052611 heartbeat IPC: 0.4353 cumulative IPC: 0.4158 (Simulation time: 01 hr 41 min 24 sec)
[ERROR_CYCLE] Error added at CPU cycle 958300698, next at 979637607, pending count: 1
[DRAM_CYCLE_ERROR] Cycle-based error applied! address=0x194bf52e0 additional_latency=173500 cycles
Heartbeat CPU 0 instructions: 400000059 cycles: 961069509 heartbeat IPC: 0.4345 cumulative IPC: 0.4162 (Simulation time: 01 hr 43 min 36 sec)
[ERROR_CYCLE] Error added at CPU cycle 979637607, next at 984398776, pending count: 1
[DRAM_CYCLE_ERROR] Cycle-based error applied! address=0x50df7dea0 additional_latency=173500 cycles
Heartbeat CPU 0 instructions: 410000059 cycles: 984014268 heartbeat IPC: 0.4358 cumulative IPC: 0.4167 (Simulation time: 01 hr 45 min 24 sec)
[ERROR_CYCLE] Error added at CPU cycle 984398776, next at 1002210124, pending count: 1
[DRAM_CYCLE_ERROR] Cycle-based error applied! address=0x39a4c1d0 additional_latency=173500 cycles
[ERROR_CYCLE] Error added at CPU cycle 1002210124, next at 1032827874, pending count: 1
[DRAM_CYCLE_ERROR] Cycle-based error applied! address=0x1c3e4d308 additional_latency=173500 cycles
Heartbeat CPU 0 instructions: 420000062 cycles: 1007441826 heartbeat IPC: 0.4268 cumulative IPC: 0.4169 (Simulation time: 01 hr 47 min 50 sec)
Heartbeat CPU 0 instructions: 430000065 cycles: 1030826477 heartbeat IPC: 0.4276 cumulative IPC: 0.4171 (Simulation time: 01 hr 50 min 26 sec)
[ERROR_CYCLE] Error added at CPU cycle 1032827875, next at 1046516285, pending count: 1
[DRAM_CYCLE_ERROR] Cycle-based error applied! address=0x2d9b47178 additional_latency=173500 cycles
[ERROR_CYCLE] Error added at CPU cycle 1046516285, next at 1048641051, pending count: 1
[DRAM_CYCLE_ERROR] Cycle-based error applied! address=0x16b22cb48 additional_latency=173500 cycles
[ERROR_CYCLE] Error added at CPU cycle 1048641052, next at 1090842597, pending count: 1
[DRAM_CYCLE_ERROR] Cycle-based error applied! address=0x6c0a17430 additional_latency=173500 cycles
Heartbeat CPU 0 instructions: 440000068 cycles: 1054472338 heartbeat IPC: 0.4229 cumulative IPC: 0.4173 (Simulation time: 01 hr 52 min 41 sec)
Heartbeat CPU 0 instructions: 450000068 cycles: 1078128221 heartbeat IPC: 0.4227 cumulative IPC: 0.4174 (Simulation time: 01 hr 54 min 59 sec)
[ERROR_CYCLE] Error added at CPU cycle 1090842598, next at 1110023097, pending count: 1
[DRAM_CYCLE_ERROR] Cycle-based error applied! address=0x36c0a4968 additional_latency=173500 cycles
Heartbeat CPU 0 instructions: 460000068 cycles: 1101400009 heartbeat IPC: 0.4297 cumulative IPC: 0.4177 (Simulation time: 01 hr 57 min 37 sec)
[ERROR_CYCLE] Error added at CPU cycle 1110023098, next at 1133414207, pending count: 1
[DRAM_CYCLE_ERROR] Cycle-based error applied! address=0x1dfdf1738 additional_latency=173500 cycles
Heartbeat CPU 0 instructions: 470000068 cycles: 1124723858 heartbeat IPC: 0.4287 cumulative IPC: 0.4179 (Simulation time: 02 hr 00 min 14 sec)
[ERROR_CYCLE] Error added at CPU cycle 1133414207, next at 1204668974, pending count: 1
[DRAM_CYCLE_ERROR] Cycle-based error applied! address=0x7c330b590 additional_latency=173500 cycles
Heartbeat CPU 0 instructions: 480000068 cycles: 1148102004 heartbeat IPC: 0.4277 cumulative IPC: 0.4181 (Simulation time: 02 hr 02 min 52 sec)
Heartbeat CPU 0 instructions: 490000071 cycles: 1172926031 heartbeat IPC: 0.4028 cumulative IPC: 0.4178 (Simulation time: 02 hr 05 min 38 sec)
Heartbeat CPU 0 instructions: 500000071 cycles: 1196083700 heartbeat IPC: 0.4318 cumulative IPC: 0.418 (Simulation time: 02 hr 08 min 15 sec)
[ERROR_CYCLE] Error added at CPU cycle 1204668974, next at 1215603388, pending count: 1
[DRAM_CYCLE_ERROR] Cycle-based error applied! address=0x345eb7eb8 additional_latency=173500 cycles
[ERROR_CYCLE] Error added at CPU cycle 1215603389, next at 1217087080, pending count: 1
[DRAM_CYCLE_ERROR] Cycle-based error applied! address=0x428dc7308 additional_latency=173500 cycles
[ERROR_CYCLE] Error added at CPU cycle 1217087081, next at 1221310176, pending count: 1
[DRAM_CYCLE_ERROR] Cycle-based error applied! address=0xe9037170 additional_latency=173500 cycles
Heartbeat CPU 0 instructions: 510000075 cycles: 1220046991 heartbeat IPC: 0.4173 cumulative IPC: 0.418 (Simulation time: 02 hr 10 min 57 sec)
[ERROR_CYCLE] Error added at CPU cycle 1221310177, next at 1226438693, pending count: 1
[DRAM_CYCLE_ERROR] Cycle-based error applied! address=0x5f6ee0910 additional_latency=173500 cycles
[ERROR_CYCLE] Error added at CPU cycle 1226438693, next at 1227461842, pending count: 1
[DRAM_CYCLE_ERROR] Cycle-based error applied! address=0x5756feec8 additional_latency=173500 cycles
[ERROR_CYCLE] Error added at CPU cycle 1227461842, next at 1231373065, pending count: 1
[DRAM_CYCLE_ERROR] Cycle-based error applied! address=0x67a9f73f8 additional_latency=173500 cycles
[ERROR_CYCLE] Error added at CPU cycle 1231373065, next at 1247660783, pending count: 1
[DRAM_CYCLE_ERROR] Cycle-based error applied! address=0x7a55fa968 additional_latency=173500 cycles
Heartbeat CPU 0 instructions: 520000078 cycles: 1243704711 heartbeat IPC: 0.4227 cumulative IPC: 0.4181 (Simulation time: 02 hr 13 min 36 sec)
[ERROR_CYCLE] Error added at CPU cycle 1247660783, next at 1311009174, pending count: 1
[DRAM_CYCLE_ERROR] Cycle-based error applied! address=0x64e9f6d00 additional_latency=173500 cycles
Heartbeat CPU 0 instructions: 530000080 cycles: 1267091741 heartbeat IPC: 0.4276 cumulative IPC: 0.4183 (Simulation time: 02 hr 16 min 15 sec)
Heartbeat CPU 0 instructions: 540000080 cycles: 1291435068 heartbeat IPC: 0.4108 cumulative IPC: 0.4181 (Simulation time: 02 hr 18 min 59 sec)
[ERROR_CYCLE] Error added at CPU cycle 1311009175, next at 1370592850, pending count: 1
[DRAM_CYCLE_ERROR] Cycle-based error applied! address=0x70eb2320 additional_latency=173500 cycles
Heartbeat CPU 0 instructions: 550000080 cycles: 1315464722 heartbeat IPC: 0.4162 cumulative IPC: 0.4181 (Simulation time: 02 hr 21 min 42 sec)
Heartbeat CPU 0 instructions: 560000082 cycles: 1339105487 heartbeat IPC: 0.423 cumulative IPC: 0.4182 (Simulation time: 02 hr 24 min 21 sec)
Heartbeat CPU 0 instructions: 570000082 cycles: 1363239814 heartbeat IPC: 0.4143 cumulative IPC: 0.4181 (Simulation time: 02 hr 27 min 04 sec)
[ERROR_CYCLE] Error added at CPU cycle 1370592850, next at 1384134719, pending count: 1
[DRAM_CYCLE_ERROR] Cycle-based error applied! address=0x1cb66cf70 additional_latency=173500 cycles
[ERROR_CYCLE] Error added at CPU cycle 1384134720, next at 1387121723, pending count: 1
[DRAM_CYCLE_ERROR] Cycle-based error applied! address=0x34f59cc90 additional_latency=173500 cycles
Heartbeat CPU 0 instructions: 580000083 cycles: 1386798114 heartbeat IPC: 0.4245 cumulative IPC: 0.4182 (Simulation time: 02 hr 29 min 42 sec)
[ERROR_CYCLE] Error added at CPU cycle 1387121723, next at 1393135226, pending count: 1
[DRAM_CYCLE_ERROR] Cycle-based error applied! address=0x5582a98c0 additional_latency=173500 cycles
[ERROR_CYCLE] Error added at CPU cycle 1393135226, next at 1410245518, pending count: 1
[DRAM_CYCLE_ERROR] Cycle-based error applied! address=0x4acf01d04 additional_latency=173500 cycles
[ERROR_CYCLE] Error added at CPU cycle 1410245519, next at 1495091885, pending count: 1
[DRAM_CYCLE_ERROR] Cycle-based error applied! address=0x51baccfb0 additional_latency=173500 cycles
Heartbeat CPU 0 instructions: 590000085 cycles: 1410893969 heartbeat IPC: 0.415 cumulative IPC: 0.4182 (Simulation time: 02 hr 32 min 08 sec)
Heartbeat CPU 0 instructions: 600000086 cycles: 1434238010 heartbeat IPC: 0.4284 cumulative IPC: 0.4183 (Simulation time: 02 hr 34 min 44 sec)
Heartbeat CPU 0 instructions: 610000086 cycles: 1457843084 heartbeat IPC: 0.4236 cumulative IPC: 0.4184 (Simulation time: 02 hr 36 min 44 sec)
Heartbeat CPU 0 instructions: 620000090 cycles: 1482041592 heartbeat IPC: 0.4132 cumulative IPC: 0.4183 (Simulation time: 02 hr 39 min 02 sec)
[ERROR_CYCLE] Error added at CPU cycle 1495091886, next at 1497338352, pending count: 1
[DRAM_CYCLE_ERROR] Cycle-based error applied! address=0x3c569e840 additional_latency=173500 cycles
[ERROR_CYCLE] Error added at CPU cycle 1497338352, next at 1510038978, pending count: 1
[DRAM_CYCLE_ERROR] Cycle-based error applied! address=0xa3701a0 additional_latency=173500 cycles
Heartbeat CPU 0 instructions: 630000093 cycles: 1505840472 heartbeat IPC: 0.4202 cumulative IPC: 0.4184 (Simulation time: 02 hr 41 min 33 sec)
[ERROR_CYCLE] Error added at CPU cycle 1510038979, next at 1510994162, pending count: 1
[DRAM_CYCLE_ERROR] Cycle-based error applied! address=0x6926d110 additional_latency=173500 cycles
[ERROR_CYCLE] Error added at CPU cycle 1510994163, next at 1517546185, pending count: 1
[DRAM_CYCLE_ERROR] Cycle-based error applied! address=0x70aef229 additional_latency=173500 cycles
[ERROR_CYCLE] Error added at CPU cycle 1517546186, next at 1535864889, pending count: 1
[DRAM_CYCLE_ERROR] Cycle-based error applied! address=0x3b1a83740 additional_latency=173500 cycles
Heartbeat CPU 0 instructions: 640000095 cycles: 1530138592 heartbeat IPC: 0.4116 cumulative IPC: 0.4183 (Simulation time: 02 hr 44 min 05 sec)
[ERROR_CYCLE] Error added at CPU cycle 1535864889, next at 1536104601, pending count: 1
[DRAM_CYCLE_ERROR] Cycle-based error applied! address=0x3d747d1b8 additional_latency=173500 cycles
[ERROR_CYCLE] Error added at CPU cycle 1536104602, next at 1536200138, pending count: 1
[DRAM_CYCLE_ERROR] Cycle-based error applied! address=0x6217fa578 additional_latency=173500 cycles
[ERROR_CYCLE] Error added at CPU cycle 1536200139, next at 1536529969, pending count: 1
[DRAM_CYCLE_ERROR] Cycle-based error applied! address=0x1ab8849d4 additional_latency=173500 cycles
[ERROR_CYCLE] Error added at CPU cycle 1536529970, next at 1546953656, pending count: 1
[DRAM_CYCLE_ERROR] Cycle-based error applied! address=0x4cc604a48 additional_latency=173500 cycles
[ERROR_CYCLE] Error added at CPU cycle 1546953657, next at 1550817592, pending count: 1
[DRAM_CYCLE_ERROR] Cycle-based error applied! address=0x741678f58 additional_latency=173500 cycles
[ERROR_CYCLE] Error added at CPU cycle 1550817592, next at 1552955133, pending count: 1
[DRAM_CYCLE_ERROR] Cycle-based error applied! address=0x48d5ca078 additional_latency=173500 cycles
[ERROR_CYCLE] Error added at CPU cycle 1552955133, next at 1564110624, pending count: 1
[DRAM_CYCLE_ERROR] Cycle-based error applied! address=0xe6d07fc0 additional_latency=173500 cycles
Heartbeat CPU 0 instructions: 650000098 cycles: 1554128155 heartbeat IPC: 0.4168 cumulative IPC: 0.4182 (Simulation time: 02 hr 46 min 43 sec)
[ERROR_CYCLE] Error added at CPU cycle 1564110624, next at 1586732392, pending count: 1
[DRAM_CYCLE_ERROR] Cycle-based error applied! address=0x14b080a70 additional_latency=173500 cycles
Heartbeat CPU 0 instructions: 660000100 cycles: 1577879963 heartbeat IPC: 0.421 cumulative IPC: 0.4183 (Simulation time: 02 hr 49 min 23 sec)
[ERROR_CYCLE] Error added at CPU cycle 1586732392, next at 1601477251, pending count: 1
[DRAM_CYCLE_ERROR] Cycle-based error applied! address=0x7ebc3278 additional_latency=173500 cycles
Heartbeat CPU 0 instructions: 670000101 cycles: 1601251220 heartbeat IPC: 0.4279 cumulative IPC: 0.4184 (Simulation time: 02 hr 52 min 02 sec)
[ERROR_CYCLE] Error added at CPU cycle 1601477251, next at 1609406957, pending count: 1
[DRAM_CYCLE_ERROR] Cycle-based error applied! address=0x6e0e83468 additional_latency=173500 cycles
[ERROR_CYCLE] Error added at CPU cycle 1609406957, next at 1625268224, pending count: 1
[DRAM_CYCLE_ERROR] Cycle-based error applied! address=0x75b970718 additional_latency=173500 cycles
Heartbeat CPU 0 instructions: 680000104 cycles: 1624729851 heartbeat IPC: 0.4259 cumulative IPC: 0.4185 (Simulation time: 02 hr 54 min 41 sec)
[ERROR_CYCLE] Error added at CPU cycle 1625268225, next at 1650504061, pending count: 1
[DRAM_CYCLE_ERROR] Cycle-based error applied! address=0x6d83debd8 additional_latency=173500 cycles
Heartbeat CPU 0 instructions: 690000108 cycles: 1648287122 heartbeat IPC: 0.4245 cumulative IPC: 0.4186 (Simulation time: 02 hr 57 min 24 sec)
[ERROR_CYCLE] Error added at CPU cycle 1650504061, next at 1660874937, pending count: 1
[DRAM_CYCLE_ERROR] Cycle-based error applied! address=0x20a708080 additional_latency=173500 cycles
[ERROR_CYCLE] Error added at CPU cycle 1660874938, next at 1677870285, pending count: 1
[DRAM_CYCLE_ERROR] Cycle-based error applied! address=0x6da761b48 additional_latency=173500 cycles
Heartbeat CPU 0 instructions: 700000111 cycles: 1671713895 heartbeat IPC: 0.4269 cumulative IPC: 0.4187 (Simulation time: 03 hr 00 min 05 sec)
[ERROR_CYCLE] Error added at CPU cycle 1677870285, next at 1723608311, pending count: 1
[DRAM_CYCLE_ERROR] Cycle-based error applied! address=0xbd82dcd0 additional_latency=173500 cycles
Heartbeat CPU 0 instructions: 710000111 cycles: 1695464943 heartbeat IPC: 0.421 cumulative IPC: 0.4188 (Simulation time: 03 hr 02 min 48 sec)
Heartbeat CPU 0 instructions: 720000111 cycles: 1719407607 heartbeat IPC: 0.4177 cumulative IPC: 0.4187 (Simulation time: 03 hr 05 min 28 sec)
[ERROR_CYCLE] Error added at CPU cycle 1723608312, next at 1728278484, pending count: 1
[DRAM_CYCLE_ERROR] Cycle-based error applied! address=0x4c05e3754 additional_latency=173500 cycles
[ERROR_CYCLE] Error added at CPU cycle 1728278484, next at 1766089605, pending count: 1
[DRAM_CYCLE_ERROR] Cycle-based error applied! address=0xaef3a730 additional_latency=173500 cycles
Heartbeat CPU 0 instructions: 730000112 cycles: 1742689172 heartbeat IPC: 0.4295 cumulative IPC: 0.4189 (Simulation time: 03 hr 08 min 08 sec)
[ERROR_CYCLE] Error added at CPU cycle 1766089606, next at 1770934277, pending count: 1
[DRAM_CYCLE_ERROR] Cycle-based error applied! address=0x41c565618 additional_latency=173500 cycles
Heartbeat CPU 0 instructions: 740000114 cycles: 1766290055 heartbeat IPC: 0.4237 cumulative IPC: 0.419 (Simulation time: 03 hr 10 min 49 sec)
[ERROR_CYCLE] Error added at CPU cycle 1770934277, next at 1774352128, pending count: 1
[DRAM_CYCLE_ERROR] Cycle-based error applied! address=0x7fd5a4c90 additional_latency=173500 cycles
[ERROR_CYCLE] Error added at CPU cycle 1774352128, next at 1782866587, pending count: 1
[DRAM_CYCLE_ERROR] Cycle-based error applied! address=0x6d39bcad8 additional_latency=173500 cycles
[ERROR_CYCLE] Error added at CPU cycle 1782866587, next at 1820284123, pending count: 1
[DRAM_CYCLE_ERROR] Cycle-based error applied! address=0x75c31b9b8 additional_latency=173500 cycles
Heartbeat CPU 0 instructions: 750000114 cycles: 1789690829 heartbeat IPC: 0.4273 cumulative IPC: 0.4191 (Simulation time: 03 hr 13 min 27 sec)
Heartbeat CPU 0 instructions: 760000117 cycles: 1813203299 heartbeat IPC: 0.4253 cumulative IPC: 0.4191 (Simulation time: 03 hr 16 min 09 sec)
[ERROR_CYCLE] Error added at CPU cycle 1820284123, next at 1824911850, pending count: 1
[DRAM_CYCLE_ERROR] Cycle-based error applied! address=0x62d12380 additional_latency=173500 cycles
[ERROR_CYCLE] Error added at CPU cycle 1824911850, next at 1840904991, pending count: 1
[DRAM_CYCLE_ERROR] Cycle-based error applied! address=0x22da15f60 additional_latency=173500 cycles
Heartbeat CPU 0 instructions: 770000119 cycles: 1836000871 heartbeat IPC: 0.4386 cumulative IPC: 0.4194 (Simulation time: 03 hr 18 min 47 sec)
[ERROR_CYCLE] Error added at CPU cycle 1840904991, next at 1850717951, pending count: 1
[DRAM_CYCLE_ERROR] Cycle-based error applied! address=0x797477078 additional_latency=173500 cycles
[ERROR_CYCLE] Error added at CPU cycle 1850717952, next at 1856417162, pending count: 1
[DRAM_CYCLE_ERROR] Cycle-based error applied! address=0x342b92bc0 additional_latency=173500 cycles
[ERROR_CYCLE] Error added at CPU cycle 1856417162, next at 1871102489, pending count: 1
[DRAM_CYCLE_ERROR] Cycle-based error applied! address=0x321cdaeb8 additional_latency=173500 cycles
Heartbeat CPU 0 instructions: 780000119 cycles: 1859211945 heartbeat IPC: 0.4308 cumulative IPC: 0.4195 (Simulation time: 03 hr 21 min 26 sec)
[ERROR_CYCLE] Error added at CPU cycle 1871102489, next at 1880555423, pending count: 1
[DRAM_CYCLE_ERROR] Cycle-based error applied! address=0x78e68a260 additional_latency=173500 cycles
[ERROR_CYCLE] Error added at CPU cycle 1880555424, next at 1882723832, pending count: 1
[DRAM_CYCLE_ERROR] Cycle-based error applied! address=0x2c0d418 additional_latency=173500 cycles
[ERROR_CYCLE] Error added at CPU cycle 1882723832, next at 1888263422, pending count: 1
[DRAM_CYCLE_ERROR] Cycle-based error applied! address=0x72de92740 additional_latency=173500 cycles
Heartbeat CPU 0 instructions: 790000119 cycles: 1882857727 heartbeat IPC: 0.4229 cumulative IPC: 0.4196 (Simulation time: 03 hr 24 min 08 sec)
[ERROR_CYCLE] Error added at CPU cycle 1888263423, next at 1931662504, pending count: 1
[DRAM_CYCLE_ERROR] Cycle-based error applied! address=0x175f420d0 additional_latency=173500 cycles
Heartbeat CPU 0 instructions: 800000119 cycles: 1905792066 heartbeat IPC: 0.436 cumulative IPC: 0.4198 (Simulation time: 03 hr 26 min 43 sec)
Heartbeat CPU 0 instructions: 810000119 cycles: 1929504445 heartbeat IPC: 0.4217 cumulative IPC: 0.4198 (Simulation time: 03 hr 29 min 07 sec)
[ERROR_CYCLE] Error added at CPU cycle 1931662505, next at 1956460230, pending count: 1
[DRAM_CYCLE_ERROR] Cycle-based error applied! address=0x35a9bfe78 additional_latency=173500 cycles
Heartbeat CPU 0 instructions: 820000120 cycles: 1952993786 heartbeat IPC: 0.4257 cumulative IPC: 0.4199 (Simulation time: 03 hr 31 min 31 sec)
[ERROR_CYCLE] Error added at CPU cycle 1956460230, next at 1990691982, pending count: 1
[DRAM_CYCLE_ERROR] Cycle-based error applied! address=0x59a631a0 additional_latency=173500 cycles
Heartbeat CPU 0 instructions: 830000122 cycles: 1976258976 heartbeat IPC: 0.4298 cumulative IPC: 0.42 (Simulation time: 03 hr 33 min 50 sec)
[ERROR_CYCLE] Error added at CPU cycle 1990691983, next at 2002969234, pending count: 1
[DRAM_CYCLE_ERROR] Cycle-based error applied! address=0x41255c1d0 additional_latency=173500 cycles
Heartbeat CPU 0 instructions: 840000126 cycles: 1999608896 heartbeat IPC: 0.4283 cumulative IPC: 0.4201 (Simulation time: 03 hr 36 min 27 sec)
[ERROR_CYCLE] Error added at CPU cycle 2002969235, next at 2021944118, pending count: 1
[DRAM_CYCLE_ERROR] Cycle-based error applied! address=0x178d94330 additional_latency=173500 cycles
[ERROR_CYCLE] Error added at CPU cycle 2021944118, next at 2026901677, pending count: 1
[DRAM_CYCLE_ERROR] Cycle-based error applied! address=0x726408c00 additional_latency=173500 cycles
Heartbeat CPU 0 instructions: 850000129 cycles: 2023279978 heartbeat IPC: 0.4225 cumulative IPC: 0.4201 (Simulation time: 03 hr 38 min 50 sec)
[ERROR_CYCLE] Error added at CPU cycle 2026901678, next at 2055700755, pending count: 1
[DRAM_CYCLE_ERROR] Cycle-based error applied! address=0x407c5ae98 additional_latency=173500 cycles
Heartbeat CPU 0 instructions: 860000133 cycles: 2046615909 heartbeat IPC: 0.4285 cumulative IPC: 0.4202 (Simulation time: 03 hr 41 min 26 sec)
[ERROR_CYCLE] Error added at CPU cycle 2055700756, next at 2080720382, pending count: 1
[DRAM_CYCLE_ERROR] Cycle-based error applied! address=0xf4054800 additional_latency=173500 cycles
Heartbeat CPU 0 instructions: 870000136 cycles: 2069958757 heartbeat IPC: 0.4284 cumulative IPC: 0.4203 (Simulation time: 03 hr 44 min 03 sec)
[ERROR_CYCLE] Error added at CPU cycle 2080720382, next at 2096483937, pending count: 1
[DRAM_CYCLE_ERROR] Cycle-based error applied! address=0x41428ed40 additional_latency=173500 cycles
Heartbeat CPU 0 instructions: 880000138 cycles: 2093555300 heartbeat IPC: 0.4238 cumulative IPC: 0.4203 (Simulation time: 03 hr 46 min 42 sec)
[ERROR_CYCLE] Error added at CPU cycle 2096483938, next at 2115215464, pending count: 1
[DRAM_CYCLE_ERROR] Cycle-based error applied! address=0x7b0dd9288 additional_latency=173500 cycles
[ERROR_CYCLE] Error added at CPU cycle 2115215464, next at 2156079118, pending count: 1
[DRAM_CYCLE_ERROR] Cycle-based error applied! address=0x7efca5a00 additional_latency=173500 cycles
Heartbeat CPU 0 instructions: 890000138 cycles: 2116738470 heartbeat IPC: 0.4313 cumulative IPC: 0.4205 (Simulation time: 03 hr 49 min 06 sec)
Heartbeat CPU 0 instructions: 900000138 cycles: 2139351552 heartbeat IPC: 0.4422 cumulative IPC: 0.4207 (Simulation time: 03 hr 51 min 32 sec)
[ERROR_CYCLE] Error added at CPU cycle 2156079118, next at 2186455794, pending count: 1
[DRAM_CYCLE_ERROR] Cycle-based error applied! address=0x559cc0280 additional_latency=173500 cycles
Heartbeat CPU 0 instructions: 910000141 cycles: 2162576763 heartbeat IPC: 0.4306 cumulative IPC: 0.4208 (Simulation time: 03 hr 54 min 12 sec)
Heartbeat CPU 0 instructions: 920000143 cycles: 2186054368 heartbeat IPC: 0.4259 cumulative IPC: 0.4208 (Simulation time: 03 hr 56 min 27 sec)
[ERROR_CYCLE] Error added at CPU cycle 2186455794, next at 2190751094, pending count: 1
[DRAM_CYCLE_ERROR] Cycle-based error applied! address=0x55e946d50 additional_latency=173500 cycles
[ERROR_CYCLE] Error added at CPU cycle 2190751094, next at 2203609064, pending count: 1
[DRAM_CYCLE_ERROR] Cycle-based error applied! address=0x661b175c4 additional_latency=173500 cycles
[ERROR_CYCLE] Error added at CPU cycle 2203609065, next at 2214159380, pending count: 1
[DRAM_CYCLE_ERROR] Cycle-based error applied! address=0xa580f7c6 additional_latency=173500 cycles
Heartbeat CPU 0 instructions: 930000144 cycles: 2208792858 heartbeat IPC: 0.4398 cumulative IPC: 0.421 (Simulation time: 03 hr 58 min 54 sec)
[ERROR_CYCLE] Error added at CPU cycle 2214159380, next at 2230637612, pending count: 1
[DRAM_CYCLE_ERROR] Cycle-based error applied! address=0x3ecde1718 additional_latency=173500 cycles
[ERROR_CYCLE] Error added at CPU cycle 2230637613, next at 2270016408, pending count: 1
[DRAM_CYCLE_ERROR] Cycle-based error applied! address=0x21104c1c0 additional_latency=173500 cycles
Heartbeat CPU 0 instructions: 940000145 cycles: 2231592772 heartbeat IPC: 0.4386 cumulative IPC: 0.4212 (Simulation time: 04 hr 01 min 16 sec)
Heartbeat CPU 0 instructions: 950000146 cycles: 2254968292 heartbeat IPC: 0.4278 cumulative IPC: 0.4213 (Simulation time: 04 hr 03 min 52 sec)
[ERROR_CYCLE] Error added at CPU cycle 2270016408, next at 2281965406, pending count: 1
[DRAM_CYCLE_ERROR] Cycle-based error applied! address=0x7b788e190 additional_latency=173500 cycles
Heartbeat CPU 0 instructions: 960000149 cycles: 2278151215 heartbeat IPC: 0.4314 cumulative IPC: 0.4214 (Simulation time: 04 hr 06 min 24 sec)
[ERROR_CYCLE] Error added at CPU cycle 2281965407, next at 2308166669, pending count: 1
[DRAM_CYCLE_ERROR] Cycle-based error applied! address=0x629745b68 additional_latency=173500 cycles
Heartbeat CPU 0 instructions: 970000150 cycles: 2301525051 heartbeat IPC: 0.4278 cumulative IPC: 0.4215 (Simulation time: 04 hr 09 min 00 sec)
[ERROR_CYCLE] Error added at CPU cycle 2308166669, next at 2310133715, pending count: 1
[DRAM_CYCLE_ERROR] Cycle-based error applied! address=0x428dc71e8 additional_latency=173500 cycles
[ERROR_CYCLE] Error added at CPU cycle 2310133715, next at 2328361967, pending count: 1
[DRAM_CYCLE_ERROR] Cycle-based error applied! address=0x53dd816d8 additional_latency=173500 cycles
Heartbeat CPU 0 instructions: 980000151 cycles: 2324468409 heartbeat IPC: 0.4359 cumulative IPC: 0.4216 (Simulation time: 04 hr 11 min 38 sec)
[ERROR_CYCLE] Error added at CPU cycle 2328361967, next at 2340105462, pending count: 1
[DRAM_CYCLE_ERROR] Cycle-based error applied! address=0x4483bf138 additional_latency=173500 cycles
[ERROR_CYCLE] Error added at CPU cycle 2340105462, next at 2402319102, pending count: 1
[DRAM_CYCLE_ERROR] Cycle-based error applied! address=0x1e30061b0 additional_latency=173500 cycles
Heartbeat CPU 0 instructions: 990000152 cycles: 2347943137 heartbeat IPC: 0.426 cumulative IPC: 0.4216 (Simulation time: 04 hr 14 min 18 sec)
Heartbeat CPU 0 instructions: 1000000155 cycles: 2371356684 heartbeat IPC: 0.4271 cumulative IPC: 0.4217 (Simulation time: 04 hr 16 min 49 sec)
Heartbeat CPU 0 instructions: 1010000158 cycles: 2394567783 heartbeat IPC: 0.4308 cumulative IPC: 0.4218 (Simulation time: 04 hr 19 min 28 sec)
[ERROR_CYCLE] Error added at CPU cycle 2402319102, next at 2439607509, pending count: 1
[DRAM_CYCLE_ERROR] Cycle-based error applied! address=0x40c5491f8 additional_latency=173500 cycles
Heartbeat CPU 0 instructions: 1020000158 cycles: 2418000233 heartbeat IPC: 0.4268 cumulative IPC: 0.4218 (Simulation time: 04 hr 21 min 44 sec)
[ERROR_CYCLE] Error added at CPU cycle 2439607509, next at 2444065107, pending count: 1
[DRAM_CYCLE_ERROR] Cycle-based error applied! address=0x217d56d18 additional_latency=173500 cycles
Heartbeat CPU 0 instructions: 1030000159 cycles: 2441270726 heartbeat IPC: 0.4297 cumulative IPC: 0.4219 (Simulation time: 04 hr 24 min 20 sec)
[ERROR_CYCLE] Error added at CPU cycle 2444065107, next at 2449579755, pending count: 1
[DRAM_CYCLE_ERROR] Cycle-based error applied! address=0x6dd684e14 additional_latency=173500 cycles
[ERROR_CYCLE] Error added at CPU cycle 2449579756, next at 2462957722, pending count: 1
[DRAM_CYCLE_ERROR] Cycle-based error applied! address=0xc71b5180 additional_latency=173500 cycles
[ERROR_CYCLE] Error added at CPU cycle 2462957722, next at 2463824289, pending count: 1
[DRAM_CYCLE_ERROR] Cycle-based error applied! address=0x2981ac1d0 additional_latency=173500 cycles
[ERROR_CYCLE] Error added at CPU cycle 2463824290, next at 2472536865, pending count: 1
[DRAM_CYCLE_ERROR] Cycle-based error applied! address=0x30cae51b0 additional_latency=173500 cycles
Heartbeat CPU 0 instructions: 1040000159 cycles: 2464288840 heartbeat IPC: 0.4344 cumulative IPC: 0.422 (Simulation time: 04 hr 26 min 53 sec)
[ERROR_CYCLE] Error added at CPU cycle 2472536866, next at 2501237508, pending count: 1
[DRAM_CYCLE_ERROR] Cycle-based error applied! address=0x3b0595c88 additional_latency=173500 cycles
Heartbeat CPU 0 instructions: 1050000161 cycles: 2487140888 heartbeat IPC: 0.4376 cumulative IPC: 0.4222 (Simulation time: 04 hr 29 min 25 sec)
[ERROR_CYCLE] Error added at CPU cycle 2501237508, next at 2587728696, pending count: 1
[DRAM_CYCLE_ERROR] Cycle-based error applied! address=0x4cf8ff158 additional_latency=173500 cycles
Heartbeat CPU 0 instructions: 1060000161 cycles: 2509543021 heartbeat IPC: 0.4464 cumulative IPC: 0.4224 (Simulation time: 04 hr 31 min 54 sec)
Heartbeat CPU 0 instructions: 1070000165 cycles: 2532446408 heartbeat IPC: 0.4366 cumulative IPC: 0.4225 (Simulation time: 04 hr 34 min 26 sec)
Heartbeat CPU 0 instructions: 1080000166 cycles: 2555770542 heartbeat IPC: 0.4287 cumulative IPC: 0.4226 (Simulation time: 04 hr 36 min 58 sec)
Heartbeat CPU 0 instructions: 1090000166 cycles: 2578877235 heartbeat IPC: 0.4328 cumulative IPC: 0.4227 (Simulation time: 04 hr 39 min 29 sec)
[ERROR_CYCLE] Error added at CPU cycle 2587728697, next at 2609762396, pending count: 1
[DRAM_CYCLE_ERROR] Cycle-based error applied! address=0x3283fc260 additional_latency=173500 cycles
Heartbeat CPU 0 instructions: 1100000166 cycles: 2601374552 heartbeat IPC: 0.4445 cumulative IPC: 0.4229 (Simulation time: 04 hr 42 min 03 sec)
[ERROR_CYCLE] Error added at CPU cycle 2609762396, next at 2629677545, pending count: 1
[DRAM_CYCLE_ERROR] Cycle-based error applied! address=0x2cd0d9ac4 additional_latency=173500 cycles
Heartbeat CPU 0 instructions: 1110000166 cycles: 2624626079 heartbeat IPC: 0.4301 cumulative IPC: 0.4229 (Simulation time: 04 hr 44 min 41 sec)
[ERROR_CYCLE] Error added at CPU cycle 2629677546, next at 2642652042, pending count: 1
[DRAM_CYCLE_ERROR] Cycle-based error applied! address=0x1e12fea08 additional_latency=173500 cycles
[ERROR_CYCLE] Error added at CPU cycle 2642652042, next at 2669559137, pending count: 1
[DRAM_CYCLE_ERROR] Cycle-based error applied! address=0x232e2b788 additional_latency=173500 cycles
Heartbeat CPU 0 instructions: 1120000168 cycles: 2647448867 heartbeat IPC: 0.4382 cumulative IPC: 0.423 (Simulation time: 04 hr 47 min 17 sec)
[ERROR_CYCLE] Error added at CPU cycle 2669559137, next at 2683325685, pending count: 1
[DRAM_CYCLE_ERROR] Cycle-based error applied! address=0x44683db71 additional_latency=173500 cycles
Heartbeat CPU 0 instructions: 1130000172 cycles: 2670703491 heartbeat IPC: 0.43 cumulative IPC: 0.4231 (Simulation time: 04 hr 49 min 56 sec)
[ERROR_CYCLE] Error added at CPU cycle 2683325685, next at 2683916028, pending count: 1
[DRAM_CYCLE_ERROR] Cycle-based error applied! address=0x75a4e7938 additional_latency=173500 cycles
[ERROR_CYCLE] Error added at CPU cycle 2683916029, next at 2694889843, pending count: 1
[DRAM_CYCLE_ERROR] Cycle-based error applied! address=0x1c95968a0 additional_latency=173500 cycles
Heartbeat CPU 0 instructions: 1140000176 cycles: 2693456768 heartbeat IPC: 0.4395 cumulative IPC: 0.4232 (Simulation time: 04 hr 52 min 32 sec)
[ERROR_CYCLE] Error added at CPU cycle 2694889844, next at 2697779375, pending count: 1
[DRAM_CYCLE_ERROR] Cycle-based error applied! address=0x1d69b1604 additional_latency=173500 cycles
[ERROR_CYCLE] Error added at CPU cycle 2697779375, next at 2740737872, pending count: 1
[DRAM_CYCLE_ERROR] Cycle-based error applied! address=0x4a3cef478 additional_latency=173500 cycles
Heartbeat CPU 0 instructions: 1150000177 cycles: 2716010243 heartbeat IPC: 0.4434 cumulative IPC: 0.4234 (Simulation time: 04 hr 55 min 07 sec)
Heartbeat CPU 0 instructions: 1160000181 cycles: 2738742265 heartbeat IPC: 0.4399 cumulative IPC: 0.4236 (Simulation time: 04 hr 57 min 44 sec)
[ERROR_CYCLE] Error added at CPU cycle 2740737873, next at 2755314870, pending count: 1
[DRAM_CYCLE_ERROR] Cycle-based error applied! address=0x65f5a9740 additional_latency=173500 cycles
[ERROR_CYCLE] Error added at CPU cycle 2755314871, next at 2836084048, pending count: 1
[DRAM_CYCLE_ERROR] Cycle-based error applied! address=0x4dc2329b8 additional_latency=173500 cycles
Heartbeat CPU 0 instructions: 1170000183 cycles: 2761887427 heartbeat IPC: 0.4321 cumulative IPC: 0.4236 (Simulation time: 04 hr 59 min 58 sec)
Heartbeat CPU 0 instructions: 1180000184 cycles: 2784450186 heartbeat IPC: 0.4432 cumulative IPC: 0.4238 (Simulation time: 05 hr 02 min 25 sec)
Heartbeat CPU 0 instructions: 1190000185 cycles: 2807725175 heartbeat IPC: 0.4296 cumulative IPC: 0.4238 (Simulation time: 05 hr 04 min 46 sec)
Heartbeat CPU 0 instructions: 1200000186 cycles: 2830581243 heartbeat IPC: 0.4375 cumulative IPC: 0.4239 (Simulation time: 05 hr 07 min 12 sec)
[ERROR_CYCLE] Error added at CPU cycle 2836084048, next at 2857549496, pending count: 1
[DRAM_CYCLE_ERROR] Cycle-based error applied! address=0x29be99ab0 additional_latency=173500 cycles
Heartbeat CPU 0 instructions: 1210000189 cycles: 2853415219 heartbeat IPC: 0.4379 cumulative IPC: 0.4241 (Simulation time: 05 hr 09 min 49 sec)
[ERROR_CYCLE] Error added at CPU cycle 2857549497, next at 2861319284, pending count: 1
[DRAM_CYCLE_ERROR] Cycle-based error applied! address=0x2c4141610 additional_latency=173500 cycles
[ERROR_CYCLE] Error added at CPU cycle 2861319284, next at 2869611211, pending count: 1
[DRAM_CYCLE_ERROR] Cycle-based error applied! address=0x4b15efeb9 additional_latency=173500 cycles
[ERROR_CYCLE] Error added at CPU cycle 2869611212, next at 2879820063, pending count: 1
[DRAM_CYCLE_ERROR] Cycle-based error applied! address=0x301a03df0 additional_latency=173500 cycles
Heartbeat CPU 0 instructions: 1220000191 cycles: 2876391746 heartbeat IPC: 0.4352 cumulative IPC: 0.4241 (Simulation time: 05 hr 12 min 13 sec)
[ERROR_CYCLE] Error added at CPU cycle 2879820063, next at 2910531012, pending count: 1
[DRAM_CYCLE_ERROR] Cycle-based error applied! address=0x576732484 additional_latency=173500 cycles
Heartbeat CPU 0 instructions: 1230000191 cycles: 2899406365 heartbeat IPC: 0.4345 cumulative IPC: 0.4242 (Simulation time: 05 hr 14 min 22 sec)
[VMEM] WARNING: Out of physical memory, freeing ppages
[ERROR_CYCLE] Error added at CPU cycle 2910531012, next at 2912162307, pending count: 1
[DRAM_CYCLE_ERROR] Cycle-based error applied! address=0x67495a660 additional_latency=173500 cycles
[ERROR_CYCLE] Error added at CPU cycle 2912162308, next at 2919266385, pending count: 1
[DRAM_CYCLE_ERROR] Cycle-based error applied! address=0x5bf4c92c0 additional_latency=173500 cycles
[ERROR_CYCLE] Error added at CPU cycle 2919266385, next at 2941170340, pending count: 1
[DRAM_CYCLE_ERROR] Cycle-based error applied! address=0x5f5111380 additional_latency=173500 cycles
Heartbeat CPU 0 instructions: 1240000192 cycles: 2922430360 heartbeat IPC: 0.4343 cumulative IPC: 0.4243 (Simulation time: 05 hr 16 min 45 sec)
[ERROR_CYCLE] Error added at CPU cycle 2941170340, next at 2945899327, pending count: 1
[DRAM_CYCLE_ERROR] Cycle-based error applied! address=0x642a56268 additional_latency=173500 cycles
Heartbeat CPU 0 instructions: 1250000193 cycles: 2945476194 heartbeat IPC: 0.4339 cumulative IPC: 0.4244 (Simulation time: 05 hr 19 min 22 sec)
[ERROR_CYCLE] Error added at CPU cycle 2945899327, next at 2966346307, pending count: 1
[DRAM_CYCLE_ERROR] Cycle-based error applied! address=0x7e4566658 additional_latency=173500 cycles
[ERROR_CYCLE] Error added at CPU cycle 2966346308, next at 2969022363, pending count: 1
[DRAM_CYCLE_ERROR] Cycle-based error applied! address=0x6f267db38 additional_latency=173500 cycles
Heartbeat CPU 0 instructions: 1260000195 cycles: 2968376593 heartbeat IPC: 0.4367 cumulative IPC: 0.4245 (Simulation time: 05 hr 22 min 00 sec)
[ERROR_CYCLE] Error added at CPU cycle 2969022363, next at 2984652203, pending count: 1
[DRAM_CYCLE_ERROR] Cycle-based error applied! address=0x6955c15c8 additional_latency=173500 cycles
[ERROR_CYCLE] Error added at CPU cycle 2984652203, next at 2996806307, pending count: 1
[DRAM_CYCLE_ERROR] Cycle-based error applied! address=0x55c7baa20 additional_latency=173500 cycles
Heartbeat CPU 0 instructions: 1270000195 cycles: 2991215465 heartbeat IPC: 0.4378 cumulative IPC: 0.4246 (Simulation time: 05 hr 24 min 37 sec)
[ERROR_CYCLE] Error added at CPU cycle 2996806307, next at 3000348423, pending count: 1
[DRAM_CYCLE_ERROR] Cycle-based error applied! address=0x55831aca0 additional_latency=173500 cycles
[ERROR_CYCLE] Error added at CPU cycle 3000348424, next at 3009363937, pending count: 1
[DRAM_CYCLE_ERROR] Cycle-based error applied! address=0x4e3181936 additional_latency=173500 cycles
[ERROR_CYCLE] Error added at CPU cycle 3009363938, next at 3016352858, pending count: 1
[DRAM_CYCLE_ERROR] Cycle-based error applied! address=0x5b12ff158 additional_latency=173500 cycles
Heartbeat CPU 0 instructions: 1280000195 cycles: 3014118360 heartbeat IPC: 0.4366 cumulative IPC: 0.4247 (Simulation time: 05 hr 27 min 13 sec)
[ERROR_CYCLE] Error added at CPU cycle 3016352859, next at 3021961251, pending count: 1
[DRAM_CYCLE_ERROR] Cycle-based error applied! address=0x6a18541f6 additional_latency=173500 cycles
[ERROR_CYCLE] Error added at CPU cycle 3021961251, next at 3081013196, pending count: 1
[DRAM_CYCLE_ERROR] Cycle-based error applied! address=0x1b87f9208 additional_latency=173500 cycles
Heartbeat CPU 0 instructions: 1290000197 cycles: 3037369499 heartbeat IPC: 0.4301 cumulative IPC: 0.4247 (Simulation time: 05 hr 29 min 18 sec)
Heartbeat CPU 0 instructions: 1300000199 cycles: 3060244558 heartbeat IPC: 0.4372 cumulative IPC: 0.4248 (Simulation time: 05 hr 31 min 16 sec)
[ERROR_CYCLE] Error added at CPU cycle 3081013197, next at 3091267831, pending count: 1
[DRAM_CYCLE_ERROR] Cycle-based error applied! address=0x5b11ee8f8 additional_latency=173500 cycles
Heartbeat CPU 0 instructions: 1310000199 cycles: 3082753253 heartbeat IPC: 0.4443 cumulative IPC: 0.4249 (Simulation time: 05 hr 33 min 06 sec)
[ERROR_CYCLE] Error added at CPU cycle 3091267831, next at 3110764276, pending count: 1
[DRAM_CYCLE_ERROR] Cycle-based error applied! address=0x76172fa38 additional_latency=173500 cycles
Heartbeat CPU 0 instructions: 1320000200 cycles: 3105922913 heartbeat IPC: 0.4316 cumulative IPC: 0.425 (Simulation time: 05 hr 35 min 21 sec)
[ERROR_CYCLE] Error added at CPU cycle 3110764277, next at 3118759855, pending count: 1
[DRAM_CYCLE_ERROR] Cycle-based error applied! address=0x59933c70 additional_latency=173500 cycles
[ERROR_CYCLE] Error added at CPU cycle 3118759855, next at 3136500958, pending count: 1
[DRAM_CYCLE_ERROR] Cycle-based error applied! address=0x44dbf7b50 additional_latency=173500 cycles
Heartbeat CPU 0 instructions: 1330000200 cycles: 3128804819 heartbeat IPC: 0.437 cumulative IPC: 0.4251 (Simulation time: 05 hr 37 min 50 sec)
[ERROR_CYCLE] Error added at CPU cycle 3136500959, next at 3136794186, pending count: 1
[DRAM_CYCLE_ERROR] Cycle-based error applied! address=0x37cb29878 additional_latency=173500 cycles
[ERROR_CYCLE] Error added at CPU cycle 3136794186, next at 3142409251, pending count: 1
[DRAM_CYCLE_ERROR] Cycle-based error applied! address=0x70520e318 additional_latency=173500 cycles
[ERROR_CYCLE] Error added at CPU cycle 3142409251, next at 3144803586, pending count: 1
[DRAM_CYCLE_ERROR] Cycle-based error applied! address=0x78cef0130 additional_latency=173500 cycles
[ERROR_CYCLE] Error added at CPU cycle 3144803587, next at 3171139121, pending count: 1
[DRAM_CYCLE_ERROR] Cycle-based error applied! address=0x33a6bcb0 additional_latency=173500 cycles
Heartbeat CPU 0 instructions: 1340000202 cycles: 3151498522 heartbeat IPC: 0.4407 cumulative IPC: 0.4252 (Simulation time: 05 hr 40 min 26 sec)
[ERROR_CYCLE] Error added at CPU cycle 3171139121, next at 3172859270, pending count: 1
[DRAM_CYCLE_ERROR] Cycle-based error applied! address=0x650bdb2d8 additional_latency=173500 cycles
[ERROR_CYCLE] Error added at CPU cycle 3172859271, next at 3196397175, pending count: 1
[DRAM_CYCLE_ERROR] Cycle-based error applied! address=0x6b862f2c0 additional_latency=173500 cycles
Heartbeat CPU 0 instructions: 1350000205 cycles: 3174675486 heartbeat IPC: 0.4315 cumulative IPC: 0.4252 (Simulation time: 05 hr 43 min 05 sec)
[ERROR_CYCLE] Error added at CPU cycle 3196397175, next at 3219866144, pending count: 1
[DRAM_CYCLE_ERROR] Cycle-based error applied! address=0x1537e3098 additional_latency=173500 cycles
Heartbeat CPU 0 instructions: 1360000205 cycles: 3197199336 heartbeat IPC: 0.444 cumulative IPC: 0.4254 (Simulation time: 05 hr 45 min 39 sec)
[ERROR_CYCLE] Error added at CPU cycle 3219866144, next at 3251755385, pending count: 1
[DRAM_CYCLE_ERROR] Cycle-based error applied! address=0x7f25e7268 additional_latency=173500 cycles
Heartbeat CPU 0 instructions: 1370000207 cycles: 3220395126 heartbeat IPC: 0.4311 cumulative IPC: 0.4254 (Simulation time: 05 hr 48 min 02 sec)
Heartbeat CPU 0 instructions: 1380000207 cycles: 3243617914 heartbeat IPC: 0.4306 cumulative IPC: 0.4255 (Simulation time: 05 hr 50 min 12 sec)
[ERROR_CYCLE] Error added at CPU cycle 3251755385, next at 3273579738, pending count: 1
[DRAM_CYCLE_ERROR] Cycle-based error applied! address=0x4d3348160 additional_latency=173500 cycles
Heartbeat CPU 0 instructions: 1390000207 cycles: 3266854693 heartbeat IPC: 0.4304 cumulative IPC: 0.4255 (Simulation time: 05 hr 52 min 20 sec)
[ERROR_CYCLE] Error added at CPU cycle 3273579738, next at 3289593014, pending count: 1
[DRAM_CYCLE_ERROR] Cycle-based error applied! address=0x38202d118 additional_latency=173500 cycles
[ERROR_CYCLE] Error added at CPU cycle 3289593014, next at 3303720912, pending count: 1
[DRAM_CYCLE_ERROR] Cycle-based error applied! address=0x7b398f4c8 additional_latency=173500 cycles
Heartbeat CPU 0 instructions: 1400000207 cycles: 3289801354 heartbeat IPC: 0.4358 cumulative IPC: 0.4256 (Simulation time: 05 hr 54 min 38 sec)
[ERROR_CYCLE] Error added at CPU cycle 3303720912, next at 3307619965, pending count: 1
[DRAM_CYCLE_ERROR] Cycle-based error applied! address=0x1edd06408 additional_latency=173500 cycles
[ERROR_CYCLE] Error added at CPU cycle 3307619965, next at 3314758845, pending count: 1
[DRAM_CYCLE_ERROR] Cycle-based error applied! address=0x226ff730 additional_latency=173500 cycles
Heartbeat CPU 0 instructions: 1410000207 cycles: 3313077992 heartbeat IPC: 0.4296 cumulative IPC: 0.4256 (Simulation time: 05 hr 57 min 06 sec)
[ERROR_CYCLE] Error added at CPU cycle 3314758846, next at 3316528176, pending count: 1
[DRAM_CYCLE_ERROR] Cycle-based error applied! address=0x44bc94030 additional_latency=173500 cycles
[ERROR_CYCLE] Error added at CPU cycle 3316528176, next at 3331764729, pending count: 1
[DRAM_CYCLE_ERROR] Cycle-based error applied! address=0x593d5c0e0 additional_latency=173500 cycles
[ERROR_CYCLE] Error added at CPU cycle 3331764730, next at 3352119606, pending count: 1
[DRAM_CYCLE_ERROR] Cycle-based error applied! address=0x61aae4320 additional_latency=173500 cycles
Heartbeat CPU 0 instructions: 1420000207 cycles: 3336445836 heartbeat IPC: 0.4279 cumulative IPC: 0.4256 (Simulation time: 05 hr 59 min 28 sec)
[ERROR_CYCLE] Error added at CPU cycle 3352119606, next at 3363674547, pending count: 1
[DRAM_CYCLE_ERROR] Cycle-based error applied! address=0x6ec4043f0 additional_latency=173500 cycles
Heartbeat CPU 0 instructions: 1430000211 cycles: 3359682125 heartbeat IPC: 0.4304 cumulative IPC: 0.4256 (Simulation time: 06 hr 02 min 05 sec)
[ERROR_CYCLE] Error added at CPU cycle 3363674547, next at 3364898988, pending count: 1
[DRAM_CYCLE_ERROR] Cycle-based error applied! address=0x3c4a7ace0 additional_latency=173500 cycles
[ERROR_CYCLE] Error added at CPU cycle 3364898988, next at 3369063406, pending count: 1
[DRAM_CYCLE_ERROR] Cycle-based error applied! address=0x9531d00 additional_latency=173500 cycles
[ERROR_CYCLE] Error added at CPU cycle 3369063406, next at 3379265425, pending count: 1
[DRAM_CYCLE_ERROR] Cycle-based error applied! address=0x6aaa6e560 additional_latency=173500 cycles
[ERROR_CYCLE] Error added at CPU cycle 3379265425, next at 3397332868, pending count: 1
[DRAM_CYCLE_ERROR] Cycle-based error applied! address=0x554c07068 additional_latency=173500 cycles
Heartbeat CPU 0 instructions: 1440000213 cycles: 3383129824 heartbeat IPC: 0.4265 cumulative IPC: 0.4256 (Simulation time: 06 hr 04 min 37 sec)
[ERROR_CYCLE] Error added at CPU cycle 3397332869, next at 3425815911, pending count: 1
[DRAM_CYCLE_ERROR] Cycle-based error applied! address=0x35e4e2190 additional_latency=173500 cycles
Heartbeat CPU 0 instructions: 1450000215 cycles: 3405497546 heartbeat IPC: 0.4471 cumulative IPC: 0.4258 (Simulation time: 06 hr 06 min 22 sec)
[ERROR_CYCLE] Error added at CPU cycle 3425815912, next at 3447535049, pending count: 1
[DRAM_CYCLE_ERROR] Cycle-based error applied! address=0x2f1a94db8 additional_latency=173500 cycles
Heartbeat CPU 0 instructions: 1460000218 cycles: 3428623722 heartbeat IPC: 0.4324 cumulative IPC: 0.4258 (Simulation time: 06 hr 08 min 50 sec)
[ERROR_CYCLE] Error added at CPU cycle 3447535049, next at 3448911293, pending count: 1
[DRAM_CYCLE_ERROR] Cycle-based error applied! address=0x3eabce910 additional_latency=173500 cycles
[ERROR_CYCLE] Error added at CPU cycle 3448911293, next at 3465440595, pending count: 1
[DRAM_CYCLE_ERROR] Cycle-based error applied! address=0x5a1b2e2e8 additional_latency=173500 cycles
Heartbeat CPU 0 instructions: 1470000218 cycles: 3451503005 heartbeat IPC: 0.4371 cumulative IPC: 0.4259 (Simulation time: 06 hr 11 min 25 sec)
[ERROR_CYCLE] Error added at CPU cycle 3465440595, next at 3465744151, pending count: 1
[DRAM_CYCLE_ERROR] Cycle-based error applied! address=0x1e3b18d20 additional_latency=173500 cycles
[ERROR_CYCLE] Error added at CPU cycle 3465744151, next at 3522130675, pending count: 1
[DRAM_CYCLE_ERROR] Cycle-based error applied! address=0x7b40c0c88 additional_latency=173500 cycles
Heartbeat CPU 0 instructions: 1480000218 cycles: 3474606764 heartbeat IPC: 0.4328 cumulative IPC: 0.4259 (Simulation time: 06 hr 14 min 01 sec)
Heartbeat CPU 0 instructions: 1490000222 cycles: 3497638015 heartbeat IPC: 0.4342 cumulative IPC: 0.426 (Simulation time: 06 hr 16 min 37 sec)
Heartbeat CPU 0 instructions: 1500000226 cycles: 3520918966 heartbeat IPC: 0.4295 cumulative IPC: 0.426 (Simulation time: 06 hr 19 min 15 sec)
[ERROR_CYCLE] Error added at CPU cycle 3522130676, next at 3586295900, pending count: 1
[DRAM_CYCLE_ERROR] Cycle-based error applied! address=0x1efe08950 additional_latency=173500 cycles
Heartbeat CPU 0 instructions: 1510000228 cycles: 3544293086 heartbeat IPC: 0.4278 cumulative IPC: 0.426 (Simulation time: 06 hr 21 min 53 sec)
Heartbeat CPU 0 instructions: 1520000228 cycles: 3567682419 heartbeat IPC: 0.4275 cumulative IPC: 0.426 (Simulation time: 06 hr 24 min 34 sec)
[ERROR_CYCLE] Error added at CPU cycle 3586295900, next at 3587626760, pending count: 1
[DRAM_CYCLE_ERROR] Cycle-based error applied! address=0x3ff757320 additional_latency=173500 cycles
[ERROR_CYCLE] Error added at CPU cycle 3587626761, next at 3595606386, pending count: 1
[DRAM_CYCLE_ERROR] Cycle-based error applied! address=0x4bf071fd4 additional_latency=173500 cycles
Heartbeat CPU 0 instructions: 1530000229 cycles: 3591354621 heartbeat IPC: 0.4224 cumulative IPC: 0.426 (Simulation time: 06 hr 27 min 10 sec)
[ERROR_CYCLE] Error added at CPU cycle 3595606386, next at 3599933122, pending count: 1
[DRAM_CYCLE_ERROR] Cycle-based error applied! address=0x2fc090f58 additional_latency=173500 cycles
[ERROR_CYCLE] Error added at CPU cycle 3599933123, next at 3632698433, pending count: 1
[DRAM_CYCLE_ERROR] Cycle-based error applied! address=0x60e42f859 additional_latency=173500 cycles
Heartbeat CPU 0 instructions: 1540000230 cycles: 3614665882 heartbeat IPC: 0.429 cumulative IPC: 0.426 (Simulation time: 06 hr 29 min 27 sec)
[ERROR_CYCLE] Error added at CPU cycle 3632698434, next at 3651057572, pending count: 1
[DRAM_CYCLE_ERROR] Cycle-based error applied! address=0x7d4202c60 additional_latency=173500 cycles
Heartbeat CPU 0 instructions: 1550000233 cycles: 3638368035 heartbeat IPC: 0.4219 cumulative IPC: 0.426 (Simulation time: 06 hr 31 min 34 sec)
[ERROR_CYCLE] Error added at CPU cycle 3651057572, next at 3669536913, pending count: 1
[DRAM_CYCLE_ERROR] Cycle-based error applied! address=0x60b6d71f0 additional_latency=173500 cycles
Heartbeat CPU 0 instructions: 1560000236 cycles: 3661932972 heartbeat IPC: 0.4244 cumulative IPC: 0.426 (Simulation time: 06 hr 33 min 32 sec)
[ERROR_CYCLE] Error added at CPU cycle 3669536913, next at 3689050536, pending count: 1
[DRAM_CYCLE_ERROR] Cycle-based error applied! address=0x7b37dd678 additional_latency=173500 cycles
Heartbeat CPU 0 instructions: 1570000239 cycles: 3685436483 heartbeat IPC: 0.4255 cumulative IPC: 0.426 (Simulation time: 06 hr 35 min 37 sec)
[ERROR_CYCLE] Error added at CPU cycle 3689050536, next at 3701283109, pending count: 1
[DRAM_CYCLE_ERROR] Cycle-based error applied! address=0x73c28bf98 additional_latency=173500 cycles
[ERROR_CYCLE] Error added at CPU cycle 3701283109, next at 3778121833, pending count: 1
[DRAM_CYCLE_ERROR] Cycle-based error applied! address=0x6d67b72a0 additional_latency=173500 cycles
Heartbeat CPU 0 instructions: 1580000242 cycles: 3709181069 heartbeat IPC: 0.4211 cumulative IPC: 0.426 (Simulation time: 06 hr 37 min 45 sec)
Heartbeat CPU 0 instructions: 1590000245 cycles: 3732779278 heartbeat IPC: 0.4238 cumulative IPC: 0.426 (Simulation time: 06 hr 39 min 48 sec)
Heartbeat CPU 0 instructions: 1600000249 cycles: 3756266136 heartbeat IPC: 0.4258 cumulative IPC: 0.426 (Simulation time: 06 hr 41 min 55 sec)
[ERROR_CYCLE] Error added at CPU cycle 3778121834, next at 3786116897, pending count: 1
[DRAM_CYCLE_ERROR] Cycle-based error applied! address=0x5a57c9c20 additional_latency=173500 cycles
Heartbeat CPU 0 instructions: 1610000250 cycles: 3779909453 heartbeat IPC: 0.423 cumulative IPC: 0.4259 (Simulation time: 06 hr 44 min 37 sec)
[ERROR_CYCLE] Error added at CPU cycle 3786116898, next at 3787697214, pending count: 1
[DRAM_CYCLE_ERROR] Cycle-based error applied! address=0x6d242f3d8 additional_latency=173500 cycles
[ERROR_CYCLE] Error added at CPU cycle 3787697214, next at 3793237020, pending count: 1
[DRAM_CYCLE_ERROR] Cycle-based error applied! address=0x7827ea181 additional_latency=173500 cycles
[ERROR_CYCLE] Error added at CPU cycle 3793237021, next at 3799127902, pending count: 1
[DRAM_CYCLE_ERROR] Cycle-based error applied! address=0x53d1366d0 additional_latency=173500 cycles
[ERROR_CYCLE] Error added at CPU cycle 3799127902, next at 3833046036, pending count: 1
[DRAM_CYCLE_ERROR] Cycle-based error applied! address=0xac699958 additional_latency=173500 cycles
Heartbeat CPU 0 instructions: 1620000253 cycles: 3803214229 heartbeat IPC: 0.4291 cumulative IPC: 0.426 (Simulation time: 06 hr 47 min 07 sec)
Heartbeat CPU 0 instructions: 1630000253 cycles: 3826727660 heartbeat IPC: 0.4253 cumulative IPC: 0.426 (Simulation time: 06 hr 49 min 24 sec)
[ERROR_CYCLE] Error added at CPU cycle 3833046036, next at 3839986147, pending count: 1
[DRAM_CYCLE_ERROR] Cycle-based error applied! address=0x4990e7138 additional_latency=173500 cycles
[ERROR_CYCLE] Error added at CPU cycle 3839986147, next at 3906794383, pending count: 1
[DRAM_CYCLE_ERROR] Cycle-based error applied! address=0x68c45a060 additional_latency=173500 cycles
Heartbeat CPU 0 instructions: 1640000255 cycles: 3850010178 heartbeat IPC: 0.4295 cumulative IPC: 0.426 (Simulation time: 06 hr 52 min 04 sec)
Heartbeat CPU 0 instructions: 1650000258 cycles: 3873321353 heartbeat IPC: 0.429 cumulative IPC: 0.426 (Simulation time: 06 hr 54 min 24 sec)
Heartbeat CPU 0 instructions: 1660000259 cycles: 3896967085 heartbeat IPC: 0.4229 cumulative IPC: 0.426 (Simulation time: 06 hr 57 min 01 sec)
[ERROR_CYCLE] Error added at CPU cycle 3906794383, next at 3915920186, pending count: 1
[DRAM_CYCLE_ERROR] Cycle-based error applied! address=0x5e389ca94 additional_latency=173500 cycles
[ERROR_CYCLE] Error added at CPU cycle 3915920186, next at 3928826316, pending count: 1
[DRAM_CYCLE_ERROR] Cycle-based error applied! address=0x6a8df3fa0 additional_latency=173500 cycles
Heartbeat CPU 0 instructions: 1670000263 cycles: 3920276794 heartbeat IPC: 0.429 cumulative IPC: 0.426 (Simulation time: 06 hr 59 min 40 sec)
[ERROR_CYCLE] Error added at CPU cycle 3928826317, next at 3951389617, pending count: 1
[DRAM_CYCLE_ERROR] Cycle-based error applied! address=0xae0ac680 additional_latency=173500 cycles
Heartbeat CPU 0 instructions: 1680000266 cycles: 3943970987 heartbeat IPC: 0.422 cumulative IPC: 0.426 (Simulation time: 07 hr 02 min 20 sec)
[ERROR_CYCLE] Error added at CPU cycle 3951389618, next at 3957181377, pending count: 1
[DRAM_CYCLE_ERROR] Cycle-based error applied! address=0x53187c978 additional_latency=173500 cycles
[ERROR_CYCLE] Error added at CPU cycle 3957181378, next at 3999807413, pending count: 1
[DRAM_CYCLE_ERROR] Cycle-based error applied! address=0x57831f08 additional_latency=173500 cycles
Heartbeat CPU 0 instructions: 1690000270 cycles: 3967319113 heartbeat IPC: 0.4283 cumulative IPC: 0.426 (Simulation time: 07 hr 05 min 01 sec)
Heartbeat CPU 0 instructions: 1700000270 cycles: 3990939659 heartbeat IPC: 0.4234 cumulative IPC: 0.426 (Simulation time: 07 hr 07 min 11 sec)
[ERROR_CYCLE] Error added at CPU cycle 3999807413, next at 4079937375, pending count: 1
[DRAM_CYCLE_ERROR] Cycle-based error applied! address=0x18fd38940 additional_latency=173500 cycles
Heartbeat CPU 0 instructions: 1710000271 cycles: 4014192638 heartbeat IPC: 0.4301 cumulative IPC: 0.426 (Simulation time: 07 hr 09 min 05 sec)
Heartbeat CPU 0 instructions: 1720000274 cycles: 4037774079 heartbeat IPC: 0.4241 cumulative IPC: 0.426 (Simulation time: 07 hr 11 min 38 sec)
Heartbeat CPU 0 instructions: 1730000275 cycles: 4061810169 heartbeat IPC: 0.416 cumulative IPC: 0.4259 (Simulation time: 07 hr 14 min 21 sec)
[ERROR_CYCLE] Error added at CPU cycle 4079937375, next at 4082951716, pending count: 1
[DRAM_CYCLE_ERROR] Cycle-based error applied! address=0x22205e080 additional_latency=173500 cycles
[ERROR_CYCLE] Error added at CPU cycle 4082951716, next at 4095121606, pending count: 1
[DRAM_CYCLE_ERROR] Cycle-based error applied! address=0x3385bc248 additional_latency=173500 cycles
Heartbeat CPU 0 instructions: 1740000278 cycles: 4084827560 heartbeat IPC: 0.4345 cumulative IPC: 0.426 (Simulation time: 07 hr 16 min 57 sec)
[ERROR_CYCLE] Error added at CPU cycle 4095121606, next at 4114636392, pending count: 1
[DRAM_CYCLE_ERROR] Cycle-based error applied! address=0x768ceac40 additional_latency=173500 cycles
Heartbeat CPU 0 instructions: 1750000280 cycles: 4108203635 heartbeat IPC: 0.4278 cumulative IPC: 0.426 (Simulation time: 07 hr 19 min 37 sec)
[ERROR_CYCLE] Error added at CPU cycle 4114636393, next at 4120887601, pending count: 1
[DRAM_CYCLE_ERROR] Cycle-based error applied! address=0x691970220 additional_latency=173500 cycles
[ERROR_CYCLE] Error added at CPU cycle 4120887601, next at 4162672645, pending count: 1
[DRAM_CYCLE_ERROR] Cycle-based error applied! address=0x1f291b188 additional_latency=173500 cycles
Heartbeat CPU 0 instructions: 1760000284 cycles: 4132530696 heartbeat IPC: 0.4111 cumulative IPC: 0.4259 (Simulation time: 07 hr 22 min 22 sec)
Heartbeat CPU 0 instructions: 1770000287 cycles: 4156577295 heartbeat IPC: 0.4159 cumulative IPC: 0.4258 (Simulation time: 07 hr 24 min 54 sec)
[ERROR_CYCLE] Error added at CPU cycle 4162672645, next at 4173022292, pending count: 1
[DRAM_CYCLE_ERROR] Cycle-based error applied! address=0x639cca7e0 additional_latency=173500 cycles
[ERROR_CYCLE] Error added at CPU cycle 4173022292, next at 4244187636, pending count: 1
[DRAM_CYCLE_ERROR] Cycle-based error applied! address=0x12e2d4568 additional_latency=173500 cycles
Heartbeat CPU 0 instructions: 1780000287 cycles: 4180202134 heartbeat IPC: 0.4233 cumulative IPC: 0.4258 (Simulation time: 07 hr 27 min 07 sec)
Heartbeat CPU 0 instructions: 1790000288 cycles: 4203827168 heartbeat IPC: 0.4233 cumulative IPC: 0.4258 (Simulation time: 07 hr 29 min 14 sec)
Heartbeat CPU 0 instructions: 1800000289 cycles: 4227686402 heartbeat IPC: 0.4191 cumulative IPC: 0.4258 (Simulation time: 07 hr 31 min 28 sec)
[ERROR_CYCLE] Error added at CPU cycle 4244187637, next at 4254188233, pending count: 1
[DRAM_CYCLE_ERROR] Cycle-based error applied! address=0x616a31940 additional_latency=173500 cycles
Heartbeat CPU 0 instructions: 1810000291 cycles: 4251144163 heartbeat IPC: 0.4263 cumulative IPC: 0.4258 (Simulation time: 07 hr 33 min 40 sec)
[ERROR_CYCLE] Error added at CPU cycle 4254188233, next at 4271790704, pending count: 1
[DRAM_CYCLE_ERROR] Cycle-based error applied! address=0xe1e9c356 additional_latency=173500 cycles
[ERROR_CYCLE] Error added at CPU cycle 4271790704, next at 4273599493, pending count: 1
[DRAM_CYCLE_ERROR] Cycle-based error applied! address=0x66f1e0550 additional_latency=173500 cycles
[ERROR_CYCLE] Error added at CPU cycle 4273599494, next at 4278907543, pending count: 1
[DRAM_CYCLE_ERROR] Cycle-based error applied! address=0x406abaa80 additional_latency=173500 cycles
Heartbeat CPU 0 instructions: 1820000291 cycles: 4275029765 heartbeat IPC: 0.4187 cumulative IPC: 0.4257 (Simulation time: 07 hr 36 min 16 sec)
[ERROR_CYCLE] Error added at CPU cycle 4278907543, next at 4287508718, pending count: 1
[DRAM_CYCLE_ERROR] Cycle-based error applied! address=0xd0c06a58 additional_latency=173500 cycles
[ERROR_CYCLE] Error added at CPU cycle 4287508719, next at 4287666928, pending count: 1
[DRAM_CYCLE_ERROR] Cycle-based error applied! address=0xf5b53a70 additional_latency=173500 cycles
[ERROR_CYCLE] Error added at CPU cycle 4287666928, next at 4340338409, pending count: 1
[DRAM_CYCLE_ERROR] Cycle-based error applied! address=0x479035180 additional_latency=173500 cycles
Heartbeat CPU 0 instructions: 1830000294 cycles: 4298458297 heartbeat IPC: 0.4268 cumulative IPC: 0.4257 (Simulation time: 07 hr 38 min 58 sec)
Heartbeat CPU 0 instructions: 1840000297 cycles: 4321830796 heartbeat IPC: 0.4279 cumulative IPC: 0.4257 (Simulation time: 07 hr 41 min 18 sec)
[ERROR_CYCLE] Error added at CPU cycle 4340338409, next at 4341131774, pending count: 1
[DRAM_CYCLE_ERROR] Cycle-based error applied! address=0x4be7a2608 additional_latency=173500 cycles
[ERROR_CYCLE] Error added at CPU cycle 4341131774, next at 4390068554, pending count: 1
[DRAM_CYCLE_ERROR] Cycle-based error applied! address=0x16c487188 additional_latency=173500 cycles
Heartbeat CPU 0 instructions: 1850000297 cycles: 4345210900 heartbeat IPC: 0.4277 cumulative IPC: 0.4258 (Simulation time: 07 hr 43 min 20 sec)
Heartbeat CPU 0 instructions: 1860000301 cycles: 4368636879 heartbeat IPC: 0.4269 cumulative IPC: 0.4258 (Simulation time: 07 hr 45 min 32 sec)
[ERROR_CYCLE] Error added at CPU cycle 4390068555, next at 4408873084, pending count: 1
[DRAM_CYCLE_ERROR] Cycle-based error applied! address=0x327257c40 additional_latency=173500 cycles
Heartbeat CPU 0 instructions: 1870000301 cycles: 4392178717 heartbeat IPC: 0.4248 cumulative IPC: 0.4258 (Simulation time: 07 hr 48 min 00 sec)
[ERROR_CYCLE] Error added at CPU cycle 4408873084, next at 4434422424, pending count: 1
[DRAM_CYCLE_ERROR] Cycle-based error applied! address=0x2e3d1fff0 additional_latency=173500 cycles
Heartbeat CPU 0 instructions: 1880000303 cycles: 4415631982 heartbeat IPC: 0.4264 cumulative IPC: 0.4258 (Simulation time: 07 hr 50 min 40 sec)
[ERROR_CYCLE] Error added at CPU cycle 4434422425, next at 4446109608, pending count: 1
[DRAM_CYCLE_ERROR] Cycle-based error applied! address=0x1c3e4d330 additional_latency=173500 cycles
Heartbeat CPU 0 instructions: 1890000306 cycles: 4438898996 heartbeat IPC: 0.4298 cumulative IPC: 0.4258 (Simulation time: 07 hr 53 min 21 sec)
[ERROR_CYCLE] Error added at CPU cycle 4446109609, next at 4457088411, pending count: 1
[DRAM_CYCLE_ERROR] Cycle-based error applied! address=0x2f52a0d70 additional_latency=173500 cycles
[ERROR_CYCLE] Error added at CPU cycle 4457088411, next at 4464039645, pending count: 1
[DRAM_CYCLE_ERROR] Cycle-based error applied! address=0x348ee30e0 additional_latency=173500 cycles
Heartbeat CPU 0 instructions: 1900000308 cycles: 4462108221 heartbeat IPC: 0.4309 cumulative IPC: 0.4258 (Simulation time: 07 hr 55 min 38 sec)
[ERROR_CYCLE] Error added at CPU cycle 4464039645, next at 4471031865, pending count: 1
[DRAM_CYCLE_ERROR] Cycle-based error applied! address=0x68659b2e8 additional_latency=173500 cycles
[ERROR_CYCLE] Error added at CPU cycle 4471031866, next at 4475294036, pending count: 1
[DRAM_CYCLE_ERROR] Cycle-based error applied! address=0x31b4b3f10 additional_latency=173500 cycles
[ERROR_CYCLE] Error added at CPU cycle 4475294036, next at 4496160913, pending count: 1
[DRAM_CYCLE_ERROR] Cycle-based error applied! address=0x52074a138 additional_latency=173500 cycles
Heartbeat CPU 0 instructions: 1910000309 cycles: 4485140826 heartbeat IPC: 0.4342 cumulative IPC: 0.4259 (Simulation time: 07 hr 57 min 42 sec)
[ERROR_CYCLE] Error added at CPU cycle 4496160913, next at 4537111940, pending count: 1
[DRAM_CYCLE_ERROR] Cycle-based error applied! address=0xd2604790 additional_latency=173500 cycles
Heartbeat CPU 0 instructions: 1920000312 cycles: 4508935592 heartbeat IPC: 0.4203 cumulative IPC: 0.4258 (Simulation time: 08 hr 00 min 05 sec)
Heartbeat CPU 0 instructions: 1930000314 cycles: 4532852005 heartbeat IPC: 0.4181 cumulative IPC: 0.4258 (Simulation time: 08 hr 02 min 41 sec)
[ERROR_CYCLE] Error added at CPU cycle 4537111940, next at 4576964167, pending count: 1
[DRAM_CYCLE_ERROR] Cycle-based error applied! address=0x7038b3680 additional_latency=173500 cycles
Heartbeat CPU 0 instructions: 1940000318 cycles: 4556084606 heartbeat IPC: 0.4304 cumulative IPC: 0.4258 (Simulation time: 08 hr 05 min 21 sec)
[ERROR_CYCLE] Error added at CPU cycle 4576964168, next at 4588597861, pending count: 1
[DRAM_CYCLE_ERROR] Cycle-based error applied! address=0x235cfa628 additional_latency=173500 cycles
Heartbeat CPU 0 instructions: 1950000321 cycles: 4579514088 heartbeat IPC: 0.4268 cumulative IPC: 0.4258 (Simulation time: 08 hr 08 min 03 sec)
[ERROR_CYCLE] Error added at CPU cycle 4588597861, next at 4590147879, pending count: 1
[DRAM_CYCLE_ERROR] Cycle-based error applied! address=0x7f01908d8 additional_latency=173500 cycles
[ERROR_CYCLE] Error added at CPU cycle 4590147880, next at 4593734082, pending count: 1
[DRAM_CYCLE_ERROR] Cycle-based error applied! address=0x1ecfb6de8 additional_latency=173500 cycles
[ERROR_CYCLE] Error added at CPU cycle 4593734083, next at 4611519060, pending count: 1
[DRAM_CYCLE_ERROR] Cycle-based error applied! address=0x1d7b1330 additional_latency=173500 cycles
Heartbeat CPU 0 instructions: 1960000324 cycles: 4602768906 heartbeat IPC: 0.43 cumulative IPC: 0.4258 (Simulation time: 08 hr 10 min 43 sec)
[ERROR_CYCLE] Error added at CPU cycle 4611519060, next at 4635178315, pending count: 1
[DRAM_CYCLE_ERROR] Cycle-based error applied! address=0x5a2244af0 additional_latency=173500 cycles
Heartbeat CPU 0 instructions: 1970000327 cycles: 4626008732 heartbeat IPC: 0.4303 cumulative IPC: 0.4259 (Simulation time: 08 hr 13 min 24 sec)
[ERROR_CYCLE] Error added at CPU cycle 4635178316, next at 4638680803, pending count: 1
[DRAM_CYCLE_ERROR] Cycle-based error applied! address=0x419cc52c0 additional_latency=173500 cycles
[ERROR_CYCLE] Error added at CPU cycle 4638680803, next at 4643261021, pending count: 1
[DRAM_CYCLE_ERROR] Cycle-based error applied! address=0x86509ee0 additional_latency=173500 cycles
[ERROR_CYCLE] Error added at CPU cycle 4643261021, next at 4656461508, pending count: 1
[DRAM_CYCLE_ERROR] Cycle-based error applied! address=0x23dc4fed8 additional_latency=173500 cycles
Heartbeat CPU 0 instructions: 1980000327 cycles: 4649275851 heartbeat IPC: 0.4298 cumulative IPC: 0.4259 (Simulation time: 08 hr 16 min 05 sec)
[ERROR_CYCLE] Error added at CPU cycle 4656461508, next at 4660984895, pending count: 1
[DRAM_CYCLE_ERROR] Cycle-based error applied! address=0x68ee12160 additional_latency=173500 cycles
[ERROR_CYCLE] Error added at CPU cycle 4660984896, next at 4662333840, pending count: 1
[DRAM_CYCLE_ERROR] Cycle-based error applied! address=0x37cf2280 additional_latency=173500 cycles
[ERROR_CYCLE] Error added at CPU cycle 4662333841, next at 4664628811, pending count: 1
[DRAM_CYCLE_ERROR] Cycle-based error applied! address=0x5333bebd0 additional_latency=173500 cycles
[ERROR_CYCLE] Error added at CPU cycle 4664628811, next at 4668127727, pending count: 1
[DRAM_CYCLE_ERROR] Cycle-based error applied! address=0x131a5a1f0 additional_latency=173500 cycles
[ERROR_CYCLE] Error added at CPU cycle 4668127727, next at 4751251435, pending count: 1
[DRAM_CYCLE_ERROR] Cycle-based error applied! address=0x1ccc67740 additional_latency=173500 cycles
Heartbeat CPU 0 instructions: 1990000329 cycles: 4672320691 heartbeat IPC: 0.4339 cumulative IPC: 0.4259 (Simulation time: 08 hr 18 min 40 sec)

=== ERROR PAGE STATISTICS ===
Mode: CYCLE
Error Cycle Interval: 20000000 CPU cycles
Total Error Accesses: 259
==============================
Simulation finished CPU 0 instructions: 1999999986 cycles: 4695483261 cumulative IPC: 0.4259 (Simulation time: 08 hr 21 min 07 sec)
Simulation complete CPU 0 instructions: 1999999986 cycles: 4695483261 cumulative IPC: 0.4259 (Simulation time: 08 hr 21 min 07 sec)

ChampSim completed all CPUs

=== Simulation ===
CPU 0 runs test_traces/620.omnetpp_s-141B.champsimtrace.xz

Region of Interest Statistics

CPU 0 cumulative IPC: 0.4259 instructions: 1999999986 cycles: 4695483261
CPU 0 Branch Prediction Accuracy: 92.96% MPKI: 14.8 Average ROB Occupancy at Mispredict: 41.91
Branch type MPKI
BRANCH_DIRECT_JUMP: 0.8484
BRANCH_INDIRECT: 0.3555
BRANCH_CONDITIONAL: 12.32
BRANCH_DIRECT_CALL: 0.0001295
BRANCH_INDIRECT_CALL: 0.8457
BRANCH_RETURN: 0.4309

cpu0->cpu0_STLB TOTAL        ACCESS:   44699016 HIT:   35105444 MISS:    9593572 MSHR_MERGE:          0
cpu0->cpu0_STLB LOAD         ACCESS:   44699016 HIT:   35105444 MISS:    9593572 MSHR_MERGE:          0
cpu0->cpu0_STLB RFO          ACCESS:          0 HIT:          0 MISS:          0 MSHR_MERGE:          0
cpu0->cpu0_STLB PREFETCH     ACCESS:          0 HIT:          0 MISS:          0 MSHR_MERGE:          0
cpu0->cpu0_STLB WRITE        ACCESS:          0 HIT:          0 MISS:          0 MSHR_MERGE:          0
cpu0->cpu0_STLB TRANSLATION  ACCESS:          0 HIT:          0 MISS:          0 MSHR_MERGE:          0
cpu0->cpu0_STLB PREFETCH REQUESTED:          0 ISSUED:          0 USEFUL:          0 USELESS:          0
cpu0->cpu0_STLB AVERAGE MISS LATENCY: 211.3 cycles
cpu0->cpu0_L2C TOTAL        ACCESS:   56650625 HIT:   29474181 MISS:   27176444 MSHR_MERGE:          0
cpu0->cpu0_L2C LOAD         ACCESS:   33708900 HIT:   10158785 MISS:   23550115 MSHR_MERGE:          0
cpu0->cpu0_L2C RFO          ACCESS:    4838672 HIT:    1237001 MISS:    3601671 MSHR_MERGE:          0
cpu0->cpu0_L2C PREFETCH     ACCESS:          0 HIT:          0 MISS:          0 MSHR_MERGE:          0
cpu0->cpu0_L2C WRITE        ACCESS:   18103053 HIT:   18078395 MISS:      24658 MSHR_MERGE:          0
cpu0->cpu0_L2C TRANSLATION  ACCESS:          0 HIT:          0 MISS:          0 MSHR_MERGE:          0
cpu0->cpu0_L2C PREFETCH REQUESTED:          0 ISSUED:          0 USEFUL:          0 USELESS:          0
cpu0->cpu0_L2C AVERAGE MISS LATENCY: 88.62 cycles
cpu0->cpu0_L1I TOTAL        ACCESS:  269084356 HIT:  267368685 MISS:    1715671 MSHR_MERGE:     426675
cpu0->cpu0_L1I LOAD         ACCESS:  269084356 HIT:  267368685 MISS:    1715671 MSHR_MERGE:     426675
cpu0->cpu0_L1I RFO          ACCESS:          0 HIT:          0 MISS:          0 MSHR_MERGE:          0
cpu0->cpu0_L1I PREFETCH     ACCESS:          0 HIT:          0 MISS:          0 MSHR_MERGE:          0
cpu0->cpu0_L1I WRITE        ACCESS:          0 HIT:          0 MISS:          0 MSHR_MERGE:          0
cpu0->cpu0_L1I TRANSLATION  ACCESS:          0 HIT:          0 MISS:          0 MSHR_MERGE:          0
cpu0->cpu0_L1I PREFETCH REQUESTED:          0 ISSUED:          0 USEFUL:          0 USELESS:          0
cpu0->cpu0_L1I AVERAGE MISS LATENCY: 12.03 cycles
cpu0->cpu0_L1D TOTAL        ACCESS:  807221946 HIT:  750531834 MISS:   56690112 MSHR_MERGE:   19431441
cpu0->cpu0_L1D LOAD         ACCESS:  439364735 HIT:  396763540 MISS:   42601195 MSHR_MERGE:   10181224
cpu0->cpu0_L1D RFO          ACCESS:          0 HIT:          0 MISS:          0 MSHR_MERGE:          0
cpu0->cpu0_L1D PREFETCH     ACCESS:          0 HIT:          0 MISS:          0 MSHR_MERGE:          0
cpu0->cpu0_L1D WRITE        ACCESS:  367857211 HIT:  353768294 MISS:   14088917 MSHR_MERGE:    9250217
cpu0->cpu0_L1D TRANSLATION  ACCESS:          0 HIT:          0 MISS:          0 MSHR_MERGE:          0
cpu0->cpu0_L1D PREFETCH REQUESTED:          0 ISSUED:          0 USEFUL:          0 USELESS:          0
cpu0->cpu0_L1D AVERAGE MISS LATENCY: 73.28 cycles
cpu0->cpu0_ITLB TOTAL        ACCESS:  237499674 HIT:  231441687 MISS:    6057987 MSHR_MERGE:    2945967
cpu0->cpu0_ITLB LOAD         ACCESS:  237499674 HIT:  231441687 MISS:    6057987 MSHR_MERGE:    2945967
cpu0->cpu0_ITLB RFO          ACCESS:          0 HIT:          0 MISS:          0 MSHR_MERGE:          0
cpu0->cpu0_ITLB PREFETCH     ACCESS:          0 HIT:          0 MISS:          0 MSHR_MERGE:          0
cpu0->cpu0_ITLB WRITE        ACCESS:          0 HIT:          0 MISS:          0 MSHR_MERGE:          0
cpu0->cpu0_ITLB TRANSLATION  ACCESS:          0 HIT:          0 MISS:          0 MSHR_MERGE:          0
cpu0->cpu0_ITLB PREFETCH REQUESTED:          0 ISSUED:          0 USEFUL:          0 USELESS:          0
cpu0->cpu0_ITLB AVERAGE MISS LATENCY: 7.246 cycles
cpu0->cpu0_DTLB TOTAL        ACCESS:  695414823 HIT:  647431829 MISS:   47982994 MSHR_MERGE:    6395998
cpu0->cpu0_DTLB LOAD         ACCESS:  695414823 HIT:  647431829 MISS:   47982994 MSHR_MERGE:    6395998
cpu0->cpu0_DTLB RFO          ACCESS:          0 HIT:          0 MISS:          0 MSHR_MERGE:          0
cpu0->cpu0_DTLB PREFETCH     ACCESS:          0 HIT:          0 MISS:          0 MSHR_MERGE:          0
cpu0->cpu0_DTLB WRITE        ACCESS:          0 HIT:          0 MISS:          0 MSHR_MERGE:          0
cpu0->cpu0_DTLB TRANSLATION  ACCESS:          0 HIT:          0 MISS:          0 MSHR_MERGE:          0
cpu0->cpu0_DTLB PREFETCH REQUESTED:          0 ISSUED:          0 USEFUL:          0 USELESS:          0
cpu0->cpu0_DTLB AVERAGE MISS LATENCY: 53.81 cycles
cpu0->LLC TOTAL        ACCESS:   40308080 HIT:   19739627 MISS:   20568453 MSHR_MERGE:          0
cpu0->LLC LOAD         ACCESS:   23550115 HIT:    5189042 MISS:   18361073 MSHR_MERGE:          0
cpu0->LLC RFO          ACCESS:    3601671 HIT:    1442535 MISS:    2159136 MSHR_MERGE:          0
cpu0->LLC PREFETCH     ACCESS:          0 HIT:          0 MISS:          0 MSHR_MERGE:          0
cpu0->LLC WRITE        ACCESS:   13156294 HIT:   13108050 MISS:      48244 MSHR_MERGE:          0
cpu0->LLC TRANSLATION  ACCESS:          0 HIT:          0 MISS:          0 MSHR_MERGE:          0
cpu0->LLC PREFETCH REQUESTED:          0 ISSUED:          0 USEFUL:          0 USELESS:          0
cpu0->LLC AVERAGE MISS LATENCY: 96.3 cycles

DRAM Statistics

Channel 0 RQ ROW_BUFFER_HIT:     444879
  ROW_BUFFER_MISS:   21178487
  AVG DBUS CONGESTED CYCLE: 13.51
Channel 0 WQ ROW_BUFFER_HIT:     984956
  ROW_BUFFER_MISS:    3762001
  FULL:          0
Channel 0 REFRESHES ISSUED:     391265

Channel 1 RQ ROW_BUFFER_HIT:     465092
  ROW_BUFFER_MISS:   21428547
  AVG DBUS CONGESTED CYCLE: 13.49
Channel 1 WQ ROW_BUFFER_HIT:     984609
  ROW_BUFFER_MISS:    3769266
  FULL:          0
Channel 1 REFRESHES ISSUED:     391265
