[VMEM] WARNING: physical memory size is smaller than virtual memory size.

*** ChampSim Multicore Out-of-Order Simulator ***
Warmup Instructions: 0
Simulation Instructions: 9223372036854775807
Number of CPUs: 1
Page size: 2097152

Off-chip DRAM Size: 32 GiB Channels: 2 Width: 32-bit Data Rate: 4807 MT/s
[ERROR_PAGE_MANAGER] Error latency: 1990500 
[ERROR_PAGE_MANAGER] Random seed: 54321 (fixed for preload reproducibility)
[ERROR_PAGE_MANAGER] Cycle-based error modeling enabled
[ERROR_PAGE_MANAGER] Errors per interval: 1
[ERROR_PAGE_MANAGER] Error cycle interval: 2000000000 cycles

=== ERROR PAGE STATISTICS ===
Mode: CYCLE
Error Cycle Interval: 2000000000 CPU cycles
Total Error Accesses: 0
==============================
Warmup finished CPU 0 instructions: 0 cycles: 1 cumulative IPC: 0 (Simulation time: 00 hr 00 min 00 sec)
Warmup complete CPU 0 instructions: 0 cycles: 1 cumulative IPC: 0 (Simulation time: 00 hr 00 min 00 sec)
Heartbeat CPU 0 instructions: 10000001 cycles: 10917800 heartbeat IPC: 0.9159 cumulative IPC: 0.9159 (Simulation time: 00 hr 01 min 34 sec)
Heartbeat CPU 0 instructions: 20000004 cycles: 21708684 heartbeat IPC: 0.9267 cumulative IPC: 0.9213 (Simulation time: 00 hr 02 min 56 sec)
Heartbeat CPU 0 instructions: 30000005 cycles: 32490287 heartbeat IPC: 0.9275 cumulative IPC: 0.9234 (Simulation time: 00 hr 04 min 36 sec)
Heartbeat CPU 0 instructions: 40000008 cycles: 43388029 heartbeat IPC: 0.9176 cumulative IPC: 0.9219 (Simulation time: 00 hr 06 min 21 sec)
Heartbeat CPU 0 instructions: 50000010 cycles: 54203516 heartbeat IPC: 0.9246 cumulative IPC: 0.9224 (Simulation time: 00 hr 08 min 05 sec)
Heartbeat CPU 0 instructions: 60000010 cycles: 64992420 heartbeat IPC: 0.9269 cumulative IPC: 0.9232 (Simulation time: 00 hr 09 min 50 sec)
Heartbeat CPU 0 instructions: 70000012 cycles: 75758783 heartbeat IPC: 0.9288 cumulative IPC: 0.924 (Simulation time: 00 hr 11 min 35 sec)
Heartbeat CPU 0 instructions: 80000015 cycles: 86659761 heartbeat IPC: 0.9173 cumulative IPC: 0.9232 (Simulation time: 00 hr 13 min 21 sec)
Heartbeat CPU 0 instructions: 90000018 cycles: 97437894 heartbeat IPC: 0.9278 cumulative IPC: 0.9237 (Simulation time: 00 hr 15 min 06 sec)
Heartbeat CPU 0 instructions: 100000021 cycles: 108314319 heartbeat IPC: 0.9194 cumulative IPC: 0.9232 (Simulation time: 00 hr 16 min 51 sec)
Heartbeat CPU 0 instructions: 110000022 cycles: 119270009 heartbeat IPC: 0.9128 cumulative IPC: 0.9223 (Simulation time: 00 hr 18 min 37 sec)
Heartbeat CPU 0 instructions: 120000025 cycles: 130332001 heartbeat IPC: 0.904 cumulative IPC: 0.9207 (Simulation time: 00 hr 20 min 19 sec)
Heartbeat CPU 0 instructions: 130000029 cycles: 141152478 heartbeat IPC: 0.9242 cumulative IPC: 0.921 (Simulation time: 00 hr 21 min 58 sec)
Heartbeat CPU 0 instructions: 140000029 cycles: 151967629 heartbeat IPC: 0.9246 cumulative IPC: 0.9212 (Simulation time: 00 hr 23 min 26 sec)
Heartbeat CPU 0 instructions: 150000029 cycles: 162776839 heartbeat IPC: 0.9251 cumulative IPC: 0.9215 (Simulation time: 00 hr 24 min 57 sec)
Heartbeat CPU 0 instructions: 160000031 cycles: 173636304 heartbeat IPC: 0.9209 cumulative IPC: 0.9215 (Simulation time: 00 hr 26 min 30 sec)
Heartbeat CPU 0 instructions: 170000031 cycles: 184483053 heartbeat IPC: 0.9219 cumulative IPC: 0.9215 (Simulation time: 00 hr 28 min 14 sec)
Heartbeat CPU 0 instructions: 180000032 cycles: 195410240 heartbeat IPC: 0.9151 cumulative IPC: 0.9211 (Simulation time: 00 hr 29 min 58 sec)
Heartbeat CPU 0 instructions: 190000036 cycles: 206325148 heartbeat IPC: 0.9162 cumulative IPC: 0.9209 (Simulation time: 00 hr 31 min 44 sec)
Heartbeat CPU 0 instructions: 200000039 cycles: 217103755 heartbeat IPC: 0.9278 cumulative IPC: 0.9212 (Simulation time: 00 hr 33 min 26 sec)
Heartbeat CPU 0 instructions: 210000041 cycles: 228022486 heartbeat IPC: 0.9159 cumulative IPC: 0.921 (Simulation time: 00 hr 35 min 13 sec)
Heartbeat CPU 0 instructions: 220000041 cycles: 238823971 heartbeat IPC: 0.9258 cumulative IPC: 0.9212 (Simulation time: 00 hr 36 min 39 sec)
Heartbeat CPU 0 instructions: 230000041 cycles: 249636448 heartbeat IPC: 0.9249 cumulative IPC: 0.9213 (Simulation time: 00 hr 38 min 17 sec)
Heartbeat CPU 0 instructions: 240000044 cycles: 260438094 heartbeat IPC: 0.9258 cumulative IPC: 0.9215 (Simulation time: 00 hr 40 min 03 sec)
Heartbeat CPU 0 instructions: 250000048 cycles: 271255326 heartbeat IPC: 0.9245 cumulative IPC: 0.9216 (Simulation time: 00 hr 41 min 51 sec)
Heartbeat CPU 0 instructions: 260000052 cycles: 282038129 heartbeat IPC: 0.9274 cumulative IPC: 0.9219 (Simulation time: 00 hr 43 min 37 sec)
Heartbeat CPU 0 instructions: 270000052 cycles: 292836768 heartbeat IPC: 0.926 cumulative IPC: 0.922 (Simulation time: 00 hr 45 min 21 sec)
Heartbeat CPU 0 instructions: 280000054 cycles: 309685814 heartbeat IPC: 0.5935 cumulative IPC: 0.9041 (Simulation time: 00 hr 48 min 11 sec)
Heartbeat CPU 0 instructions: 290000054 cycles: 327901468 heartbeat IPC: 0.549 cumulative IPC: 0.8844 (Simulation time: 00 hr 51 min 31 sec)
Heartbeat CPU 0 instructions: 300000058 cycles: 339232318 heartbeat IPC: 0.8825 cumulative IPC: 0.8843 (Simulation time: 00 hr 53 min 05 sec)
Heartbeat CPU 0 instructions: 310000059 cycles: 350413231 heartbeat IPC: 0.8944 cumulative IPC: 0.8847 (Simulation time: 00 hr 54 min 37 sec)
Heartbeat CPU 0 instructions: 320000059 cycles: 361564002 heartbeat IPC: 0.8968 cumulative IPC: 0.885 (Simulation time: 00 hr 56 min 25 sec)
Heartbeat CPU 0 instructions: 330000061 cycles: 372629032 heartbeat IPC: 0.9037 cumulative IPC: 0.8856 (Simulation time: 00 hr 58 min 07 sec)
Heartbeat CPU 0 instructions: 340000061 cycles: 383639120 heartbeat IPC: 0.9083 cumulative IPC: 0.8862 (Simulation time: 00 hr 59 min 52 sec)
Heartbeat CPU 0 instructions: 350000062 cycles: 394608067 heartbeat IPC: 0.9117 cumulative IPC: 0.887 (Simulation time: 01 hr 01 min 32 sec)
Heartbeat CPU 0 instructions: 360000066 cycles: 405576774 heartbeat IPC: 0.9117 cumulative IPC: 0.8876 (Simulation time: 01 hr 03 min 19 sec)
Heartbeat CPU 0 instructions: 370000067 cycles: 416535527 heartbeat IPC: 0.9125 cumulative IPC: 0.8883 (Simulation time: 01 hr 05 min 05 sec)
Heartbeat CPU 0 instructions: 380000068 cycles: 427518089 heartbeat IPC: 0.9105 cumulative IPC: 0.8889 (Simulation time: 01 hr 06 min 53 sec)
Heartbeat CPU 0 instructions: 390000069 cycles: 438640479 heartbeat IPC: 0.8991 cumulative IPC: 0.8891 (Simulation time: 01 hr 08 min 41 sec)
Heartbeat CPU 0 instructions: 400000073 cycles: 449607872 heartbeat IPC: 0.9118 cumulative IPC: 0.8897 (Simulation time: 01 hr 10 min 28 sec)
Heartbeat CPU 0 instructions: 410000073 cycles: 460609951 heartbeat IPC: 0.9089 cumulative IPC: 0.8901 (Simulation time: 01 hr 12 min 15 sec)
Heartbeat CPU 0 instructions: 420000075 cycles: 471687419 heartbeat IPC: 0.9027 cumulative IPC: 0.8904 (Simulation time: 01 hr 14 min 03 sec)
Heartbeat CPU 0 instructions: 430000079 cycles: 482660628 heartbeat IPC: 0.9113 cumulative IPC: 0.8909 (Simulation time: 01 hr 15 min 48 sec)
Heartbeat CPU 0 instructions: 440000082 cycles: 493628853 heartbeat IPC: 0.9117 cumulative IPC: 0.8914 (Simulation time: 01 hr 17 min 22 sec)
Heartbeat CPU 0 instructions: 450000086 cycles: 504592639 heartbeat IPC: 0.9121 cumulative IPC: 0.8918 (Simulation time: 01 hr 19 min 00 sec)
Heartbeat CPU 0 instructions: 460000088 cycles: 515554116 heartbeat IPC: 0.9123 cumulative IPC: 0.8922 (Simulation time: 01 hr 20 min 44 sec)
Heartbeat CPU 0 instructions: 470000089 cycles: 526502978 heartbeat IPC: 0.9133 cumulative IPC: 0.8927 (Simulation time: 01 hr 22 min 25 sec)
Heartbeat CPU 0 instructions: 480000089 cycles: 537468579 heartbeat IPC: 0.9119 cumulative IPC: 0.8931 (Simulation time: 01 hr 24 min 11 sec)
Heartbeat CPU 0 instructions: 490000091 cycles: 548413409 heartbeat IPC: 0.9137 cumulative IPC: 0.8935 (Simulation time: 01 hr 25 min 56 sec)
Heartbeat CPU 0 instructions: 500000094 cycles: 559390479 heartbeat IPC: 0.911 cumulative IPC: 0.8938 (Simulation time: 01 hr 27 min 44 sec)
Heartbeat CPU 0 instructions: 510000098 cycles: 570364632 heartbeat IPC: 0.9112 cumulative IPC: 0.8942 (Simulation time: 01 hr 29 min 22 sec)
Heartbeat CPU 0 instructions: 520000101 cycles: 581318052 heartbeat IPC: 0.913 cumulative IPC: 0.8945 (Simulation time: 01 hr 30 min 51 sec)
Heartbeat CPU 0 instructions: 530000102 cycles: 592273961 heartbeat IPC: 0.9127 cumulative IPC: 0.8949 (Simulation time: 01 hr 32 min 34 sec)
Heartbeat CPU 0 instructions: 540000103 cycles: 603242621 heartbeat IPC: 0.9117 cumulative IPC: 0.8952 (Simulation time: 01 hr 34 min 18 sec)
Heartbeat CPU 0 instructions: 550000105 cycles: 614219312 heartbeat IPC: 0.911 cumulative IPC: 0.8954 (Simulation time: 01 hr 36 min 02 sec)
Heartbeat CPU 0 instructions: 560000106 cycles: 625193989 heartbeat IPC: 0.9112 cumulative IPC: 0.8957 (Simulation time: 01 hr 37 min 46 sec)
Heartbeat CPU 0 instructions: 570000106 cycles: 636168027 heartbeat IPC: 0.9112 cumulative IPC: 0.896 (Simulation time: 01 hr 39 min 30 sec)
Heartbeat CPU 0 instructions: 580000106 cycles: 647145142 heartbeat IPC: 0.911 cumulative IPC: 0.8962 (Simulation time: 01 hr 40 min 59 sec)
Heartbeat CPU 0 instructions: 590000109 cycles: 658236274 heartbeat IPC: 0.9016 cumulative IPC: 0.8963 (Simulation time: 01 hr 42 min 22 sec)
Heartbeat CPU 0 instructions: 600000110 cycles: 669247224 heartbeat IPC: 0.9082 cumulative IPC: 0.8965 (Simulation time: 01 hr 44 min 06 sec)
Heartbeat CPU 0 instructions: 610000110 cycles: 680314814 heartbeat IPC: 0.9035 cumulative IPC: 0.8966 (Simulation time: 01 hr 45 min 36 sec)
Heartbeat CPU 0 instructions: 620000110 cycles: 691415048 heartbeat IPC: 0.9009 cumulative IPC: 0.8967 (Simulation time: 01 hr 47 min 28 sec)
Heartbeat CPU 0 instructions: 630000110 cycles: 702491078 heartbeat IPC: 0.9029 cumulative IPC: 0.8968 (Simulation time: 01 hr 49 min 20 sec)
Heartbeat CPU 0 instructions: 640000110 cycles: 713573126 heartbeat IPC: 0.9024 cumulative IPC: 0.8969 (Simulation time: 01 hr 51 min 12 sec)
Heartbeat CPU 0 instructions: 650000111 cycles: 724665985 heartbeat IPC: 0.9015 cumulative IPC: 0.897 (Simulation time: 01 hr 53 min 04 sec)
Heartbeat CPU 0 instructions: 660000112 cycles: 735718754 heartbeat IPC: 0.9048 cumulative IPC: 0.8971 (Simulation time: 01 hr 54 min 54 sec)
Heartbeat CPU 0 instructions: 670000112 cycles: 746803417 heartbeat IPC: 0.9021 cumulative IPC: 0.8972 (Simulation time: 01 hr 56 min 43 sec)
Heartbeat CPU 0 instructions: 680000115 cycles: 758008905 heartbeat IPC: 0.8924 cumulative IPC: 0.8971 (Simulation time: 01 hr 58 min 33 sec)
Heartbeat CPU 0 instructions: 690000119 cycles: 769497457 heartbeat IPC: 0.8704 cumulative IPC: 0.8967 (Simulation time: 02 hr 00 min 19 sec)
Heartbeat CPU 0 instructions: 700000119 cycles: 780343121 heartbeat IPC: 0.922 cumulative IPC: 0.897 (Simulation time: 02 hr 02 min 08 sec)
Heartbeat CPU 0 instructions: 710000119 cycles: 791198004 heartbeat IPC: 0.9212 cumulative IPC: 0.8974 (Simulation time: 02 hr 03 min 46 sec)
Heartbeat CPU 0 instructions: 720000121 cycles: 802032591 heartbeat IPC: 0.923 cumulative IPC: 0.8977 (Simulation time: 02 hr 05 min 34 sec)
Heartbeat CPU 0 instructions: 730000121 cycles: 812878436 heartbeat IPC: 0.922 cumulative IPC: 0.898 (Simulation time: 02 hr 07 min 11 sec)
Heartbeat CPU 0 instructions: 740000123 cycles: 823705216 heartbeat IPC: 0.9236 cumulative IPC: 0.8984 (Simulation time: 02 hr 08 min 59 sec)
Heartbeat CPU 0 instructions: 750000123 cycles: 834537129 heartbeat IPC: 0.9232 cumulative IPC: 0.8987 (Simulation time: 02 hr 10 min 47 sec)
Heartbeat CPU 0 instructions: 760000124 cycles: 845610211 heartbeat IPC: 0.9031 cumulative IPC: 0.8988 (Simulation time: 02 hr 12 min 37 sec)
Heartbeat CPU 0 instructions: 770000124 cycles: 856806773 heartbeat IPC: 0.8931 cumulative IPC: 0.8987 (Simulation time: 02 hr 14 min 08 sec)
Heartbeat CPU 0 instructions: 780000127 cycles: 868910622 heartbeat IPC: 0.8262 cumulative IPC: 0.8977 (Simulation time: 02 hr 16 min 08 sec)
Heartbeat CPU 0 instructions: 790000128 cycles: 881032259 heartbeat IPC: 0.825 cumulative IPC: 0.8967 (Simulation time: 02 hr 18 min 08 sec)
Heartbeat CPU 0 instructions: 800000132 cycles: 893142331 heartbeat IPC: 0.8258 cumulative IPC: 0.8957 (Simulation time: 02 hr 20 min 08 sec)
Heartbeat CPU 0 instructions: 810000136 cycles: 905238686 heartbeat IPC: 0.8267 cumulative IPC: 0.8948 (Simulation time: 02 hr 21 min 52 sec)
Heartbeat CPU 0 instructions: 820000136 cycles: 916883891 heartbeat IPC: 0.8587 cumulative IPC: 0.8943 (Simulation time: 02 hr 23 min 29 sec)
Heartbeat CPU 0 instructions: 830000137 cycles: 928411564 heartbeat IPC: 0.8675 cumulative IPC: 0.894 (Simulation time: 02 hr 24 min 56 sec)
Heartbeat CPU 0 instructions: 840000139 cycles: 939993571 heartbeat IPC: 0.8634 cumulative IPC: 0.8936 (Simulation time: 02 hr 26 min 48 sec)
Heartbeat CPU 0 instructions: 850000140 cycles: 951580323 heartbeat IPC: 0.8631 cumulative IPC: 0.8933 (Simulation time: 02 hr 28 min 11 sec)
Heartbeat CPU 0 instructions: 860000142 cycles: 963450944 heartbeat IPC: 0.8424 cumulative IPC: 0.8926 (Simulation time: 02 hr 29 min 29 sec)
Heartbeat CPU 0 instructions: 870000145 cycles: 975505732 heartbeat IPC: 0.8295 cumulative IPC: 0.8918 (Simulation time: 02 hr 31 min 13 sec)
Heartbeat CPU 0 instructions: 880000147 cycles: 987624476 heartbeat IPC: 0.8252 cumulative IPC: 0.891 (Simulation time: 02 hr 33 min 13 sec)
Heartbeat CPU 0 instructions: 890000147 cycles: 999839395 heartbeat IPC: 0.8187 cumulative IPC: 0.8901 (Simulation time: 02 hr 35 min 12 sec)
Heartbeat CPU 0 instructions: 900000150 cycles: 1011861844 heartbeat IPC: 0.8318 cumulative IPC: 0.8894 (Simulation time: 02 hr 37 min 04 sec)
Heartbeat CPU 0 instructions: 910000151 cycles: 1023522756 heartbeat IPC: 0.8576 cumulative IPC: 0.8891 (Simulation time: 02 hr 39 min 00 sec)
Heartbeat CPU 0 instructions: 920000151 cycles: 1035138026 heartbeat IPC: 0.8609 cumulative IPC: 0.8888 (Simulation time: 02 hr 40 min 57 sec)
Heartbeat CPU 0 instructions: 930000151 cycles: 1046637733 heartbeat IPC: 0.8696 cumulative IPC: 0.8886 (Simulation time: 02 hr 42 min 52 sec)
Heartbeat CPU 0 instructions: 940000153 cycles: 1058202367 heartbeat IPC: 0.8647 cumulative IPC: 0.8883 (Simulation time: 02 hr 44 min 47 sec)
Heartbeat CPU 0 instructions: 950000156 cycles: 1070426094 heartbeat IPC: 0.8181 cumulative IPC: 0.8875 (Simulation time: 02 hr 46 min 48 sec)
Heartbeat CPU 0 instructions: 960000160 cycles: 1082686650 heartbeat IPC: 0.8156 cumulative IPC: 0.8867 (Simulation time: 02 hr 48 min 47 sec)
Heartbeat CPU 0 instructions: 970000161 cycles: 1094784255 heartbeat IPC: 0.8266 cumulative IPC: 0.886 (Simulation time: 02 hr 50 min 43 sec)
Heartbeat CPU 0 instructions: 980000162 cycles: 1106857734 heartbeat IPC: 0.8283 cumulative IPC: 0.8854 (Simulation time: 02 hr 52 min 40 sec)
Heartbeat CPU 0 instructions: 990000165 cycles: 1118590404 heartbeat IPC: 0.8523 cumulative IPC: 0.885 (Simulation time: 02 hr 54 min 36 sec)
Heartbeat CPU 0 instructions: 1000000165 cycles: 1130125414 heartbeat IPC: 0.8669 cumulative IPC: 0.8849 (Simulation time: 02 hr 56 min 29 sec)
Heartbeat CPU 0 instructions: 1010000168 cycles: 1141675889 heartbeat IPC: 0.8658 cumulative IPC: 0.8847 (Simulation time: 02 hr 58 min 19 sec)
Heartbeat CPU 0 instructions: 1020000172 cycles: 1153185334 heartbeat IPC: 0.8689 cumulative IPC: 0.8845 (Simulation time: 03 hr 00 min 03 sec)
Heartbeat CPU 0 instructions: 1030000174 cycles: 1166546363 heartbeat IPC: 0.7484 cumulative IPC: 0.8829 (Simulation time: 03 hr 02 min 07 sec)
Heartbeat CPU 0 instructions: 1040000174 cycles: 1178659445 heartbeat IPC: 0.8256 cumulative IPC: 0.8824 (Simulation time: 03 hr 04 min 04 sec)
Heartbeat CPU 0 instructions: 1050000175 cycles: 1190414132 heartbeat IPC: 0.8507 cumulative IPC: 0.882 (Simulation time: 03 hr 05 min 57 sec)
Heartbeat CPU 0 instructions: 1060000178 cycles: 1202186717 heartbeat IPC: 0.8494 cumulative IPC: 0.8817 (Simulation time: 03 hr 07 min 51 sec)
Heartbeat CPU 0 instructions: 1070000182 cycles: 1213901190 heartbeat IPC: 0.8536 cumulative IPC: 0.8815 (Simulation time: 03 hr 09 min 43 sec)
Heartbeat CPU 0 instructions: 1080000183 cycles: 1225450101 heartbeat IPC: 0.8659 cumulative IPC: 0.8813 (Simulation time: 03 hr 11 min 36 sec)
Heartbeat CPU 0 instructions: 1090000186 cycles: 1236850929 heartbeat IPC: 0.8771 cumulative IPC: 0.8813 (Simulation time: 03 hr 13 min 28 sec)
Heartbeat CPU 0 instructions: 1100000186 cycles: 1248206325 heartbeat IPC: 0.8806 cumulative IPC: 0.8813 (Simulation time: 03 hr 15 min 19 sec)
Heartbeat CPU 0 instructions: 1110000188 cycles: 1259458475 heartbeat IPC: 0.8887 cumulative IPC: 0.8813 (Simulation time: 03 hr 17 min 07 sec)
Heartbeat CPU 0 instructions: 1120000190 cycles: 1270715850 heartbeat IPC: 0.8883 cumulative IPC: 0.8814 (Simulation time: 03 hr 18 min 34 sec)
Heartbeat CPU 0 instructions: 1130000191 cycles: 1282617458 heartbeat IPC: 0.8402 cumulative IPC: 0.881 (Simulation time: 03 hr 20 min 16 sec)
Heartbeat CPU 0 instructions: 1140000193 cycles: 1294540304 heartbeat IPC: 0.8387 cumulative IPC: 0.8806 (Simulation time: 03 hr 22 min 11 sec)
Heartbeat CPU 0 instructions: 1150000196 cycles: 1306235439 heartbeat IPC: 0.8551 cumulative IPC: 0.8804 (Simulation time: 03 hr 24 min 04 sec)
Heartbeat CPU 0 instructions: 1160000196 cycles: 1317917848 heartbeat IPC: 0.856 cumulative IPC: 0.8802 (Simulation time: 03 hr 25 min 57 sec)
Heartbeat CPU 0 instructions: 1170000199 cycles: 1329301597 heartbeat IPC: 0.8784 cumulative IPC: 0.8802 (Simulation time: 03 hr 27 min 49 sec)
Heartbeat CPU 0 instructions: 1180000199 cycles: 1340715445 heartbeat IPC: 0.8761 cumulative IPC: 0.8801 (Simulation time: 03 hr 29 min 38 sec)
Heartbeat CPU 0 instructions: 1190000203 cycles: 1352130230 heartbeat IPC: 0.8761 cumulative IPC: 0.8801 (Simulation time: 03 hr 31 min 09 sec)
Heartbeat CPU 0 instructions: 1200000206 cycles: 1363357500 heartbeat IPC: 0.8907 cumulative IPC: 0.8802 (Simulation time: 03 hr 32 min 42 sec)
Heartbeat CPU 0 instructions: 1210000210 cycles: 1374731833 heartbeat IPC: 0.8792 cumulative IPC: 0.8802 (Simulation time: 03 hr 34 min 36 sec)
Heartbeat CPU 0 instructions: 1220000210 cycles: 1386580794 heartbeat IPC: 0.844 cumulative IPC: 0.8799 (Simulation time: 03 hr 36 min 29 sec)
Heartbeat CPU 0 instructions: 1230000212 cycles: 1398455715 heartbeat IPC: 0.8421 cumulative IPC: 0.8795 (Simulation time: 03 hr 38 min 27 sec)
Heartbeat CPU 0 instructions: 1240000213 cycles: 1410241595 heartbeat IPC: 0.8485 cumulative IPC: 0.8793 (Simulation time: 03 hr 40 min 24 sec)
Heartbeat CPU 0 instructions: 1250000215 cycles: 1421969579 heartbeat IPC: 0.8527 cumulative IPC: 0.8791 (Simulation time: 03 hr 42 min 21 sec)
[ERROR_CYCLE] Error added at CPU cycle 1425561136, next at 1830661257, pending count: 1
[DRAM_CYCLE_ERROR] Cycle-based error applied! address=0x159171c0 additional_latency=1990500 cycles
Heartbeat CPU 0 instructions: 1260000215 cycles: 1433402165 heartbeat IPC: 0.8747 cumulative IPC: 0.879 (Simulation time: 03 hr 44 min 16 sec)
Heartbeat CPU 0 instructions: 1270000215 cycles: 1444772568 heartbeat IPC: 0.8795 cumulative IPC: 0.879 (Simulation time: 03 hr 46 min 10 sec)
Heartbeat CPU 0 instructions: 1280000219 cycles: 1456023623 heartbeat IPC: 0.8888 cumulative IPC: 0.8791 (Simulation time: 03 hr 48 min 04 sec)
Heartbeat CPU 0 instructions: 1290000222 cycles: 1467239015 heartbeat IPC: 0.8916 cumulative IPC: 0.8792 (Simulation time: 03 hr 49 min 57 sec)
Heartbeat CPU 0 instructions: 1300000224 cycles: 1494695706 heartbeat IPC: 0.3642 cumulative IPC: 0.8697 (Simulation time: 03 hr 54 min 35 sec)
Heartbeat CPU 0 instructions: 1310000224 cycles: 1507156058 heartbeat IPC: 0.8025 cumulative IPC: 0.8692 (Simulation time: 03 hr 56 min 30 sec)
Heartbeat CPU 0 instructions: 1320000224 cycles: 1518876327 heartbeat IPC: 0.8532 cumulative IPC: 0.8691 (Simulation time: 03 hr 58 min 19 sec)
Heartbeat CPU 0 instructions: 1330000224 cycles: 1530548695 heartbeat IPC: 0.8567 cumulative IPC: 0.869 (Simulation time: 04 hr 00 min 07 sec)
Heartbeat CPU 0 instructions: 1340000226 cycles: 1542336938 heartbeat IPC: 0.8483 cumulative IPC: 0.8688 (Simulation time: 04 hr 01 min 57 sec)
Heartbeat CPU 0 instructions: 1350000226 cycles: 1554307793 heartbeat IPC: 0.8354 cumulative IPC: 0.8686 (Simulation time: 04 hr 03 min 48 sec)
Heartbeat CPU 0 instructions: 1360000227 cycles: 1565875117 heartbeat IPC: 0.8645 cumulative IPC: 0.8685 (Simulation time: 04 hr 05 min 36 sec)
Heartbeat CPU 0 instructions: 1370000227 cycles: 1577128805 heartbeat IPC: 0.8886 cumulative IPC: 0.8687 (Simulation time: 04 hr 07 min 21 sec)
Heartbeat CPU 0 instructions: 1380000231 cycles: 1588758474 heartbeat IPC: 0.8599 cumulative IPC: 0.8686 (Simulation time: 04 hr 09 min 10 sec)
Heartbeat CPU 0 instructions: 1390000235 cycles: 1600372874 heartbeat IPC: 0.861 cumulative IPC: 0.8685 (Simulation time: 04 hr 10 min 58 sec)
Heartbeat CPU 0 instructions: 1400000236 cycles: 1612056330 heartbeat IPC: 0.8559 cumulative IPC: 0.8685 (Simulation time: 04 hr 12 min 47 sec)
Heartbeat CPU 0 instructions: 1410000236 cycles: 1623972572 heartbeat IPC: 0.8392 cumulative IPC: 0.8682 (Simulation time: 04 hr 14 min 38 sec)
Heartbeat CPU 0 instructions: 1420000237 cycles: 1636218850 heartbeat IPC: 0.8166 cumulative IPC: 0.8679 (Simulation time: 04 hr 16 min 31 sec)
Heartbeat CPU 0 instructions: 1430000239 cycles: 1648211809 heartbeat IPC: 0.8338 cumulative IPC: 0.8676 (Simulation time: 04 hr 18 min 22 sec)
Heartbeat CPU 0 instructions: 1440000239 cycles: 1660105983 heartbeat IPC: 0.8407 cumulative IPC: 0.8674 (Simulation time: 04 hr 20 min 12 sec)
Heartbeat CPU 0 instructions: 1450000243 cycles: 1671782913 heartbeat IPC: 0.8564 cumulative IPC: 0.8673 (Simulation time: 04 hr 21 min 54 sec)
Heartbeat CPU 0 instructions: 1460000247 cycles: 1683544420 heartbeat IPC: 0.8502 cumulative IPC: 0.8672 (Simulation time: 04 hr 23 min 36 sec)
Heartbeat CPU 0 instructions: 1470000248 cycles: 1695288957 heartbeat IPC: 0.8515 cumulative IPC: 0.8671 (Simulation time: 04 hr 25 min 25 sec)
Heartbeat CPU 0 instructions: 1480000248 cycles: 1707032478 heartbeat IPC: 0.8515 cumulative IPC: 0.867 (Simulation time: 04 hr 27 min 15 sec)
Heartbeat CPU 0 instructions: 1490000250 cycles: 1718720224 heartbeat IPC: 0.8556 cumulative IPC: 0.8669 (Simulation time: 04 hr 29 min 01 sec)
Heartbeat CPU 0 instructions: 1500000253 cycles: 1729959999 heartbeat IPC: 0.8897 cumulative IPC: 0.8671 (Simulation time: 04 hr 30 min 41 sec)
Heartbeat CPU 0 instructions: 1510000256 cycles: 1741509769 heartbeat IPC: 0.8658 cumulative IPC: 0.8671 (Simulation time: 04 hr 32 min 27 sec)
Heartbeat CPU 0 instructions: 1520000259 cycles: 1753200056 heartbeat IPC: 0.8554 cumulative IPC: 0.867 (Simulation time: 04 hr 34 min 00 sec)
Heartbeat CPU 0 instructions: 1530000259 cycles: 1764803344 heartbeat IPC: 0.8618 cumulative IPC: 0.867 (Simulation time: 04 hr 35 min 39 sec)
Heartbeat CPU 0 instructions: 1540000261 cycles: 1776494060 heartbeat IPC: 0.8554 cumulative IPC: 0.8669 (Simulation time: 04 hr 37 min 29 sec)
Heartbeat CPU 0 instructions: 1550000262 cycles: 1788592693 heartbeat IPC: 0.8265 cumulative IPC: 0.8666 (Simulation time: 04 hr 39 min 22 sec)
Heartbeat CPU 0 instructions: 1560000262 cycles: 1800645016 heartbeat IPC: 0.8297 cumulative IPC: 0.8664 (Simulation time: 04 hr 41 min 08 sec)
Heartbeat CPU 0 instructions: 1570000264 cycles: 1812599795 heartbeat IPC: 0.8365 cumulative IPC: 0.8662 (Simulation time: 04 hr 42 min 52 sec)
Heartbeat CPU 0 instructions: 1580000266 cycles: 1824378533 heartbeat IPC: 0.849 cumulative IPC: 0.866 (Simulation time: 04 hr 44 min 40 sec)
[ERROR_CYCLE] Error added at CPU cycle 1830661257, next at 5139212797, pending count: 1
[DRAM_CYCLE_ERROR] Cycle-based error applied! address=0x7f1fec8c8 additional_latency=1990500 cycles
Heartbeat CPU 0 instructions: 1590000268 cycles: 1836105380 heartbeat IPC: 0.8527 cumulative IPC: 0.866 (Simulation time: 04 hr 46 min 29 sec)
Heartbeat CPU 0 instructions: 1600000269 cycles: 1847720378 heartbeat IPC: 0.861 cumulative IPC: 0.8659 (Simulation time: 04 hr 48 min 17 sec)
Heartbeat CPU 0 instructions: 1610000272 cycles: 1859372419 heartbeat IPC: 0.8582 cumulative IPC: 0.8659 (Simulation time: 04 hr 50 min 00 sec)
Heartbeat CPU 0 instructions: 1620000274 cycles: 1871138871 heartbeat IPC: 0.8499 cumulative IPC: 0.8658 (Simulation time: 04 hr 51 min 34 sec)
Heartbeat CPU 0 instructions: 1630000274 cycles: 1882538233 heartbeat IPC: 0.8772 cumulative IPC: 0.8659 (Simulation time: 04 hr 53 min 14 sec)
Heartbeat CPU 0 instructions: 1640000274 cycles: 1893937202 heartbeat IPC: 0.8773 cumulative IPC: 0.8659 (Simulation time: 04 hr 55 min 01 sec)
Heartbeat CPU 0 instructions: 1650000277 cycles: 1905655235 heartbeat IPC: 0.8534 cumulative IPC: 0.8658 (Simulation time: 04 hr 56 min 49 sec)
Heartbeat CPU 0 instructions: 1660000281 cycles: 1917340875 heartbeat IPC: 0.8558 cumulative IPC: 0.8658 (Simulation time: 04 hr 58 min 38 sec)
Heartbeat CPU 0 instructions: 1670000284 cycles: 1929047139 heartbeat IPC: 0.8542 cumulative IPC: 0.8657 (Simulation time: 05 hr 00 min 28 sec)
Heartbeat CPU 0 instructions: 1680000284 cycles: 1941095371 heartbeat IPC: 0.83 cumulative IPC: 0.8655 (Simulation time: 05 hr 02 min 15 sec)
Heartbeat CPU 0 instructions: 1690000284 cycles: 1953264606 heartbeat IPC: 0.8217 cumulative IPC: 0.8652 (Simulation time: 05 hr 03 min 58 sec)
Heartbeat CPU 0 instructions: 1700000284 cycles: 1965274318 heartbeat IPC: 0.8327 cumulative IPC: 0.865 (Simulation time: 05 hr 05 min 40 sec)
Heartbeat CPU 0 instructions: 1710000287 cycles: 1977126351 heartbeat IPC: 0.8437 cumulative IPC: 0.8649 (Simulation time: 05 hr 07 min 13 sec)
Heartbeat CPU 0 instructions: 1720000289 cycles: 1988793593 heartbeat IPC: 0.8571 cumulative IPC: 0.8648 (Simulation time: 05 hr 09 min 00 sec)
Heartbeat CPU 0 instructions: 1730000292 cycles: 2000588551 heartbeat IPC: 0.8478 cumulative IPC: 0.8647 (Simulation time: 05 hr 10 min 49 sec)
Heartbeat CPU 0 instructions: 1740000295 cycles: 2012442700 heartbeat IPC: 0.8436 cumulative IPC: 0.8646 (Simulation time: 05 hr 12 min 39 sec)
Heartbeat CPU 0 instructions: 1750000297 cycles: 2024268726 heartbeat IPC: 0.8456 cumulative IPC: 0.8645 (Simulation time: 05 hr 14 min 28 sec)
Heartbeat CPU 0 instructions: 1760000300 cycles: 2035932876 heartbeat IPC: 0.8573 cumulative IPC: 0.8645 (Simulation time: 05 hr 16 min 05 sec)
Heartbeat CPU 0 instructions: 1770000300 cycles: 2047474838 heartbeat IPC: 0.8664 cumulative IPC: 0.8645 (Simulation time: 05 hr 17 min 54 sec)
Heartbeat CPU 0 instructions: 1780000304 cycles: 2059160945 heartbeat IPC: 0.8557 cumulative IPC: 0.8644 (Simulation time: 05 hr 19 min 44 sec)
Heartbeat CPU 0 instructions: 1790000305 cycles: 2070935765 heartbeat IPC: 0.8493 cumulative IPC: 0.8643 (Simulation time: 05 hr 21 min 35 sec)
Heartbeat CPU 0 instructions: 1800000309 cycles: 2082469680 heartbeat IPC: 0.867 cumulative IPC: 0.8644 (Simulation time: 05 hr 23 min 23 sec)
Heartbeat CPU 0 instructions: 1810000312 cycles: 2094214783 heartbeat IPC: 0.8514 cumulative IPC: 0.8643 (Simulation time: 05 hr 25 min 13 sec)
Heartbeat CPU 0 instructions: 1820000315 cycles: 2106350676 heartbeat IPC: 0.824 cumulative IPC: 0.8641 (Simulation time: 05 hr 27 min 06 sec)
Heartbeat CPU 0 instructions: 1830000315 cycles: 2118383044 heartbeat IPC: 0.8311 cumulative IPC: 0.8639 (Simulation time: 05 hr 28 min 58 sec)
Heartbeat CPU 0 instructions: 1840000319 cycles: 2130381584 heartbeat IPC: 0.8334 cumulative IPC: 0.8637 (Simulation time: 05 hr 30 min 42 sec)
Heartbeat CPU 0 instructions: 1850000322 cycles: 2142132367 heartbeat IPC: 0.851 cumulative IPC: 0.8636 (Simulation time: 05 hr 32 min 33 sec)
Heartbeat CPU 0 instructions: 1860000325 cycles: 2153910028 heartbeat IPC: 0.8491 cumulative IPC: 0.8635 (Simulation time: 05 hr 34 min 23 sec)
Heartbeat CPU 0 instructions: 1870000325 cycles: 2165677022 heartbeat IPC: 0.8498 cumulative IPC: 0.8635 (Simulation time: 05 hr 35 min 59 sec)
Heartbeat CPU 0 instructions: 1880000325 cycles: 2177361836 heartbeat IPC: 0.8558 cumulative IPC: 0.8634 (Simulation time: 05 hr 37 min 47 sec)
Heartbeat CPU 0 instructions: 1890000327 cycles: 2189146286 heartbeat IPC: 0.8486 cumulative IPC: 0.8634 (Simulation time: 05 hr 39 min 36 sec)
Heartbeat CPU 0 instructions: 1900000327 cycles: 2200458881 heartbeat IPC: 0.884 cumulative IPC: 0.8635 (Simulation time: 05 hr 41 min 23 sec)
Heartbeat CPU 0 instructions: 1910000328 cycles: 2211831264 heartbeat IPC: 0.8793 cumulative IPC: 0.8635 (Simulation time: 05 hr 43 min 11 sec)
Heartbeat CPU 0 instructions: 1920000332 cycles: 2223518691 heartbeat IPC: 0.8556 cumulative IPC: 0.8635 (Simulation time: 05 hr 45 min 00 sec)
Heartbeat CPU 0 instructions: 1930000332 cycles: 2235190389 heartbeat IPC: 0.8568 cumulative IPC: 0.8635 (Simulation time: 05 hr 46 min 50 sec)
Heartbeat CPU 0 instructions: 1940000336 cycles: 2246763815 heartbeat IPC: 0.864 cumulative IPC: 0.8635 (Simulation time: 05 hr 48 min 39 sec)
Heartbeat CPU 0 instructions: 1950000337 cycles: 2258903893 heartbeat IPC: 0.8237 cumulative IPC: 0.8633 (Simulation time: 05 hr 50 min 32 sec)
Heartbeat CPU 0 instructions: 1960000340 cycles: 2271117538 heartbeat IPC: 0.8188 cumulative IPC: 0.863 (Simulation time: 05 hr 52 min 25 sec)
Heartbeat CPU 0 instructions: 1970000344 cycles: 2283109132 heartbeat IPC: 0.8339 cumulative IPC: 0.8629 (Simulation time: 05 hr 54 min 16 sec)
Heartbeat CPU 0 instructions: 1980000345 cycles: 2294907257 heartbeat IPC: 0.8476 cumulative IPC: 0.8628 (Simulation time: 05 hr 56 min 06 sec)
Heartbeat CPU 0 instructions: 1990000349 cycles: 2306556658 heartbeat IPC: 0.8584 cumulative IPC: 0.8628 (Simulation time: 05 hr 57 min 56 sec)

=== ERROR PAGE STATISTICS ===
Mode: CYCLE
Error Cycle Interval: 2000000000 CPU cycles
Total Error Accesses: 2
==============================
Simulation finished CPU 0 instructions: 1999999509 cycles: 2318244040 cumulative IPC: 0.8627 (Simulation time: 05 hr 59 min 46 sec)
Simulation complete CPU 0 instructions: 1999999509 cycles: 2318244040 cumulative IPC: 0.8627 (Simulation time: 05 hr 59 min 46 sec)

ChampSim completed all CPUs

=== Simulation ===
CPU 0 runs test_traces/649.fotonik3d_s-10881B.champsimtrace.xz

Region of Interest Statistics

CPU 0 cumulative IPC: 0.8627 instructions: 1999999509 cycles: 2318244040
CPU 0 Branch Prediction Accuracy: 97.24% MPKI: 0.2738 Average ROB Occupancy at Mispredict: 264.7
Branch type MPKI
BRANCH_DIRECT_JUMP: 5.5e-06
BRANCH_INDIRECT: 0
BRANCH_CONDITIONAL: 0.2738
BRANCH_DIRECT_CALL: 5e-07
BRANCH_INDIRECT_CALL: 0
BRANCH_RETURN: 5e-07

cpu0->cpu0_STLB TOTAL        ACCESS:       9681 HIT:       6303 MISS:       3378 MSHR_MERGE:          0
cpu0->cpu0_STLB LOAD         ACCESS:       9681 HIT:       6303 MISS:       3378 MSHR_MERGE:          0
cpu0->cpu0_STLB RFO          ACCESS:          0 HIT:          0 MISS:          0 MSHR_MERGE:          0
cpu0->cpu0_STLB PREFETCH     ACCESS:          0 HIT:          0 MISS:          0 MSHR_MERGE:          0
cpu0->cpu0_STLB WRITE        ACCESS:          0 HIT:          0 MISS:          0 MSHR_MERGE:          0
cpu0->cpu0_STLB TRANSLATION  ACCESS:          0 HIT:          0 MISS:          0 MSHR_MERGE:          0
cpu0->cpu0_STLB PREFETCH REQUESTED:          0 ISSUED:          0 USEFUL:          0 USELESS:          0
cpu0->cpu0_STLB AVERAGE MISS LATENCY: 5129 cycles
cpu0->cpu0_L2C TOTAL        ACCESS:   51671984 HIT:   16906101 MISS:   34765883 MSHR_MERGE:          0
cpu0->cpu0_L2C LOAD         ACCESS:   36315981 HIT:    1550693 MISS:   34765288 MSHR_MERGE:          0
cpu0->cpu0_L2C RFO          ACCESS:       2049 HIT:       2000 MISS:         49 MSHR_MERGE:          0
cpu0->cpu0_L2C PREFETCH     ACCESS:          0 HIT:          0 MISS:          0 MSHR_MERGE:          0
cpu0->cpu0_L2C WRITE        ACCESS:   15353954 HIT:   15353408 MISS:        546 MSHR_MERGE:          0
cpu0->cpu0_L2C TRANSLATION  ACCESS:          0 HIT:          0 MISS:          0 MSHR_MERGE:          0
cpu0->cpu0_L2C PREFETCH REQUESTED:          0 ISSUED:          0 USEFUL:          0 USELESS:          0
cpu0->cpu0_L2C AVERAGE MISS LATENCY: 111.7 cycles
cpu0->cpu0_L1I TOTAL        ACCESS:  493843683 HIT:  493842735 MISS:        948 MSHR_MERGE:        409
cpu0->cpu0_L1I LOAD         ACCESS:  493843683 HIT:  493842735 MISS:        948 MSHR_MERGE:        409
cpu0->cpu0_L1I RFO          ACCESS:          0 HIT:          0 MISS:          0 MSHR_MERGE:          0
cpu0->cpu0_L1I PREFETCH     ACCESS:          0 HIT:          0 MISS:          0 MSHR_MERGE:          0
cpu0->cpu0_L1I WRITE        ACCESS:          0 HIT:          0 MISS:          0 MSHR_MERGE:          0
cpu0->cpu0_L1I TRANSLATION  ACCESS:          0 HIT:          0 MISS:          0 MSHR_MERGE:          0
cpu0->cpu0_L1I PREFETCH REQUESTED:          0 ISSUED:          0 USEFUL:          0 USELESS:          0
cpu0->cpu0_L1I AVERAGE MISS LATENCY: 133.7 cycles
cpu0->cpu0_L1D TOTAL        ACCESS:  962402136 HIT:  917618800 MISS:   44783336 MSHR_MERGE:    8465835
cpu0->cpu0_L1D LOAD         ACCESS:  844764694 HIT:  799984972 MISS:   44779722 MSHR_MERGE:    8464279
cpu0->cpu0_L1D RFO          ACCESS:          0 HIT:          0 MISS:          0 MSHR_MERGE:          0
cpu0->cpu0_L1D PREFETCH     ACCESS:          0 HIT:          0 MISS:          0 MSHR_MERGE:          0
cpu0->cpu0_L1D WRITE        ACCESS:  117637442 HIT:  117633828 MISS:       3614 MSHR_MERGE:       1556
cpu0->cpu0_L1D TRANSLATION  ACCESS:          0 HIT:          0 MISS:          0 MSHR_MERGE:          0
cpu0->cpu0_L1D PREFETCH REQUESTED:          0 ISSUED:          0 USEFUL:          0 USELESS:          0
cpu0->cpu0_L1D AVERAGE MISS LATENCY: 115.9 cycles
cpu0->cpu0_ITLB TOTAL        ACCESS:  425568970 HIT:  425568964 MISS:          6 MSHR_MERGE:          5
cpu0->cpu0_ITLB LOAD         ACCESS:  425568970 HIT:  425568964 MISS:          6 MSHR_MERGE:          5
cpu0->cpu0_ITLB RFO          ACCESS:          0 HIT:          0 MISS:          0 MSHR_MERGE:          0
cpu0->cpu0_ITLB PREFETCH     ACCESS:          0 HIT:          0 MISS:          0 MSHR_MERGE:          0
cpu0->cpu0_ITLB WRITE        ACCESS:          0 HIT:          0 MISS:          0 MSHR_MERGE:          0
cpu0->cpu0_ITLB TRANSLATION  ACCESS:          0 HIT:          0 MISS:          0 MSHR_MERGE:          0
cpu0->cpu0_ITLB PREFETCH REQUESTED:          0 ISSUED:          0 USEFUL:          0 USELESS:          0
cpu0->cpu0_ITLB AVERAGE MISS LATENCY: 1.722e+04 cycles
cpu0->cpu0_DTLB TOTAL        ACCESS:  877811928 HIT:  877799510 MISS:      12418 MSHR_MERGE:       2738
cpu0->cpu0_DTLB LOAD         ACCESS:  877811928 HIT:  877799510 MISS:      12418 MSHR_MERGE:       2738
cpu0->cpu0_DTLB RFO          ACCESS:          0 HIT:          0 MISS:          0 MSHR_MERGE:          0
cpu0->cpu0_DTLB PREFETCH     ACCESS:          0 HIT:          0 MISS:          0 MSHR_MERGE:          0
cpu0->cpu0_DTLB WRITE        ACCESS:          0 HIT:          0 MISS:          0 MSHR_MERGE:          0
cpu0->cpu0_DTLB TRANSLATION  ACCESS:          0 HIT:          0 MISS:          0 MSHR_MERGE:          0
cpu0->cpu0_DTLB PREFETCH REQUESTED:          0 ISSUED:          0 USEFUL:          0 USELESS:          0
cpu0->cpu0_DTLB AVERAGE MISS LATENCY: 1793 cycles
cpu0->LLC TOTAL        ACCESS:   50113122 HIT:   17950277 MISS:   32162845 MSHR_MERGE:          0
cpu0->LLC LOAD         ACCESS:   34765288 HIT:    2602820 MISS:   32162468 MSHR_MERGE:          0
cpu0->LLC RFO          ACCESS:         49 HIT:         22 MISS:         27 MSHR_MERGE:          0
cpu0->LLC PREFETCH     ACCESS:          0 HIT:          0 MISS:          0 MSHR_MERGE:          0
cpu0->LLC WRITE        ACCESS:   15347785 HIT:   15347435 MISS:        350 MSHR_MERGE:          0
cpu0->LLC TRANSLATION  ACCESS:          0 HIT:          0 MISS:          0 MSHR_MERGE:          0
cpu0->LLC PREFETCH REQUESTED:          0 ISSUED:          0 USEFUL:          0 USELESS:          0
cpu0->LLC AVERAGE MISS LATENCY: 103.5 cycles

DRAM Statistics

Channel 0 RQ ROW_BUFFER_HIT:     253864
  ROW_BUFFER_MISS:   15830603
  AVG DBUS CONGESTED CYCLE: 11.54
Channel 0 WQ ROW_BUFFER_HIT:    1797196
  ROW_BUFFER_MISS:    5872414
  FULL:          0
Channel 0 REFRESHES ISSUED:     193174

Channel 1 RQ ROW_BUFFER_HIT:     254730
  ROW_BUFFER_MISS:   15829925
  AVG DBUS CONGESTED CYCLE: 11.54
Channel 1 WQ ROW_BUFFER_HIT:    1799965
  ROW_BUFFER_MISS:    5869896
  FULL:          0
Channel 1 REFRESHES ISSUED:     193174
