
*** ChampSim Multicore Out-of-Order Simulator ***
Warmup Instructions: 0
Simulation Instructions: 9223372036854775807
Number of CPUs: 1
Page size: 2097152

Off-chip DRAM Size: 128 GiB Channels: 2 Width: 32-bit Data Rate: 4807 MT/s
[ERROR_PAGE_MANAGER] Error latency: 1990500 
[ERROR_PAGE_MANAGER] Random seed: 54321 (fixed for preload reproducibility)
[ERROR_PAGE_MANAGER] Cycle-based error modeling enabled
[ERROR_PAGE_MANAGER] Errors per interval: 1
[ERROR_PAGE_MANAGER] Error cycle interval: 80000000 cycles

=== ERROR PAGE STATISTICS ===
Mode: CYCLE
Error Cycle Interval: 80000000 CPU cycles
Total Error Accesses: 0
==============================
Warmup finished CPU 0 instructions: 0 cycles: 1 cumulative IPC: 0 (Simulation time: 00 hr 00 min 00 sec)
Warmup complete CPU 0 instructions: 0 cycles: 1 cumulative IPC: 0 (Simulation time: 00 hr 00 min 00 sec)
Heartbeat CPU 0 instructions: 10000004 cycles: 8270928 heartbeat IPC: 1.209 cumulative IPC: 1.209 (Simulation time: 00 hr 01 min 15 sec)
Heartbeat CPU 0 instructions: 20000004 cycles: 16563273 heartbeat IPC: 1.206 cumulative IPC: 1.207 (Simulation time: 00 hr 02 min 30 sec)
Heartbeat CPU 0 instructions: 30000004 cycles: 24461188 heartbeat IPC: 1.266 cumulative IPC: 1.226 (Simulation time: 00 hr 03 min 43 sec)
Heartbeat CPU 0 instructions: 40000008 cycles: 32634699 heartbeat IPC: 1.223 cumulative IPC: 1.226 (Simulation time: 00 hr 04 min 58 sec)
Heartbeat CPU 0 instructions: 50000009 cycles: 40400492 heartbeat IPC: 1.288 cumulative IPC: 1.238 (Simulation time: 00 hr 06 min 11 sec)
Heartbeat CPU 0 instructions: 60000010 cycles: 48193879 heartbeat IPC: 1.283 cumulative IPC: 1.245 (Simulation time: 00 hr 07 min 23 sec)
Heartbeat CPU 0 instructions: 70000013 cycles: 55989578 heartbeat IPC: 1.283 cumulative IPC: 1.25 (Simulation time: 00 hr 08 min 36 sec)
[ERROR_CYCLE] Error added at CPU cycle 57022446, next at 73226450, pending count: 1
[DRAM_CYCLE_ERROR] Cycle-based error applied! address=0x18c8ab5300 additional_latency=1990500 cycles
Heartbeat CPU 0 instructions: 80000013 cycles: 63877935 heartbeat IPC: 1.268 cumulative IPC: 1.252 (Simulation time: 00 hr 09 min 49 sec)
Heartbeat CPU 0 instructions: 90000014 cycles: 71718968 heartbeat IPC: 1.275 cumulative IPC: 1.255 (Simulation time: 00 hr 11 min 02 sec)
[ERROR_CYCLE] Error added at CPU cycle 73226451, next at 205568512, pending count: 1
[DRAM_CYCLE_ERROR] Cycle-based error applied! address=0x1d5e20e9c0 additional_latency=1990500 cycles
Heartbeat CPU 0 instructions: 100000015 cycles: 79684540 heartbeat IPC: 1.255 cumulative IPC: 1.255 (Simulation time: 00 hr 12 min 16 sec)
Heartbeat CPU 0 instructions: 110000018 cycles: 87772909 heartbeat IPC: 1.236 cumulative IPC: 1.253 (Simulation time: 00 hr 13 min 29 sec)
Heartbeat CPU 0 instructions: 120000022 cycles: 95555450 heartbeat IPC: 1.285 cumulative IPC: 1.256 (Simulation time: 00 hr 14 min 34 sec)
Heartbeat CPU 0 instructions: 130000024 cycles: 103348631 heartbeat IPC: 1.283 cumulative IPC: 1.258 (Simulation time: 00 hr 15 min 46 sec)
Heartbeat CPU 0 instructions: 140000025 cycles: 111117012 heartbeat IPC: 1.287 cumulative IPC: 1.26 (Simulation time: 00 hr 16 min 59 sec)
Heartbeat CPU 0 instructions: 150000028 cycles: 118961085 heartbeat IPC: 1.275 cumulative IPC: 1.261 (Simulation time: 00 hr 18 min 12 sec)
Heartbeat CPU 0 instructions: 160000029 cycles: 126792086 heartbeat IPC: 1.277 cumulative IPC: 1.262 (Simulation time: 00 hr 19 min 25 sec)
Heartbeat CPU 0 instructions: 170000032 cycles: 134740289 heartbeat IPC: 1.258 cumulative IPC: 1.262 (Simulation time: 00 hr 20 min 39 sec)
Heartbeat CPU 0 instructions: 180000035 cycles: 142918853 heartbeat IPC: 1.223 cumulative IPC: 1.259 (Simulation time: 00 hr 21 min 54 sec)
Heartbeat CPU 0 instructions: 190000037 cycles: 150904192 heartbeat IPC: 1.252 cumulative IPC: 1.259 (Simulation time: 00 hr 23 min 09 sec)
Heartbeat CPU 0 instructions: 200000039 cycles: 159084805 heartbeat IPC: 1.222 cumulative IPC: 1.257 (Simulation time: 00 hr 24 min 24 sec)
Heartbeat CPU 0 instructions: 210000042 cycles: 166903752 heartbeat IPC: 1.279 cumulative IPC: 1.258 (Simulation time: 00 hr 25 min 37 sec)
Heartbeat CPU 0 instructions: 220000046 cycles: 174914682 heartbeat IPC: 1.248 cumulative IPC: 1.258 (Simulation time: 00 hr 26 min 52 sec)
Heartbeat CPU 0 instructions: 230000048 cycles: 182969193 heartbeat IPC: 1.242 cumulative IPC: 1.257 (Simulation time: 00 hr 28 min 07 sec)
Heartbeat CPU 0 instructions: 240000049 cycles: 190843977 heartbeat IPC: 1.27 cumulative IPC: 1.258 (Simulation time: 00 hr 29 min 20 sec)
Heartbeat CPU 0 instructions: 250000050 cycles: 198936387 heartbeat IPC: 1.236 cumulative IPC: 1.257 (Simulation time: 00 hr 30 min 35 sec)
[ERROR_CYCLE] Error added at CPU cycle 205568513, next at 427741518, pending count: 1
[DRAM_CYCLE_ERROR] Cycle-based error applied! address=0xcb2bdf600 additional_latency=1990500 cycles
Heartbeat CPU 0 instructions: 260000052 cycles: 206880983 heartbeat IPC: 1.259 cumulative IPC: 1.257 (Simulation time: 00 hr 31 min 49 sec)
Heartbeat CPU 0 instructions: 270000054 cycles: 214751088 heartbeat IPC: 1.271 cumulative IPC: 1.257 (Simulation time: 00 hr 33 min 02 sec)
Heartbeat CPU 0 instructions: 280000055 cycles: 222609627 heartbeat IPC: 1.273 cumulative IPC: 1.258 (Simulation time: 00 hr 34 min 16 sec)
Heartbeat CPU 0 instructions: 290000059 cycles: 230480224 heartbeat IPC: 1.271 cumulative IPC: 1.258 (Simulation time: 00 hr 35 min 29 sec)
Heartbeat CPU 0 instructions: 300000062 cycles: 238369881 heartbeat IPC: 1.267 cumulative IPC: 1.259 (Simulation time: 00 hr 36 min 43 sec)
Heartbeat CPU 0 instructions: 310000062 cycles: 246216042 heartbeat IPC: 1.275 cumulative IPC: 1.259 (Simulation time: 00 hr 37 min 56 sec)
Heartbeat CPU 0 instructions: 320000065 cycles: 254091533 heartbeat IPC: 1.27 cumulative IPC: 1.259 (Simulation time: 00 hr 39 min 09 sec)
Heartbeat CPU 0 instructions: 330000065 cycles: 262066721 heartbeat IPC: 1.254 cumulative IPC: 1.259 (Simulation time: 00 hr 40 min 23 sec)
Heartbeat CPU 0 instructions: 340000066 cycles: 270343415 heartbeat IPC: 1.208 cumulative IPC: 1.258 (Simulation time: 00 hr 41 min 40 sec)
Heartbeat CPU 0 instructions: 350000070 cycles: 278347536 heartbeat IPC: 1.249 cumulative IPC: 1.257 (Simulation time: 00 hr 42 min 54 sec)
Heartbeat CPU 0 instructions: 360000070 cycles: 286199482 heartbeat IPC: 1.274 cumulative IPC: 1.258 (Simulation time: 00 hr 44 min 04 sec)
Heartbeat CPU 0 instructions: 370000071 cycles: 294006763 heartbeat IPC: 1.281 cumulative IPC: 1.258 (Simulation time: 00 hr 45 min 12 sec)
Heartbeat CPU 0 instructions: 380000075 cycles: 301885797 heartbeat IPC: 1.269 cumulative IPC: 1.259 (Simulation time: 00 hr 46 min 25 sec)
Heartbeat CPU 0 instructions: 390000077 cycles: 309694808 heartbeat IPC: 1.281 cumulative IPC: 1.259 (Simulation time: 00 hr 47 min 21 sec)
Heartbeat CPU 0 instructions: 400000080 cycles: 317525160 heartbeat IPC: 1.277 cumulative IPC: 1.26 (Simulation time: 00 hr 48 min 21 sec)
Heartbeat CPU 0 instructions: 410000081 cycles: 325555948 heartbeat IPC: 1.245 cumulative IPC: 1.259 (Simulation time: 00 hr 49 min 34 sec)
Heartbeat CPU 0 instructions: 420000081 cycles: 333873341 heartbeat IPC: 1.202 cumulative IPC: 1.258 (Simulation time: 00 hr 50 min 50 sec)
Heartbeat CPU 0 instructions: 430000081 cycles: 341891050 heartbeat IPC: 1.247 cumulative IPC: 1.258 (Simulation time: 00 hr 52 min 03 sec)
Heartbeat CPU 0 instructions: 440000085 cycles: 349732529 heartbeat IPC: 1.275 cumulative IPC: 1.258 (Simulation time: 00 hr 53 min 15 sec)
Heartbeat CPU 0 instructions: 450000086 cycles: 357665223 heartbeat IPC: 1.261 cumulative IPC: 1.258 (Simulation time: 00 hr 54 min 18 sec)
Heartbeat CPU 0 instructions: 460000087 cycles: 365541900 heartbeat IPC: 1.27 cumulative IPC: 1.258 (Simulation time: 00 hr 55 min 31 sec)
Heartbeat CPU 0 instructions: 470000088 cycles: 373754112 heartbeat IPC: 1.218 cumulative IPC: 1.258 (Simulation time: 00 hr 56 min 32 sec)
Heartbeat CPU 0 instructions: 480000089 cycles: 381820370 heartbeat IPC: 1.24 cumulative IPC: 1.257 (Simulation time: 00 hr 57 min 30 sec)
Heartbeat CPU 0 instructions: 490000091 cycles: 389795221 heartbeat IPC: 1.254 cumulative IPC: 1.257 (Simulation time: 00 hr 58 min 33 sec)
Heartbeat CPU 0 instructions: 500000092 cycles: 397627106 heartbeat IPC: 1.277 cumulative IPC: 1.257 (Simulation time: 00 hr 59 min 37 sec)
Heartbeat CPU 0 instructions: 510000092 cycles: 405441742 heartbeat IPC: 1.28 cumulative IPC: 1.258 (Simulation time: 01 hr 00 min 50 sec)
Heartbeat CPU 0 instructions: 520000096 cycles: 413308375 heartbeat IPC: 1.271 cumulative IPC: 1.258 (Simulation time: 01 hr 01 min 51 sec)
Heartbeat CPU 0 instructions: 530000100 cycles: 421155677 heartbeat IPC: 1.274 cumulative IPC: 1.258 (Simulation time: 01 hr 02 min 40 sec)
[ERROR_CYCLE] Error added at CPU cycle 427741518, next at 430145799, pending count: 1
[DRAM_CYCLE_ERROR] Cycle-based error applied! address=0x116027f6c0 additional_latency=1990500 cycles
Heartbeat CPU 0 instructions: 540000102 cycles: 429012652 heartbeat IPC: 1.273 cumulative IPC: 1.259 (Simulation time: 01 hr 03 min 29 sec)
[ERROR_CYCLE] Error added at CPU cycle 430145800, next at 553109136, pending count: 1
[DRAM_CYCLE_ERROR] Cycle-based error applied! address=0x7a095c880 additional_latency=1990500 cycles
Heartbeat CPU 0 instructions: 550000103 cycles: 436907617 heartbeat IPC: 1.267 cumulative IPC: 1.259 (Simulation time: 01 hr 04 min 19 sec)
Heartbeat CPU 0 instructions: 560000106 cycles: 445181472 heartbeat IPC: 1.209 cumulative IPC: 1.258 (Simulation time: 01 hr 05 min 32 sec)
Heartbeat CPU 0 instructions: 570000107 cycles: 453304903 heartbeat IPC: 1.231 cumulative IPC: 1.257 (Simulation time: 01 hr 06 min 36 sec)
Heartbeat CPU 0 instructions: 580000111 cycles: 461510976 heartbeat IPC: 1.219 cumulative IPC: 1.257 (Simulation time: 01 hr 07 min 51 sec)
Heartbeat CPU 0 instructions: 590000112 cycles: 469677755 heartbeat IPC: 1.224 cumulative IPC: 1.256 (Simulation time: 01 hr 09 min 06 sec)
Heartbeat CPU 0 instructions: 600000112 cycles: 477485906 heartbeat IPC: 1.281 cumulative IPC: 1.257 (Simulation time: 01 hr 10 min 10 sec)
Heartbeat CPU 0 instructions: 610000112 cycles: 485330499 heartbeat IPC: 1.275 cumulative IPC: 1.257 (Simulation time: 01 hr 11 min 23 sec)
Heartbeat CPU 0 instructions: 620000116 cycles: 493191679 heartbeat IPC: 1.272 cumulative IPC: 1.257 (Simulation time: 01 hr 12 min 37 sec)
Heartbeat CPU 0 instructions: 630000117 cycles: 501295828 heartbeat IPC: 1.234 cumulative IPC: 1.257 (Simulation time: 01 hr 13 min 51 sec)
Heartbeat CPU 0 instructions: 640000118 cycles: 509463978 heartbeat IPC: 1.224 cumulative IPC: 1.256 (Simulation time: 01 hr 15 min 06 sec)
Heartbeat CPU 0 instructions: 650000122 cycles: 517694153 heartbeat IPC: 1.215 cumulative IPC: 1.256 (Simulation time: 01 hr 16 min 22 sec)
Heartbeat CPU 0 instructions: 660000123 cycles: 525975791 heartbeat IPC: 1.207 cumulative IPC: 1.255 (Simulation time: 01 hr 17 min 38 sec)
Heartbeat CPU 0 instructions: 670000127 cycles: 533864113 heartbeat IPC: 1.268 cumulative IPC: 1.255 (Simulation time: 01 hr 18 min 51 sec)
Heartbeat CPU 0 instructions: 680000128 cycles: 541719791 heartbeat IPC: 1.273 cumulative IPC: 1.255 (Simulation time: 01 hr 20 min 04 sec)
Heartbeat CPU 0 instructions: 690000131 cycles: 549609906 heartbeat IPC: 1.267 cumulative IPC: 1.255 (Simulation time: 01 hr 21 min 18 sec)
[ERROR_CYCLE] Error added at CPU cycle 553109137, next at 567427547, pending count: 1
[DRAM_CYCLE_ERROR] Cycle-based error applied! address=0x1a1a50e880 additional_latency=1990500 cycles
Heartbeat CPU 0 instructions: 700000133 cycles: 557494443 heartbeat IPC: 1.268 cumulative IPC: 1.256 (Simulation time: 01 hr 22 min 31 sec)
Heartbeat CPU 0 instructions: 710000134 cycles: 565351856 heartbeat IPC: 1.273 cumulative IPC: 1.256 (Simulation time: 01 hr 23 min 45 sec)
[ERROR_CYCLE] Error added at CPU cycle 567427547, next at 612939373, pending count: 1
[DRAM_CYCLE_ERROR] Cycle-based error applied! address=0x3ba0408c0 additional_latency=1990500 cycles
Heartbeat CPU 0 instructions: 720000138 cycles: 573186294 heartbeat IPC: 1.276 cumulative IPC: 1.256 (Simulation time: 01 hr 24 min 59 sec)
Heartbeat CPU 0 instructions: 730000140 cycles: 581014056 heartbeat IPC: 1.278 cumulative IPC: 1.256 (Simulation time: 01 hr 26 min 12 sec)
Heartbeat CPU 0 instructions: 740000141 cycles: 589092938 heartbeat IPC: 1.238 cumulative IPC: 1.256 (Simulation time: 01 hr 27 min 19 sec)
Heartbeat CPU 0 instructions: 750000144 cycles: 597284101 heartbeat IPC: 1.221 cumulative IPC: 1.256 (Simulation time: 01 hr 28 min 20 sec)
Heartbeat CPU 0 instructions: 760000145 cycles: 605210008 heartbeat IPC: 1.262 cumulative IPC: 1.256 (Simulation time: 01 hr 29 min 28 sec)
[ERROR_CYCLE] Error added at CPU cycle 612939373, next at 681254883, pending count: 1
[DRAM_CYCLE_ERROR] Cycle-based error applied! address=0xa27138940 additional_latency=1990500 cycles
Heartbeat CPU 0 instructions: 770000145 cycles: 613062090 heartbeat IPC: 1.274 cumulative IPC: 1.256 (Simulation time: 01 hr 30 min 40 sec)
Heartbeat CPU 0 instructions: 780000147 cycles: 620941159 heartbeat IPC: 1.269 cumulative IPC: 1.256 (Simulation time: 01 hr 31 min 47 sec)
Heartbeat CPU 0 instructions: 790000148 cycles: 628994556 heartbeat IPC: 1.242 cumulative IPC: 1.256 (Simulation time: 01 hr 32 min 49 sec)
Heartbeat CPU 0 instructions: 800000150 cycles: 636889437 heartbeat IPC: 1.267 cumulative IPC: 1.256 (Simulation time: 01 hr 33 min 41 sec)
Heartbeat CPU 0 instructions: 810000153 cycles: 644682997 heartbeat IPC: 1.283 cumulative IPC: 1.256 (Simulation time: 01 hr 34 min 52 sec)
Heartbeat CPU 0 instructions: 820000154 cycles: 652504426 heartbeat IPC: 1.279 cumulative IPC: 1.257 (Simulation time: 01 hr 36 min 05 sec)
Heartbeat CPU 0 instructions: 830000157 cycles: 660404192 heartbeat IPC: 1.266 cumulative IPC: 1.257 (Simulation time: 01 hr 37 min 20 sec)
Heartbeat CPU 0 instructions: 840000159 cycles: 668457896 heartbeat IPC: 1.242 cumulative IPC: 1.257 (Simulation time: 01 hr 38 min 35 sec)
Heartbeat CPU 0 instructions: 850000162 cycles: 676489588 heartbeat IPC: 1.245 cumulative IPC: 1.256 (Simulation time: 01 hr 39 min 49 sec)
[ERROR_CYCLE] Error added at CPU cycle 681254883, next at 700827009, pending count: 1
[DRAM_CYCLE_ERROR] Cycle-based error applied! address=0xca38f23c0 additional_latency=1990500 cycles
Heartbeat CPU 0 instructions: 860000162 cycles: 684337697 heartbeat IPC: 1.274 cumulative IPC: 1.257 (Simulation time: 01 hr 41 min 03 sec)
Heartbeat CPU 0 instructions: 870000163 cycles: 692491525 heartbeat IPC: 1.226 cumulative IPC: 1.256 (Simulation time: 01 hr 42 min 18 sec)
Heartbeat CPU 0 instructions: 880000164 cycles: 700325080 heartbeat IPC: 1.277 cumulative IPC: 1.257 (Simulation time: 01 hr 43 min 32 sec)
[ERROR_CYCLE] Error added at CPU cycle 700827009, next at 842903644, pending count: 1
[DRAM_CYCLE_ERROR] Cycle-based error applied! address=0x22f251040 additional_latency=1990500 cycles
Heartbeat CPU 0 instructions: 890000167 cycles: 708080811 heartbeat IPC: 1.289 cumulative IPC: 1.257 (Simulation time: 01 hr 44 min 44 sec)
Heartbeat CPU 0 instructions: 900000167 cycles: 715855283 heartbeat IPC: 1.286 cumulative IPC: 1.257 (Simulation time: 01 hr 45 min 57 sec)
Heartbeat CPU 0 instructions: 910000170 cycles: 723764039 heartbeat IPC: 1.264 cumulative IPC: 1.257 (Simulation time: 01 hr 47 min 12 sec)
Heartbeat CPU 0 instructions: 920000172 cycles: 731672712 heartbeat IPC: 1.264 cumulative IPC: 1.257 (Simulation time: 01 hr 48 min 26 sec)
Heartbeat CPU 0 instructions: 930000172 cycles: 739782412 heartbeat IPC: 1.233 cumulative IPC: 1.257 (Simulation time: 01 hr 49 min 41 sec)
Heartbeat CPU 0 instructions: 940000173 cycles: 748009279 heartbeat IPC: 1.216 cumulative IPC: 1.257 (Simulation time: 01 hr 50 min 57 sec)
Heartbeat CPU 0 instructions: 950000174 cycles: 756197657 heartbeat IPC: 1.221 cumulative IPC: 1.256 (Simulation time: 01 hr 52 min 12 sec)
Heartbeat CPU 0 instructions: 960000175 cycles: 764251750 heartbeat IPC: 1.242 cumulative IPC: 1.256 (Simulation time: 01 hr 53 min 27 sec)
Heartbeat CPU 0 instructions: 970000177 cycles: 772521435 heartbeat IPC: 1.209 cumulative IPC: 1.256 (Simulation time: 01 hr 54 min 43 sec)
Heartbeat CPU 0 instructions: 980000178 cycles: 780934471 heartbeat IPC: 1.189 cumulative IPC: 1.255 (Simulation time: 01 hr 56 min 00 sec)
Heartbeat CPU 0 instructions: 990000178 cycles: 789176693 heartbeat IPC: 1.213 cumulative IPC: 1.254 (Simulation time: 01 hr 57 min 16 sec)
Heartbeat CPU 0 instructions: 1000000180 cycles: 797573237 heartbeat IPC: 1.191 cumulative IPC: 1.254 (Simulation time: 01 hr 58 min 33 sec)
Heartbeat CPU 0 instructions: 1010000180 cycles: 805601259 heartbeat IPC: 1.246 cumulative IPC: 1.254 (Simulation time: 01 hr 59 min 48 sec)
Heartbeat CPU 0 instructions: 1020000183 cycles: 813483006 heartbeat IPC: 1.269 cumulative IPC: 1.254 (Simulation time: 02 hr 01 min 02 sec)
Heartbeat CPU 0 instructions: 1030000184 cycles: 821334326 heartbeat IPC: 1.274 cumulative IPC: 1.254 (Simulation time: 02 hr 02 min 15 sec)
Heartbeat CPU 0 instructions: 1040000185 cycles: 829166632 heartbeat IPC: 1.277 cumulative IPC: 1.254 (Simulation time: 02 hr 03 min 29 sec)
Heartbeat CPU 0 instructions: 1050000186 cycles: 836999262 heartbeat IPC: 1.277 cumulative IPC: 1.254 (Simulation time: 02 hr 04 min 42 sec)
[ERROR_CYCLE] Error added at CPU cycle 842903644, next at 871385107, pending count: 1
[DRAM_CYCLE_ERROR] Cycle-based error applied! address=0x4958d4000 additional_latency=1990500 cycles
Heartbeat CPU 0 instructions: 1060000190 cycles: 844852035 heartbeat IPC: 1.273 cumulative IPC: 1.255 (Simulation time: 02 hr 05 min 56 sec)
Heartbeat CPU 0 instructions: 1070000194 cycles: 852668960 heartbeat IPC: 1.279 cumulative IPC: 1.255 (Simulation time: 02 hr 07 min 09 sec)
Heartbeat CPU 0 instructions: 1080000194 cycles: 860499698 heartbeat IPC: 1.277 cumulative IPC: 1.255 (Simulation time: 02 hr 08 min 23 sec)
Heartbeat CPU 0 instructions: 1090000194 cycles: 868304787 heartbeat IPC: 1.281 cumulative IPC: 1.255 (Simulation time: 02 hr 09 min 36 sec)
[ERROR_CYCLE] Error added at CPU cycle 871385107, next at 907191996, pending count: 1
[DRAM_CYCLE_ERROR] Cycle-based error applied! address=0x1f9454b400 additional_latency=1990500 cycles
Heartbeat CPU 0 instructions: 1100000194 cycles: 876132621 heartbeat IPC: 1.277 cumulative IPC: 1.256 (Simulation time: 02 hr 10 min 49 sec)
Heartbeat CPU 0 instructions: 1110000195 cycles: 883975227 heartbeat IPC: 1.275 cumulative IPC: 1.256 (Simulation time: 02 hr 12 min 02 sec)
Heartbeat CPU 0 instructions: 1120000195 cycles: 891950968 heartbeat IPC: 1.254 cumulative IPC: 1.256 (Simulation time: 02 hr 13 min 17 sec)
Heartbeat CPU 0 instructions: 1130000196 cycles: 899828044 heartbeat IPC: 1.27 cumulative IPC: 1.256 (Simulation time: 02 hr 14 min 31 sec)
[ERROR_CYCLE] Error added at CPU cycle 907191996, next at 1070014685, pending count: 1
[DRAM_CYCLE_ERROR] Cycle-based error applied! address=0x1f809a6ec0 additional_latency=1990500 cycles
Heartbeat CPU 0 instructions: 1140000199 cycles: 907710293 heartbeat IPC: 1.269 cumulative IPC: 1.256 (Simulation time: 02 hr 15 min 45 sec)
Heartbeat CPU 0 instructions: 1150000199 cycles: 915586656 heartbeat IPC: 1.27 cumulative IPC: 1.256 (Simulation time: 02 hr 16 min 58 sec)
Heartbeat CPU 0 instructions: 1160000201 cycles: 923741127 heartbeat IPC: 1.226 cumulative IPC: 1.256 (Simulation time: 02 hr 18 min 13 sec)
Heartbeat CPU 0 instructions: 1170000204 cycles: 932144497 heartbeat IPC: 1.19 cumulative IPC: 1.255 (Simulation time: 02 hr 19 min 31 sec)
Heartbeat CPU 0 instructions: 1180000204 cycles: 940270922 heartbeat IPC: 1.231 cumulative IPC: 1.255 (Simulation time: 02 hr 20 min 46 sec)
Heartbeat CPU 0 instructions: 1190000207 cycles: 948154679 heartbeat IPC: 1.268 cumulative IPC: 1.255 (Simulation time: 02 hr 22 min 01 sec)
Heartbeat CPU 0 instructions: 1200000211 cycles: 956045996 heartbeat IPC: 1.267 cumulative IPC: 1.255 (Simulation time: 02 hr 23 min 15 sec)
Heartbeat CPU 0 instructions: 1210000215 cycles: 964062010 heartbeat IPC: 1.248 cumulative IPC: 1.255 (Simulation time: 02 hr 24 min 29 sec)
Heartbeat CPU 0 instructions: 1220000219 cycles: 972040635 heartbeat IPC: 1.253 cumulative IPC: 1.255 (Simulation time: 02 hr 25 min 43 sec)
Heartbeat CPU 0 instructions: 1230000220 cycles: 980059864 heartbeat IPC: 1.247 cumulative IPC: 1.255 (Simulation time: 02 hr 26 min 57 sec)
Heartbeat CPU 0 instructions: 1240000220 cycles: 988189833 heartbeat IPC: 1.23 cumulative IPC: 1.255 (Simulation time: 02 hr 28 min 12 sec)
Heartbeat CPU 0 instructions: 1250000222 cycles: 996559492 heartbeat IPC: 1.195 cumulative IPC: 1.254 (Simulation time: 02 hr 29 min 30 sec)
Heartbeat CPU 0 instructions: 1260000225 cycles: 1004498108 heartbeat IPC: 1.26 cumulative IPC: 1.254 (Simulation time: 02 hr 30 min 44 sec)
Heartbeat CPU 0 instructions: 1270000225 cycles: 1012311313 heartbeat IPC: 1.28 cumulative IPC: 1.255 (Simulation time: 02 hr 31 min 57 sec)
Heartbeat CPU 0 instructions: 1280000226 cycles: 1020061233 heartbeat IPC: 1.29 cumulative IPC: 1.255 (Simulation time: 02 hr 33 min 11 sec)
Heartbeat CPU 0 instructions: 1290000227 cycles: 1027863299 heartbeat IPC: 1.282 cumulative IPC: 1.255 (Simulation time: 02 hr 34 min 24 sec)
Heartbeat CPU 0 instructions: 1300000230 cycles: 1035620755 heartbeat IPC: 1.289 cumulative IPC: 1.255 (Simulation time: 02 hr 35 min 37 sec)
Heartbeat CPU 0 instructions: 1310000231 cycles: 1043393240 heartbeat IPC: 1.287 cumulative IPC: 1.256 (Simulation time: 02 hr 36 min 50 sec)
Heartbeat CPU 0 instructions: 1320000231 cycles: 1051323352 heartbeat IPC: 1.261 cumulative IPC: 1.256 (Simulation time: 02 hr 38 min 03 sec)
Heartbeat CPU 0 instructions: 1330000231 cycles: 1059260059 heartbeat IPC: 1.26 cumulative IPC: 1.256 (Simulation time: 02 hr 39 min 16 sec)
Heartbeat CPU 0 instructions: 1340000232 cycles: 1067574295 heartbeat IPC: 1.203 cumulative IPC: 1.255 (Simulation time: 02 hr 40 min 33 sec)
[ERROR_CYCLE] Error added at CPU cycle 1070014686, next at 1070994884, pending count: 1
[DRAM_CYCLE_ERROR] Cycle-based error applied! address=0x9534f8dc0 additional_latency=1990500 cycles
[ERROR_CYCLE] Error added at CPU cycle 1070994885, next at 1160990919, pending count: 1
[DRAM_CYCLE_ERROR] Cycle-based error applied! address=0x1cff70c580 additional_latency=1990500 cycles
Heartbeat CPU 0 instructions: 1350000236 cycles: 1075851802 heartbeat IPC: 1.208 cumulative IPC: 1.255 (Simulation time: 02 hr 41 min 49 sec)
Heartbeat CPU 0 instructions: 1360000237 cycles: 1083786225 heartbeat IPC: 1.26 cumulative IPC: 1.255 (Simulation time: 02 hr 43 min 03 sec)
Heartbeat CPU 0 instructions: 1370000241 cycles: 1091734882 heartbeat IPC: 1.258 cumulative IPC: 1.255 (Simulation time: 02 hr 44 min 17 sec)
Heartbeat CPU 0 instructions: 1380000241 cycles: 1099621479 heartbeat IPC: 1.268 cumulative IPC: 1.255 (Simulation time: 02 hr 45 min 31 sec)
Heartbeat CPU 0 instructions: 1390000244 cycles: 1107509710 heartbeat IPC: 1.268 cumulative IPC: 1.255 (Simulation time: 02 hr 46 min 44 sec)
Heartbeat CPU 0 instructions: 1400000247 cycles: 1115818803 heartbeat IPC: 1.204 cumulative IPC: 1.255 (Simulation time: 02 hr 48 min 00 sec)
Heartbeat CPU 0 instructions: 1410000248 cycles: 1124080891 heartbeat IPC: 1.21 cumulative IPC: 1.254 (Simulation time: 02 hr 49 min 16 sec)
Heartbeat CPU 0 instructions: 1420000252 cycles: 1131958288 heartbeat IPC: 1.269 cumulative IPC: 1.254 (Simulation time: 02 hr 50 min 29 sec)
Heartbeat CPU 0 instructions: 1430000252 cycles: 1139838148 heartbeat IPC: 1.269 cumulative IPC: 1.255 (Simulation time: 02 hr 51 min 42 sec)
Heartbeat CPU 0 instructions: 1440000252 cycles: 1147710213 heartbeat IPC: 1.27 cumulative IPC: 1.255 (Simulation time: 02 hr 52 min 54 sec)
Heartbeat CPU 0 instructions: 1450000253 cycles: 1155547888 heartbeat IPC: 1.276 cumulative IPC: 1.255 (Simulation time: 02 hr 54 min 07 sec)
[ERROR_CYCLE] Error added at CPU cycle 1160990919, next at 1213496919, pending count: 1
[DRAM_CYCLE_ERROR] Cycle-based error applied! address=0x180ea2480 additional_latency=1990500 cycles
Heartbeat CPU 0 instructions: 1460000254 cycles: 1163490071 heartbeat IPC: 1.259 cumulative IPC: 1.255 (Simulation time: 02 hr 55 min 20 sec)
Heartbeat CPU 0 instructions: 1470000255 cycles: 1171410090 heartbeat IPC: 1.263 cumulative IPC: 1.255 (Simulation time: 02 hr 56 min 33 sec)
Heartbeat CPU 0 instructions: 1480000255 cycles: 1179328457 heartbeat IPC: 1.263 cumulative IPC: 1.255 (Simulation time: 02 hr 57 min 45 sec)
Heartbeat CPU 0 instructions: 1490000258 cycles: 1187206943 heartbeat IPC: 1.269 cumulative IPC: 1.255 (Simulation time: 02 hr 58 min 57 sec)
Heartbeat CPU 0 instructions: 1500000259 cycles: 1195080419 heartbeat IPC: 1.27 cumulative IPC: 1.255 (Simulation time: 03 hr 00 min 09 sec)
Heartbeat CPU 0 instructions: 1510000262 cycles: 1203285209 heartbeat IPC: 1.219 cumulative IPC: 1.255 (Simulation time: 03 hr 01 min 23 sec)
Heartbeat CPU 0 instructions: 1520000266 cycles: 1211604744 heartbeat IPC: 1.202 cumulative IPC: 1.255 (Simulation time: 03 hr 02 min 39 sec)
[ERROR_CYCLE] Error added at CPU cycle 1213496920, next at 1516211877, pending count: 1
[DRAM_CYCLE_ERROR] Cycle-based error applied! address=0x307407780 additional_latency=1990500 cycles
Heartbeat CPU 0 instructions: 1530000268 cycles: 1219976258 heartbeat IPC: 1.195 cumulative IPC: 1.254 (Simulation time: 03 hr 03 min 55 sec)
Heartbeat CPU 0 instructions: 1540000269 cycles: 1228392351 heartbeat IPC: 1.188 cumulative IPC: 1.254 (Simulation time: 03 hr 05 min 10 sec)
Heartbeat CPU 0 instructions: 1550000271 cycles: 1236672015 heartbeat IPC: 1.208 cumulative IPC: 1.253 (Simulation time: 03 hr 06 min 25 sec)
Heartbeat CPU 0 instructions: 1560000273 cycles: 1244705854 heartbeat IPC: 1.245 cumulative IPC: 1.253 (Simulation time: 03 hr 07 min 38 sec)
Heartbeat CPU 0 instructions: 1570000273 cycles: 1252881439 heartbeat IPC: 1.223 cumulative IPC: 1.253 (Simulation time: 03 hr 08 min 52 sec)
Heartbeat CPU 0 instructions: 1580000274 cycles: 1260850657 heartbeat IPC: 1.255 cumulative IPC: 1.253 (Simulation time: 03 hr 09 min 54 sec)
Heartbeat CPU 0 instructions: 1590000277 cycles: 1268710943 heartbeat IPC: 1.272 cumulative IPC: 1.253 (Simulation time: 03 hr 10 min 41 sec)
Heartbeat CPU 0 instructions: 1600000278 cycles: 1276725428 heartbeat IPC: 1.248 cumulative IPC: 1.253 (Simulation time: 03 hr 11 min 29 sec)
Heartbeat CPU 0 instructions: 1610000279 cycles: 1284599080 heartbeat IPC: 1.27 cumulative IPC: 1.253 (Simulation time: 03 hr 12 min 16 sec)
Heartbeat CPU 0 instructions: 1620000279 cycles: 1292487911 heartbeat IPC: 1.268 cumulative IPC: 1.253 (Simulation time: 03 hr 13 min 03 sec)
Heartbeat CPU 0 instructions: 1630000281 cycles: 1300633749 heartbeat IPC: 1.228 cumulative IPC: 1.253 (Simulation time: 03 hr 13 min 51 sec)
Heartbeat CPU 0 instructions: 1640000282 cycles: 1308866261 heartbeat IPC: 1.215 cumulative IPC: 1.253 (Simulation time: 03 hr 14 min 40 sec)
Heartbeat CPU 0 instructions: 1650000284 cycles: 1316689548 heartbeat IPC: 1.278 cumulative IPC: 1.253 (Simulation time: 03 hr 15 min 27 sec)
Heartbeat CPU 0 instructions: 1660000285 cycles: 1324532324 heartbeat IPC: 1.275 cumulative IPC: 1.253 (Simulation time: 03 hr 16 min 20 sec)
Heartbeat CPU 0 instructions: 1670000285 cycles: 1332392792 heartbeat IPC: 1.272 cumulative IPC: 1.253 (Simulation time: 03 hr 17 min 26 sec)
Heartbeat CPU 0 instructions: 1680000286 cycles: 1340688149 heartbeat IPC: 1.205 cumulative IPC: 1.253 (Simulation time: 03 hr 18 min 40 sec)
Heartbeat CPU 0 instructions: 1690000289 cycles: 1348852455 heartbeat IPC: 1.225 cumulative IPC: 1.253 (Simulation time: 03 hr 19 min 37 sec)
Heartbeat CPU 0 instructions: 1700000290 cycles: 1356787456 heartbeat IPC: 1.26 cumulative IPC: 1.253 (Simulation time: 03 hr 20 min 24 sec)
Heartbeat CPU 0 instructions: 1710000291 cycles: 1364905384 heartbeat IPC: 1.232 cumulative IPC: 1.253 (Simulation time: 03 hr 21 min 12 sec)
Heartbeat CPU 0 instructions: 1720000292 cycles: 1372737568 heartbeat IPC: 1.277 cumulative IPC: 1.253 (Simulation time: 03 hr 22 min 01 sec)
Heartbeat CPU 0 instructions: 1730000293 cycles: 1380612245 heartbeat IPC: 1.27 cumulative IPC: 1.253 (Simulation time: 03 hr 22 min 48 sec)
Heartbeat CPU 0 instructions: 1740000293 cycles: 1388478626 heartbeat IPC: 1.271 cumulative IPC: 1.253 (Simulation time: 03 hr 23 min 39 sec)
Heartbeat CPU 0 instructions: 1750000296 cycles: 1396341216 heartbeat IPC: 1.272 cumulative IPC: 1.253 (Simulation time: 03 hr 24 min 49 sec)
Heartbeat CPU 0 instructions: 1760000299 cycles: 1404371937 heartbeat IPC: 1.245 cumulative IPC: 1.253 (Simulation time: 03 hr 26 min 02 sec)
Heartbeat CPU 0 instructions: 1770000303 cycles: 1412561710 heartbeat IPC: 1.221 cumulative IPC: 1.253 (Simulation time: 03 hr 27 min 00 sec)
Heartbeat CPU 0 instructions: 1780000303 cycles: 1420708713 heartbeat IPC: 1.227 cumulative IPC: 1.253 (Simulation time: 03 hr 28 min 16 sec)
Heartbeat CPU 0 instructions: 1790000306 cycles: 1428944295 heartbeat IPC: 1.214 cumulative IPC: 1.253 (Simulation time: 03 hr 29 min 06 sec)
Heartbeat CPU 0 instructions: 1800000307 cycles: 1437307387 heartbeat IPC: 1.196 cumulative IPC: 1.252 (Simulation time: 03 hr 30 min 05 sec)
Heartbeat CPU 0 instructions: 1810000308 cycles: 1445561846 heartbeat IPC: 1.211 cumulative IPC: 1.252 (Simulation time: 03 hr 31 min 04 sec)
Heartbeat CPU 0 instructions: 1820000311 cycles: 1453622568 heartbeat IPC: 1.241 cumulative IPC: 1.252 (Simulation time: 03 hr 32 min 01 sec)
Heartbeat CPU 0 instructions: 1830000315 cycles: 1461416224 heartbeat IPC: 1.283 cumulative IPC: 1.252 (Simulation time: 03 hr 32 min 52 sec)
Heartbeat CPU 0 instructions: 1840000319 cycles: 1469732780 heartbeat IPC: 1.202 cumulative IPC: 1.252 (Simulation time: 03 hr 33 min 42 sec)
Heartbeat CPU 0 instructions: 1850000320 cycles: 1477632174 heartbeat IPC: 1.266 cumulative IPC: 1.252 (Simulation time: 03 hr 34 min 29 sec)
Heartbeat CPU 0 instructions: 1860000320 cycles: 1485465627 heartbeat IPC: 1.277 cumulative IPC: 1.252 (Simulation time: 03 hr 35 min 21 sec)
Heartbeat CPU 0 instructions: 1870000321 cycles: 1493276743 heartbeat IPC: 1.28 cumulative IPC: 1.252 (Simulation time: 03 hr 36 min 09 sec)
Heartbeat CPU 0 instructions: 1880000323 cycles: 1501712244 heartbeat IPC: 1.185 cumulative IPC: 1.252 (Simulation time: 03 hr 36 min 59 sec)
Heartbeat CPU 0 instructions: 1890000324 cycles: 1509582242 heartbeat IPC: 1.271 cumulative IPC: 1.252 (Simulation time: 03 hr 37 min 46 sec)
[ERROR_CYCLE] Error added at CPU cycle 1516211878, next at 1535167431, pending count: 1
[DRAM_CYCLE_ERROR] Cycle-based error applied! address=0x52bf197c0 additional_latency=1990500 cycles
Heartbeat CPU 0 instructions: 1900000324 cycles: 1517470248 heartbeat IPC: 1.268 cumulative IPC: 1.252 (Simulation time: 03 hr 38 min 35 sec)
Heartbeat CPU 0 instructions: 1910000327 cycles: 1525340910 heartbeat IPC: 1.271 cumulative IPC: 1.252 (Simulation time: 03 hr 39 min 26 sec)
Heartbeat CPU 0 instructions: 1920000328 cycles: 1533386986 heartbeat IPC: 1.243 cumulative IPC: 1.252 (Simulation time: 03 hr 40 min 15 sec)
[ERROR_CYCLE] Error added at CPU cycle 1535167432, next at 1554376223, pending count: 1
[DRAM_CYCLE_ERROR] Cycle-based error applied! address=0x1430f0bd80 additional_latency=1990500 cycles
Heartbeat CPU 0 instructions: 1930000329 cycles: 1541402437 heartbeat IPC: 1.248 cumulative IPC: 1.252 (Simulation time: 03 hr 41 min 04 sec)
Heartbeat CPU 0 instructions: 1940000329 cycles: 1549728502 heartbeat IPC: 1.201 cumulative IPC: 1.252 (Simulation time: 03 hr 41 min 52 sec)
[ERROR_CYCLE] Error added at CPU cycle 1554376224, next at 1784952274, pending count: 1
[DRAM_CYCLE_ERROR] Cycle-based error applied! address=0x531192fc0 additional_latency=1990500 cycles
Heartbeat CPU 0 instructions: 1950000329 cycles: 1557896226 heartbeat IPC: 1.224 cumulative IPC: 1.252 (Simulation time: 03 hr 43 min 02 sec)
Heartbeat CPU 0 instructions: 1960000330 cycles: 1565744400 heartbeat IPC: 1.274 cumulative IPC: 1.252 (Simulation time: 03 hr 44 min 02 sec)
Heartbeat CPU 0 instructions: 1970000334 cycles: 1573708732 heartbeat IPC: 1.256 cumulative IPC: 1.252 (Simulation time: 03 hr 44 min 48 sec)
Heartbeat CPU 0 instructions: 1980000335 cycles: 1581686926 heartbeat IPC: 1.253 cumulative IPC: 1.252 (Simulation time: 03 hr 45 min 35 sec)
Heartbeat CPU 0 instructions: 1990000336 cycles: 1589595135 heartbeat IPC: 1.265 cumulative IPC: 1.252 (Simulation time: 03 hr 46 min 22 sec)

=== ERROR PAGE STATISTICS ===
Mode: CYCLE
Error Cycle Interval: 80000000 CPU cycles
Total Error Accesses: 20
==============================
Simulation finished CPU 0 instructions: 1999999656 cycles: 1597434194 cumulative IPC: 1.252 (Simulation time: 03 hr 47 min 08 sec)
Simulation complete CPU 0 instructions: 1999999656 cycles: 1597434194 cumulative IPC: 1.252 (Simulation time: 03 hr 47 min 08 sec)

ChampSim completed all CPUs

=== Simulation ===
CPU 0 runs test_traces/603.bwaves_s-2931B.champsimtrace.xz

Region of Interest Statistics

CPU 0 cumulative IPC: 1.252 instructions: 1999999656 cycles: 1597434194
CPU 0 Branch Prediction Accuracy: 80.62% MPKI: 1.636 Average ROB Occupancy at Mispredict: 300.1
Branch type MPKI
BRANCH_DIRECT_JUMP: 0
BRANCH_INDIRECT: 0
BRANCH_CONDITIONAL: 1.636
BRANCH_DIRECT_CALL: 0
BRANCH_INDIRECT_CALL: 0
BRANCH_RETURN: 0

cpu0->cpu0_STLB TOTAL        ACCESS:        759 HIT:          8 MISS:        751 MSHR_MERGE:          0
cpu0->cpu0_STLB LOAD         ACCESS:        759 HIT:          8 MISS:        751 MSHR_MERGE:          0
cpu0->cpu0_STLB RFO          ACCESS:          0 HIT:          0 MISS:          0 MSHR_MERGE:          0
cpu0->cpu0_STLB PREFETCH     ACCESS:          0 HIT:          0 MISS:          0 MSHR_MERGE:          0
cpu0->cpu0_STLB WRITE        ACCESS:          0 HIT:          0 MISS:          0 MSHR_MERGE:          0
cpu0->cpu0_STLB TRANSLATION  ACCESS:          0 HIT:          0 MISS:          0 MSHR_MERGE:          0
cpu0->cpu0_STLB PREFETCH REQUESTED:          0 ISSUED:          0 USEFUL:          0 USELESS:          0
cpu0->cpu0_STLB AVERAGE MISS LATENCY: 8784 cycles
cpu0->cpu0_L2C TOTAL        ACCESS:   46483042 HIT:   16685357 MISS:   29797685 MSHR_MERGE:          0
cpu0->cpu0_L2C LOAD         ACCESS:   20689335 HIT:    2799507 MISS:   17889828 MSHR_MERGE:          0
cpu0->cpu0_L2C RFO          ACCESS:   12819711 HIT:     912018 MISS:   11907693 MSHR_MERGE:          0
cpu0->cpu0_L2C PREFETCH     ACCESS:          0 HIT:          0 MISS:          0 MSHR_MERGE:          0
cpu0->cpu0_L2C WRITE        ACCESS:   12973996 HIT:   12973832 MISS:        164 MSHR_MERGE:          0
cpu0->cpu0_L2C TRANSLATION  ACCESS:          0 HIT:          0 MISS:          0 MSHR_MERGE:          0
cpu0->cpu0_L2C PREFETCH REQUESTED:          0 ISSUED:          0 USEFUL:          0 USELESS:          0
cpu0->cpu0_L2C AVERAGE MISS LATENCY: 121.1 cycles
cpu0->cpu0_L1I TOTAL        ACCESS:  226147330 HIT:  226147257 MISS:         73 MSHR_MERGE:         24
cpu0->cpu0_L1I LOAD         ACCESS:  226147330 HIT:  226147257 MISS:         73 MSHR_MERGE:         24
cpu0->cpu0_L1I RFO          ACCESS:          0 HIT:          0 MISS:          0 MSHR_MERGE:          0
cpu0->cpu0_L1I PREFETCH     ACCESS:          0 HIT:          0 MISS:          0 MSHR_MERGE:          0
cpu0->cpu0_L1I WRITE        ACCESS:          0 HIT:          0 MISS:          0 MSHR_MERGE:          0
cpu0->cpu0_L1I TRANSLATION  ACCESS:          0 HIT:          0 MISS:          0 MSHR_MERGE:          0
cpu0->cpu0_L1I PREFETCH REQUESTED:          0 ISSUED:          0 USEFUL:          0 USELESS:          0
cpu0->cpu0_L1I AVERAGE MISS LATENCY: 182.6 cycles
cpu0->cpu0_L1D TOTAL        ACCESS:  656950354 HIT:  604751823 MISS:   52198531 MSHR_MERGE:   18674934
cpu0->cpu0_L1D LOAD         ACCESS:  291011949 HIT:  270068872 MISS:   20943077 MSHR_MERGE:     253480
cpu0->cpu0_L1D RFO          ACCESS:          0 HIT:          0 MISS:          0 MSHR_MERGE:          0
cpu0->cpu0_L1D PREFETCH     ACCESS:          0 HIT:          0 MISS:          0 MSHR_MERGE:          0
cpu0->cpu0_L1D WRITE        ACCESS:  365938405 HIT:  334682951 MISS:   31255454 MSHR_MERGE:   18421454
cpu0->cpu0_L1D TRANSLATION  ACCESS:          0 HIT:          0 MISS:          0 MSHR_MERGE:          0
cpu0->cpu0_L1D PREFETCH REQUESTED:          0 ISSUED:          0 USEFUL:          0 USELESS:          0
cpu0->cpu0_L1D AVERAGE MISS LATENCY: 116.7 cycles
cpu0->cpu0_ITLB TOTAL        ACCESS:  180480422 HIT:  180480415 MISS:          7 MSHR_MERGE:          6
cpu0->cpu0_ITLB LOAD         ACCESS:  180480422 HIT:  180480415 MISS:          7 MSHR_MERGE:          6
cpu0->cpu0_ITLB RFO          ACCESS:          0 HIT:          0 MISS:          0 MSHR_MERGE:          0
cpu0->cpu0_ITLB PREFETCH     ACCESS:          0 HIT:          0 MISS:          0 MSHR_MERGE:          0
cpu0->cpu0_ITLB WRITE        ACCESS:          0 HIT:          0 MISS:          0 MSHR_MERGE:          0
cpu0->cpu0_ITLB TRANSLATION  ACCESS:          0 HIT:          0 MISS:          0 MSHR_MERGE:          0
cpu0->cpu0_ITLB PREFETCH REQUESTED:          0 ISSUED:          0 USEFUL:          0 USELESS:          0
cpu0->cpu0_ITLB AVERAGE MISS LATENCY: 1.722e+04 cycles
cpu0->cpu0_DTLB TOTAL        ACCESS:  551726363 HIT:  551720122 MISS:       6241 MSHR_MERGE:       5483
cpu0->cpu0_DTLB LOAD         ACCESS:  551726363 HIT:  551720122 MISS:       6241 MSHR_MERGE:       5483
cpu0->cpu0_DTLB RFO          ACCESS:          0 HIT:          0 MISS:          0 MSHR_MERGE:          0
cpu0->cpu0_DTLB PREFETCH     ACCESS:          0 HIT:          0 MISS:          0 MSHR_MERGE:          0
cpu0->cpu0_DTLB WRITE        ACCESS:          0 HIT:          0 MISS:          0 MSHR_MERGE:          0
cpu0->cpu0_DTLB TRANSLATION  ACCESS:          0 HIT:          0 MISS:          0 MSHR_MERGE:          0
cpu0->cpu0_DTLB PREFETCH REQUESTED:          0 ISSUED:          0 USEFUL:          0 USELESS:          0
cpu0->cpu0_DTLB AVERAGE MISS LATENCY: 8686 cycles
cpu0->LLC TOTAL        ACCESS:   41702903 HIT:   14443777 MISS:   27259126 MSHR_MERGE:          0
cpu0->LLC LOAD         ACCESS:   17889828 HIT:    2538633 MISS:   15351195 MSHR_MERGE:          0
cpu0->LLC RFO          ACCESS:   11907693 HIT:          0 MISS:   11907693 MSHR_MERGE:          0
cpu0->LLC PREFETCH     ACCESS:          0 HIT:          0 MISS:          0 MSHR_MERGE:          0
cpu0->LLC WRITE        ACCESS:   11905382 HIT:   11905144 MISS:        238 MSHR_MERGE:          0
cpu0->LLC TRANSLATION  ACCESS:          0 HIT:          0 MISS:          0 MSHR_MERGE:          0
cpu0->LLC PREFETCH REQUESTED:          0 ISSUED:          0 USEFUL:          0 USELESS:          0
cpu0->LLC AVERAGE MISS LATENCY: 115 cycles

DRAM Statistics

Channel 0 RQ ROW_BUFFER_HIT:     297243
  ROW_BUFFER_MISS:   13333109
  AVG DBUS CONGESTED CYCLE: 10.91
Channel 0 WQ ROW_BUFFER_HIT:    2642800
  ROW_BUFFER_MISS:    3304319
  FULL:          0
Channel 0 REFRESHES ISSUED:     133110

Channel 1 RQ ROW_BUFFER_HIT:     299025
  ROW_BUFFER_MISS:   13331021
  AVG DBUS CONGESTED CYCLE: 10.91
Channel 1 WQ ROW_BUFFER_HIT:    2640474
  ROW_BUFFER_MISS:    3306559
  FULL:          0
Channel 1 REFRESHES ISSUED:     133110
