[VMEM] WARNING: physical memory size is smaller than virtual memory size.

*** ChampSim Multicore Out-of-Order Simulator ***
Warmup Instructions: 0
Simulation Instructions: 9223372036854775807
Number of CPUs: 1
Page size: 2097152

Off-chip DRAM Size: 32 GiB Channels: 2 Width: 32-bit Data Rate: 4807 MT/s
[ERROR_PAGE_MANAGER] Error latency: 1990500 
[ERROR_PAGE_MANAGER] Random seed: 54321 (fixed for preload reproducibility)
[ERROR_PAGE_MANAGER] Cycle-based error modeling enabled
[ERROR_PAGE_MANAGER] Errors per interval: 1
[ERROR_PAGE_MANAGER] Error cycle interval: 200000000000 cycles

=== ERROR PAGE STATISTICS ===
Mode: CYCLE
Error Cycle Interval: 200000000000 CPU cycles
Total Error Accesses: 0
==============================
Warmup finished CPU 0 instructions: 0 cycles: 1 cumulative IPC: 0 (Simulation time: 00 hr 00 min 00 sec)
Warmup complete CPU 0 instructions: 0 cycles: 1 cumulative IPC: 0 (Simulation time: 00 hr 00 min 00 sec)
Heartbeat CPU 0 instructions: 10000001 cycles: 10917800 heartbeat IPC: 0.9159 cumulative IPC: 0.9159 (Simulation time: 00 hr 01 min 48 sec)
Heartbeat CPU 0 instructions: 20000004 cycles: 21708684 heartbeat IPC: 0.9267 cumulative IPC: 0.9213 (Simulation time: 00 hr 03 min 36 sec)
Heartbeat CPU 0 instructions: 30000005 cycles: 32490287 heartbeat IPC: 0.9275 cumulative IPC: 0.9234 (Simulation time: 00 hr 05 min 23 sec)
Heartbeat CPU 0 instructions: 40000008 cycles: 43388029 heartbeat IPC: 0.9176 cumulative IPC: 0.9219 (Simulation time: 00 hr 07 min 12 sec)
Heartbeat CPU 0 instructions: 50000010 cycles: 54203516 heartbeat IPC: 0.9246 cumulative IPC: 0.9224 (Simulation time: 00 hr 09 min 00 sec)
Heartbeat CPU 0 instructions: 60000010 cycles: 64992420 heartbeat IPC: 0.9269 cumulative IPC: 0.9232 (Simulation time: 00 hr 10 min 37 sec)
Heartbeat CPU 0 instructions: 70000012 cycles: 75758783 heartbeat IPC: 0.9288 cumulative IPC: 0.924 (Simulation time: 00 hr 12 min 11 sec)
Heartbeat CPU 0 instructions: 80000015 cycles: 86659761 heartbeat IPC: 0.9173 cumulative IPC: 0.9232 (Simulation time: 00 hr 13 min 56 sec)
Heartbeat CPU 0 instructions: 90000018 cycles: 97437894 heartbeat IPC: 0.9278 cumulative IPC: 0.9237 (Simulation time: 00 hr 15 min 43 sec)
Heartbeat CPU 0 instructions: 100000021 cycles: 108314319 heartbeat IPC: 0.9194 cumulative IPC: 0.9232 (Simulation time: 00 hr 17 min 03 sec)
Heartbeat CPU 0 instructions: 110000022 cycles: 119270009 heartbeat IPC: 0.9128 cumulative IPC: 0.9223 (Simulation time: 00 hr 18 min 33 sec)
Heartbeat CPU 0 instructions: 120000025 cycles: 130332001 heartbeat IPC: 0.904 cumulative IPC: 0.9207 (Simulation time: 00 hr 20 min 22 sec)
Heartbeat CPU 0 instructions: 130000029 cycles: 141152478 heartbeat IPC: 0.9242 cumulative IPC: 0.921 (Simulation time: 00 hr 21 min 50 sec)
Heartbeat CPU 0 instructions: 140000029 cycles: 151967629 heartbeat IPC: 0.9246 cumulative IPC: 0.9212 (Simulation time: 00 hr 23 min 14 sec)
Heartbeat CPU 0 instructions: 150000029 cycles: 162776839 heartbeat IPC: 0.9251 cumulative IPC: 0.9215 (Simulation time: 00 hr 24 min 35 sec)
Heartbeat CPU 0 instructions: 160000031 cycles: 173636304 heartbeat IPC: 0.9209 cumulative IPC: 0.9215 (Simulation time: 00 hr 26 min 07 sec)
Heartbeat CPU 0 instructions: 170000031 cycles: 184483053 heartbeat IPC: 0.9219 cumulative IPC: 0.9215 (Simulation time: 00 hr 27 min 39 sec)
Heartbeat CPU 0 instructions: 180000032 cycles: 195410240 heartbeat IPC: 0.9151 cumulative IPC: 0.9211 (Simulation time: 00 hr 29 min 12 sec)
Heartbeat CPU 0 instructions: 190000036 cycles: 206325148 heartbeat IPC: 0.9162 cumulative IPC: 0.9209 (Simulation time: 00 hr 30 min 39 sec)
Heartbeat CPU 0 instructions: 200000039 cycles: 217103755 heartbeat IPC: 0.9278 cumulative IPC: 0.9212 (Simulation time: 00 hr 31 min 57 sec)
Heartbeat CPU 0 instructions: 210000041 cycles: 228022486 heartbeat IPC: 0.9159 cumulative IPC: 0.921 (Simulation time: 00 hr 33 min 33 sec)
Heartbeat CPU 0 instructions: 220000041 cycles: 238823971 heartbeat IPC: 0.9258 cumulative IPC: 0.9212 (Simulation time: 00 hr 35 min 03 sec)
Heartbeat CPU 0 instructions: 230000041 cycles: 249636448 heartbeat IPC: 0.9249 cumulative IPC: 0.9213 (Simulation time: 00 hr 36 min 30 sec)
Heartbeat CPU 0 instructions: 240000044 cycles: 260438094 heartbeat IPC: 0.9258 cumulative IPC: 0.9215 (Simulation time: 00 hr 37 min 57 sec)
Heartbeat CPU 0 instructions: 250000048 cycles: 271255326 heartbeat IPC: 0.9245 cumulative IPC: 0.9216 (Simulation time: 00 hr 39 min 31 sec)
Heartbeat CPU 0 instructions: 260000052 cycles: 282038129 heartbeat IPC: 0.9274 cumulative IPC: 0.9219 (Simulation time: 00 hr 41 min 18 sec)
Heartbeat CPU 0 instructions: 270000052 cycles: 292836768 heartbeat IPC: 0.926 cumulative IPC: 0.922 (Simulation time: 00 hr 42 min 43 sec)
Heartbeat CPU 0 instructions: 280000054 cycles: 309685814 heartbeat IPC: 0.5935 cumulative IPC: 0.9041 (Simulation time: 00 hr 45 min 41 sec)
Heartbeat CPU 0 instructions: 290000054 cycles: 327901468 heartbeat IPC: 0.549 cumulative IPC: 0.8844 (Simulation time: 00 hr 48 min 30 sec)
Heartbeat CPU 0 instructions: 300000058 cycles: 339232318 heartbeat IPC: 0.8825 cumulative IPC: 0.8843 (Simulation time: 00 hr 50 min 20 sec)
Heartbeat CPU 0 instructions: 310000059 cycles: 350413231 heartbeat IPC: 0.8944 cumulative IPC: 0.8847 (Simulation time: 00 hr 52 min 09 sec)
Heartbeat CPU 0 instructions: 320000059 cycles: 361564002 heartbeat IPC: 0.8968 cumulative IPC: 0.885 (Simulation time: 00 hr 53 min 58 sec)
Heartbeat CPU 0 instructions: 330000061 cycles: 372629032 heartbeat IPC: 0.9037 cumulative IPC: 0.8856 (Simulation time: 00 hr 55 min 42 sec)
Heartbeat CPU 0 instructions: 340000061 cycles: 383639120 heartbeat IPC: 0.9083 cumulative IPC: 0.8862 (Simulation time: 00 hr 57 min 30 sec)
Heartbeat CPU 0 instructions: 350000062 cycles: 394608067 heartbeat IPC: 0.9117 cumulative IPC: 0.887 (Simulation time: 00 hr 59 min 17 sec)
Heartbeat CPU 0 instructions: 360000066 cycles: 405576774 heartbeat IPC: 0.9117 cumulative IPC: 0.8876 (Simulation time: 01 hr 00 min 58 sec)
Heartbeat CPU 0 instructions: 370000067 cycles: 416535527 heartbeat IPC: 0.9125 cumulative IPC: 0.8883 (Simulation time: 01 hr 02 min 16 sec)
Heartbeat CPU 0 instructions: 380000068 cycles: 427518089 heartbeat IPC: 0.9105 cumulative IPC: 0.8889 (Simulation time: 01 hr 03 min 38 sec)
Heartbeat CPU 0 instructions: 390000069 cycles: 438640479 heartbeat IPC: 0.8991 cumulative IPC: 0.8891 (Simulation time: 01 hr 05 min 24 sec)
Heartbeat CPU 0 instructions: 400000073 cycles: 449607872 heartbeat IPC: 0.9118 cumulative IPC: 0.8897 (Simulation time: 01 hr 07 min 08 sec)
Heartbeat CPU 0 instructions: 410000073 cycles: 460609951 heartbeat IPC: 0.9089 cumulative IPC: 0.8901 (Simulation time: 01 hr 08 min 53 sec)
Heartbeat CPU 0 instructions: 420000075 cycles: 471687419 heartbeat IPC: 0.9027 cumulative IPC: 0.8904 (Simulation time: 01 hr 10 min 38 sec)
Heartbeat CPU 0 instructions: 430000079 cycles: 482660628 heartbeat IPC: 0.9113 cumulative IPC: 0.8909 (Simulation time: 01 hr 12 min 22 sec)
Heartbeat CPU 0 instructions: 440000082 cycles: 493628853 heartbeat IPC: 0.9117 cumulative IPC: 0.8914 (Simulation time: 01 hr 14 min 07 sec)
Heartbeat CPU 0 instructions: 450000086 cycles: 504592639 heartbeat IPC: 0.9121 cumulative IPC: 0.8918 (Simulation time: 01 hr 15 min 51 sec)
Heartbeat CPU 0 instructions: 460000088 cycles: 515554116 heartbeat IPC: 0.9123 cumulative IPC: 0.8922 (Simulation time: 01 hr 17 min 36 sec)
Heartbeat CPU 0 instructions: 470000089 cycles: 526502978 heartbeat IPC: 0.9133 cumulative IPC: 0.8927 (Simulation time: 01 hr 19 min 21 sec)
Heartbeat CPU 0 instructions: 480000089 cycles: 537468579 heartbeat IPC: 0.9119 cumulative IPC: 0.8931 (Simulation time: 01 hr 21 min 09 sec)
Heartbeat CPU 0 instructions: 490000091 cycles: 548413409 heartbeat IPC: 0.9137 cumulative IPC: 0.8935 (Simulation time: 01 hr 22 min 56 sec)
Heartbeat CPU 0 instructions: 500000094 cycles: 559390479 heartbeat IPC: 0.911 cumulative IPC: 0.8938 (Simulation time: 01 hr 24 min 44 sec)
Heartbeat CPU 0 instructions: 510000098 cycles: 570364632 heartbeat IPC: 0.9112 cumulative IPC: 0.8942 (Simulation time: 01 hr 26 min 31 sec)
Heartbeat CPU 0 instructions: 520000101 cycles: 581318052 heartbeat IPC: 0.913 cumulative IPC: 0.8945 (Simulation time: 01 hr 28 min 19 sec)
Heartbeat CPU 0 instructions: 530000102 cycles: 592273961 heartbeat IPC: 0.9127 cumulative IPC: 0.8949 (Simulation time: 01 hr 30 min 00 sec)
Heartbeat CPU 0 instructions: 540000103 cycles: 603242621 heartbeat IPC: 0.9117 cumulative IPC: 0.8952 (Simulation time: 01 hr 31 min 44 sec)
Heartbeat CPU 0 instructions: 550000105 cycles: 614219312 heartbeat IPC: 0.911 cumulative IPC: 0.8954 (Simulation time: 01 hr 33 min 33 sec)
Heartbeat CPU 0 instructions: 560000106 cycles: 625193989 heartbeat IPC: 0.9112 cumulative IPC: 0.8957 (Simulation time: 01 hr 35 min 12 sec)
Heartbeat CPU 0 instructions: 570000106 cycles: 636168027 heartbeat IPC: 0.9112 cumulative IPC: 0.896 (Simulation time: 01 hr 36 min 58 sec)
Heartbeat CPU 0 instructions: 580000106 cycles: 647145142 heartbeat IPC: 0.911 cumulative IPC: 0.8962 (Simulation time: 01 hr 38 min 45 sec)
Heartbeat CPU 0 instructions: 590000109 cycles: 658236274 heartbeat IPC: 0.9016 cumulative IPC: 0.8963 (Simulation time: 01 hr 40 min 33 sec)
Heartbeat CPU 0 instructions: 600000110 cycles: 669247224 heartbeat IPC: 0.9082 cumulative IPC: 0.8965 (Simulation time: 01 hr 42 min 19 sec)
Heartbeat CPU 0 instructions: 610000110 cycles: 680314814 heartbeat IPC: 0.9035 cumulative IPC: 0.8966 (Simulation time: 01 hr 43 min 46 sec)
Heartbeat CPU 0 instructions: 620000110 cycles: 691415048 heartbeat IPC: 0.9009 cumulative IPC: 0.8967 (Simulation time: 01 hr 45 min 24 sec)
Heartbeat CPU 0 instructions: 630000110 cycles: 702491078 heartbeat IPC: 0.9029 cumulative IPC: 0.8968 (Simulation time: 01 hr 47 min 06 sec)
Heartbeat CPU 0 instructions: 640000110 cycles: 713573126 heartbeat IPC: 0.9024 cumulative IPC: 0.8969 (Simulation time: 01 hr 48 min 54 sec)
Heartbeat CPU 0 instructions: 650000111 cycles: 724665985 heartbeat IPC: 0.9015 cumulative IPC: 0.897 (Simulation time: 01 hr 50 min 25 sec)
Heartbeat CPU 0 instructions: 660000112 cycles: 735718754 heartbeat IPC: 0.9048 cumulative IPC: 0.8971 (Simulation time: 01 hr 52 min 06 sec)
Heartbeat CPU 0 instructions: 670000112 cycles: 746803417 heartbeat IPC: 0.9021 cumulative IPC: 0.8972 (Simulation time: 01 hr 53 min 48 sec)
Heartbeat CPU 0 instructions: 680000115 cycles: 758008905 heartbeat IPC: 0.8924 cumulative IPC: 0.8971 (Simulation time: 01 hr 55 min 21 sec)
Heartbeat CPU 0 instructions: 690000119 cycles: 769497457 heartbeat IPC: 0.8704 cumulative IPC: 0.8967 (Simulation time: 01 hr 57 min 12 sec)
Heartbeat CPU 0 instructions: 700000119 cycles: 780343121 heartbeat IPC: 0.922 cumulative IPC: 0.897 (Simulation time: 01 hr 59 min 00 sec)
Heartbeat CPU 0 instructions: 710000119 cycles: 791198004 heartbeat IPC: 0.9212 cumulative IPC: 0.8974 (Simulation time: 02 hr 00 min 49 sec)
Heartbeat CPU 0 instructions: 720000121 cycles: 802032591 heartbeat IPC: 0.923 cumulative IPC: 0.8977 (Simulation time: 02 hr 02 min 37 sec)
Heartbeat CPU 0 instructions: 730000121 cycles: 812878436 heartbeat IPC: 0.922 cumulative IPC: 0.898 (Simulation time: 02 hr 04 min 26 sec)
Heartbeat CPU 0 instructions: 740000123 cycles: 823705216 heartbeat IPC: 0.9236 cumulative IPC: 0.8984 (Simulation time: 02 hr 06 min 15 sec)
Heartbeat CPU 0 instructions: 750000123 cycles: 834537129 heartbeat IPC: 0.9232 cumulative IPC: 0.8987 (Simulation time: 02 hr 08 min 04 sec)
Heartbeat CPU 0 instructions: 760000124 cycles: 845610211 heartbeat IPC: 0.9031 cumulative IPC: 0.8988 (Simulation time: 02 hr 09 min 55 sec)
Heartbeat CPU 0 instructions: 770000124 cycles: 856806773 heartbeat IPC: 0.8931 cumulative IPC: 0.8987 (Simulation time: 02 hr 11 min 47 sec)
Heartbeat CPU 0 instructions: 780000127 cycles: 868910622 heartbeat IPC: 0.8262 cumulative IPC: 0.8977 (Simulation time: 02 hr 13 min 47 sec)
Heartbeat CPU 0 instructions: 790000128 cycles: 881032259 heartbeat IPC: 0.825 cumulative IPC: 0.8967 (Simulation time: 02 hr 15 min 48 sec)
Heartbeat CPU 0 instructions: 800000132 cycles: 893142331 heartbeat IPC: 0.8258 cumulative IPC: 0.8957 (Simulation time: 02 hr 17 min 49 sec)
Heartbeat CPU 0 instructions: 810000136 cycles: 905238686 heartbeat IPC: 0.8267 cumulative IPC: 0.8948 (Simulation time: 02 hr 19 min 50 sec)
Heartbeat CPU 0 instructions: 820000136 cycles: 916883891 heartbeat IPC: 0.8587 cumulative IPC: 0.8943 (Simulation time: 02 hr 21 min 47 sec)
Heartbeat CPU 0 instructions: 830000137 cycles: 928411564 heartbeat IPC: 0.8675 cumulative IPC: 0.894 (Simulation time: 02 hr 23 min 43 sec)
Heartbeat CPU 0 instructions: 840000139 cycles: 939993571 heartbeat IPC: 0.8634 cumulative IPC: 0.8936 (Simulation time: 02 hr 25 min 40 sec)
Heartbeat CPU 0 instructions: 850000140 cycles: 951580323 heartbeat IPC: 0.8631 cumulative IPC: 0.8933 (Simulation time: 02 hr 27 min 37 sec)
Heartbeat CPU 0 instructions: 860000142 cycles: 963450944 heartbeat IPC: 0.8424 cumulative IPC: 0.8926 (Simulation time: 02 hr 29 min 35 sec)
Heartbeat CPU 0 instructions: 870000145 cycles: 975505732 heartbeat IPC: 0.8295 cumulative IPC: 0.8918 (Simulation time: 02 hr 31 min 36 sec)
Heartbeat CPU 0 instructions: 880000147 cycles: 987624476 heartbeat IPC: 0.8252 cumulative IPC: 0.891 (Simulation time: 02 hr 33 min 36 sec)
Heartbeat CPU 0 instructions: 890000147 cycles: 999839395 heartbeat IPC: 0.8187 cumulative IPC: 0.8901 (Simulation time: 02 hr 35 min 38 sec)
Heartbeat CPU 0 instructions: 900000150 cycles: 1011861844 heartbeat IPC: 0.8318 cumulative IPC: 0.8894 (Simulation time: 02 hr 37 min 32 sec)
Heartbeat CPU 0 instructions: 910000151 cycles: 1023522756 heartbeat IPC: 0.8576 cumulative IPC: 0.8891 (Simulation time: 02 hr 39 min 29 sec)
Heartbeat CPU 0 instructions: 920000151 cycles: 1035138026 heartbeat IPC: 0.8609 cumulative IPC: 0.8888 (Simulation time: 02 hr 41 min 27 sec)
Heartbeat CPU 0 instructions: 930000151 cycles: 1046637733 heartbeat IPC: 0.8696 cumulative IPC: 0.8886 (Simulation time: 02 hr 43 min 23 sec)
Heartbeat CPU 0 instructions: 940000153 cycles: 1058202367 heartbeat IPC: 0.8647 cumulative IPC: 0.8883 (Simulation time: 02 hr 45 min 19 sec)
Heartbeat CPU 0 instructions: 950000156 cycles: 1070426094 heartbeat IPC: 0.8181 cumulative IPC: 0.8875 (Simulation time: 02 hr 47 min 20 sec)
Heartbeat CPU 0 instructions: 960000160 cycles: 1082686650 heartbeat IPC: 0.8156 cumulative IPC: 0.8867 (Simulation time: 02 hr 49 min 20 sec)
Heartbeat CPU 0 instructions: 970000161 cycles: 1094784255 heartbeat IPC: 0.8266 cumulative IPC: 0.886 (Simulation time: 02 hr 51 min 19 sec)
Heartbeat CPU 0 instructions: 980000162 cycles: 1106857734 heartbeat IPC: 0.8283 cumulative IPC: 0.8854 (Simulation time: 02 hr 53 min 17 sec)
Heartbeat CPU 0 instructions: 990000165 cycles: 1118590404 heartbeat IPC: 0.8523 cumulative IPC: 0.885 (Simulation time: 02 hr 55 min 13 sec)
Heartbeat CPU 0 instructions: 1000000165 cycles: 1130125414 heartbeat IPC: 0.8669 cumulative IPC: 0.8849 (Simulation time: 02 hr 56 min 45 sec)
Heartbeat CPU 0 instructions: 1010000168 cycles: 1141675889 heartbeat IPC: 0.8658 cumulative IPC: 0.8847 (Simulation time: 02 hr 58 min 28 sec)
Heartbeat CPU 0 instructions: 1020000172 cycles: 1153185334 heartbeat IPC: 0.8689 cumulative IPC: 0.8845 (Simulation time: 03 hr 00 min 03 sec)
Heartbeat CPU 0 instructions: 1030000174 cycles: 1166546363 heartbeat IPC: 0.7484 cumulative IPC: 0.8829 (Simulation time: 03 hr 02 min 10 sec)
Heartbeat CPU 0 instructions: 1040000174 cycles: 1178659445 heartbeat IPC: 0.8256 cumulative IPC: 0.8824 (Simulation time: 03 hr 04 min 10 sec)
Heartbeat CPU 0 instructions: 1050000175 cycles: 1190414132 heartbeat IPC: 0.8507 cumulative IPC: 0.882 (Simulation time: 03 hr 06 min 08 sec)
Heartbeat CPU 0 instructions: 1060000178 cycles: 1202186717 heartbeat IPC: 0.8494 cumulative IPC: 0.8817 (Simulation time: 03 hr 08 min 06 sec)
Heartbeat CPU 0 instructions: 1070000182 cycles: 1213901190 heartbeat IPC: 0.8536 cumulative IPC: 0.8815 (Simulation time: 03 hr 10 min 04 sec)
Heartbeat CPU 0 instructions: 1080000183 cycles: 1225450101 heartbeat IPC: 0.8659 cumulative IPC: 0.8813 (Simulation time: 03 hr 11 min 54 sec)
Heartbeat CPU 0 instructions: 1090000186 cycles: 1236850929 heartbeat IPC: 0.8771 cumulative IPC: 0.8813 (Simulation time: 03 hr 13 min 32 sec)
Heartbeat CPU 0 instructions: 1100000186 cycles: 1248206325 heartbeat IPC: 0.8806 cumulative IPC: 0.8813 (Simulation time: 03 hr 15 min 19 sec)
Heartbeat CPU 0 instructions: 1110000188 cycles: 1259458475 heartbeat IPC: 0.8887 cumulative IPC: 0.8813 (Simulation time: 03 hr 17 min 11 sec)
Heartbeat CPU 0 instructions: 1120000190 cycles: 1270715850 heartbeat IPC: 0.8883 cumulative IPC: 0.8814 (Simulation time: 03 hr 19 min 04 sec)
Heartbeat CPU 0 instructions: 1130000191 cycles: 1282617458 heartbeat IPC: 0.8402 cumulative IPC: 0.881 (Simulation time: 03 hr 20 min 56 sec)
Heartbeat CPU 0 instructions: 1140000193 cycles: 1294540304 heartbeat IPC: 0.8387 cumulative IPC: 0.8806 (Simulation time: 03 hr 22 min 54 sec)
Heartbeat CPU 0 instructions: 1150000196 cycles: 1306235439 heartbeat IPC: 0.8551 cumulative IPC: 0.8804 (Simulation time: 03 hr 24 min 46 sec)
Heartbeat CPU 0 instructions: 1160000196 cycles: 1317917848 heartbeat IPC: 0.856 cumulative IPC: 0.8802 (Simulation time: 03 hr 26 min 26 sec)
Heartbeat CPU 0 instructions: 1170000199 cycles: 1329301597 heartbeat IPC: 0.8784 cumulative IPC: 0.8802 (Simulation time: 03 hr 28 min 01 sec)
Heartbeat CPU 0 instructions: 1180000199 cycles: 1340715445 heartbeat IPC: 0.8761 cumulative IPC: 0.8801 (Simulation time: 03 hr 29 min 47 sec)
Heartbeat CPU 0 instructions: 1190000203 cycles: 1352130230 heartbeat IPC: 0.8761 cumulative IPC: 0.8801 (Simulation time: 03 hr 31 min 30 sec)
Heartbeat CPU 0 instructions: 1200000206 cycles: 1363357500 heartbeat IPC: 0.8907 cumulative IPC: 0.8802 (Simulation time: 03 hr 33 min 20 sec)
Heartbeat CPU 0 instructions: 1210000210 cycles: 1374731833 heartbeat IPC: 0.8792 cumulative IPC: 0.8802 (Simulation time: 03 hr 35 min 10 sec)
Heartbeat CPU 0 instructions: 1220000210 cycles: 1386580794 heartbeat IPC: 0.844 cumulative IPC: 0.8799 (Simulation time: 03 hr 36 min 49 sec)
Heartbeat CPU 0 instructions: 1230000212 cycles: 1398455715 heartbeat IPC: 0.8421 cumulative IPC: 0.8795 (Simulation time: 03 hr 38 min 48 sec)
Heartbeat CPU 0 instructions: 1240000213 cycles: 1410241595 heartbeat IPC: 0.8485 cumulative IPC: 0.8793 (Simulation time: 03 hr 40 min 32 sec)
Heartbeat CPU 0 instructions: 1250000215 cycles: 1421969579 heartbeat IPC: 0.8527 cumulative IPC: 0.8791 (Simulation time: 03 hr 41 min 57 sec)
Heartbeat CPU 0 instructions: 1260000215 cycles: 1433391901 heartbeat IPC: 0.8755 cumulative IPC: 0.879 (Simulation time: 03 hr 43 min 48 sec)
Heartbeat CPU 0 instructions: 1270000215 cycles: 1444763409 heartbeat IPC: 0.8794 cumulative IPC: 0.879 (Simulation time: 03 hr 45 min 17 sec)
Heartbeat CPU 0 instructions: 1280000219 cycles: 1456016164 heartbeat IPC: 0.8887 cumulative IPC: 0.8791 (Simulation time: 03 hr 46 min 56 sec)
Heartbeat CPU 0 instructions: 1290000222 cycles: 1467233329 heartbeat IPC: 0.8915 cumulative IPC: 0.8792 (Simulation time: 03 hr 48 min 26 sec)
Heartbeat CPU 0 instructions: 1300000224 cycles: 1494685988 heartbeat IPC: 0.3643 cumulative IPC: 0.8697 (Simulation time: 03 hr 52 min 43 sec)
Heartbeat CPU 0 instructions: 1310000224 cycles: 1507142967 heartbeat IPC: 0.8028 cumulative IPC: 0.8692 (Simulation time: 03 hr 54 min 29 sec)
Heartbeat CPU 0 instructions: 1320000224 cycles: 1518863720 heartbeat IPC: 0.8532 cumulative IPC: 0.8691 (Simulation time: 03 hr 56 min 16 sec)
Heartbeat CPU 0 instructions: 1330000224 cycles: 1530537842 heartbeat IPC: 0.8566 cumulative IPC: 0.869 (Simulation time: 03 hr 57 min 56 sec)
Heartbeat CPU 0 instructions: 1340000226 cycles: 1542325565 heartbeat IPC: 0.8483 cumulative IPC: 0.8688 (Simulation time: 03 hr 59 min 46 sec)
Heartbeat CPU 0 instructions: 1350000226 cycles: 1554297861 heartbeat IPC: 0.8353 cumulative IPC: 0.8686 (Simulation time: 04 hr 01 min 31 sec)
Heartbeat CPU 0 instructions: 1360000227 cycles: 1565869045 heartbeat IPC: 0.8642 cumulative IPC: 0.8685 (Simulation time: 04 hr 02 min 42 sec)
Heartbeat CPU 0 instructions: 1370000227 cycles: 1577120664 heartbeat IPC: 0.8888 cumulative IPC: 0.8687 (Simulation time: 04 hr 04 min 24 sec)
Heartbeat CPU 0 instructions: 1380000231 cycles: 1588743671 heartbeat IPC: 0.8604 cumulative IPC: 0.8686 (Simulation time: 04 hr 05 min 41 sec)
Heartbeat CPU 0 instructions: 1390000235 cycles: 1600356710 heartbeat IPC: 0.8611 cumulative IPC: 0.8686 (Simulation time: 04 hr 07 min 12 sec)
Heartbeat CPU 0 instructions: 1400000236 cycles: 1612038567 heartbeat IPC: 0.856 cumulative IPC: 0.8685 (Simulation time: 04 hr 09 min 02 sec)
Heartbeat CPU 0 instructions: 1410000236 cycles: 1623948279 heartbeat IPC: 0.8397 cumulative IPC: 0.8683 (Simulation time: 04 hr 10 min 54 sec)
Heartbeat CPU 0 instructions: 1420000237 cycles: 1636193753 heartbeat IPC: 0.8166 cumulative IPC: 0.8679 (Simulation time: 04 hr 12 min 40 sec)
Heartbeat CPU 0 instructions: 1430000239 cycles: 1648186320 heartbeat IPC: 0.8339 cumulative IPC: 0.8676 (Simulation time: 04 hr 14 min 11 sec)
Heartbeat CPU 0 instructions: 1440000239 cycles: 1660071099 heartbeat IPC: 0.8414 cumulative IPC: 0.8674 (Simulation time: 04 hr 16 min 00 sec)
Heartbeat CPU 0 instructions: 1450000243 cycles: 1671747365 heartbeat IPC: 0.8564 cumulative IPC: 0.8674 (Simulation time: 04 hr 17 min 49 sec)
Heartbeat CPU 0 instructions: 1460000247 cycles: 1683506055 heartbeat IPC: 0.8504 cumulative IPC: 0.8672 (Simulation time: 04 hr 19 min 37 sec)
Heartbeat CPU 0 instructions: 1470000251 cycles: 1695253066 heartbeat IPC: 0.8513 cumulative IPC: 0.8671 (Simulation time: 04 hr 21 min 18 sec)
Heartbeat CPU 0 instructions: 1480000253 cycles: 1706995851 heartbeat IPC: 0.8516 cumulative IPC: 0.867 (Simulation time: 04 hr 23 min 07 sec)
Heartbeat CPU 0 instructions: 1490000255 cycles: 1718685657 heartbeat IPC: 0.8554 cumulative IPC: 0.8669 (Simulation time: 04 hr 24 min 37 sec)
Heartbeat CPU 0 instructions: 1500000258 cycles: 1729923487 heartbeat IPC: 0.8899 cumulative IPC: 0.8671 (Simulation time: 04 hr 26 min 14 sec)
Heartbeat CPU 0 instructions: 1510000261 cycles: 1741475348 heartbeat IPC: 0.8657 cumulative IPC: 0.8671 (Simulation time: 04 hr 28 min 03 sec)
Heartbeat CPU 0 instructions: 1520000264 cycles: 1753173638 heartbeat IPC: 0.8548 cumulative IPC: 0.867 (Simulation time: 04 hr 29 min 52 sec)
Heartbeat CPU 0 instructions: 1530000264 cycles: 1764774872 heartbeat IPC: 0.862 cumulative IPC: 0.867 (Simulation time: 04 hr 31 min 41 sec)
Heartbeat CPU 0 instructions: 1540000266 cycles: 1776460519 heartbeat IPC: 0.8558 cumulative IPC: 0.8669 (Simulation time: 04 hr 33 min 30 sec)
Heartbeat CPU 0 instructions: 1550000266 cycles: 1788568233 heartbeat IPC: 0.8259 cumulative IPC: 0.8666 (Simulation time: 04 hr 35 min 13 sec)
Heartbeat CPU 0 instructions: 1560000267 cycles: 1800617784 heartbeat IPC: 0.8299 cumulative IPC: 0.8664 (Simulation time: 04 hr 36 min 58 sec)
Heartbeat CPU 0 instructions: 1570000271 cycles: 1812573516 heartbeat IPC: 0.8364 cumulative IPC: 0.8662 (Simulation time: 04 hr 38 min 34 sec)
Heartbeat CPU 0 instructions: 1580000271 cycles: 1824352354 heartbeat IPC: 0.849 cumulative IPC: 0.8661 (Simulation time: 04 hr 40 min 15 sec)
Heartbeat CPU 0 instructions: 1590000273 cycles: 1836081421 heartbeat IPC: 0.8526 cumulative IPC: 0.866 (Simulation time: 04 hr 41 min 49 sec)
Heartbeat CPU 0 instructions: 1600000274 cycles: 1847696360 heartbeat IPC: 0.861 cumulative IPC: 0.8659 (Simulation time: 04 hr 43 min 21 sec)
Heartbeat CPU 0 instructions: 1610000277 cycles: 1859347138 heartbeat IPC: 0.8583 cumulative IPC: 0.8659 (Simulation time: 04 hr 45 min 01 sec)
Heartbeat CPU 0 instructions: 1620000279 cycles: 1871108306 heartbeat IPC: 0.8503 cumulative IPC: 0.8658 (Simulation time: 04 hr 46 min 50 sec)
Heartbeat CPU 0 instructions: 1630000281 cycles: 1882504507 heartbeat IPC: 0.8775 cumulative IPC: 0.8659 (Simulation time: 04 hr 48 min 38 sec)
Heartbeat CPU 0 instructions: 1640000284 cycles: 1893902493 heartbeat IPC: 0.8773 cumulative IPC: 0.8659 (Simulation time: 04 hr 50 min 09 sec)
Heartbeat CPU 0 instructions: 1650000287 cycles: 1905619492 heartbeat IPC: 0.8535 cumulative IPC: 0.8659 (Simulation time: 04 hr 51 min 36 sec)
Heartbeat CPU 0 instructions: 1660000291 cycles: 1917303358 heartbeat IPC: 0.8559 cumulative IPC: 0.8658 (Simulation time: 04 hr 53 min 13 sec)
Heartbeat CPU 0 instructions: 1670000295 cycles: 1929010089 heartbeat IPC: 0.8542 cumulative IPC: 0.8657 (Simulation time: 04 hr 54 min 54 sec)
Heartbeat CPU 0 instructions: 1680000299 cycles: 1941059518 heartbeat IPC: 0.8299 cumulative IPC: 0.8655 (Simulation time: 04 hr 56 min 38 sec)
Heartbeat CPU 0 instructions: 1690000299 cycles: 1953230328 heartbeat IPC: 0.8216 cumulative IPC: 0.8652 (Simulation time: 04 hr 58 min 28 sec)
Heartbeat CPU 0 instructions: 1700000302 cycles: 1965239780 heartbeat IPC: 0.8327 cumulative IPC: 0.865 (Simulation time: 05 hr 00 min 05 sec)
Heartbeat CPU 0 instructions: 1710000302 cycles: 1977089859 heartbeat IPC: 0.8439 cumulative IPC: 0.8649 (Simulation time: 05 hr 01 min 36 sec)
Heartbeat CPU 0 instructions: 1720000304 cycles: 1988756825 heartbeat IPC: 0.8571 cumulative IPC: 0.8649 (Simulation time: 05 hr 03 min 24 sec)
Heartbeat CPU 0 instructions: 1730000304 cycles: 2000549821 heartbeat IPC: 0.848 cumulative IPC: 0.8648 (Simulation time: 05 hr 05 min 10 sec)
Heartbeat CPU 0 instructions: 1740000305 cycles: 2012405886 heartbeat IPC: 0.8435 cumulative IPC: 0.8646 (Simulation time: 05 hr 06 min 48 sec)
Heartbeat CPU 0 instructions: 1750000307 cycles: 2024228641 heartbeat IPC: 0.8458 cumulative IPC: 0.8645 (Simulation time: 05 hr 08 min 37 sec)
Heartbeat CPU 0 instructions: 1760000309 cycles: 2035891099 heartbeat IPC: 0.8575 cumulative IPC: 0.8645 (Simulation time: 05 hr 10 min 23 sec)
Heartbeat CPU 0 instructions: 1770000310 cycles: 2047436774 heartbeat IPC: 0.8661 cumulative IPC: 0.8645 (Simulation time: 05 hr 11 min 57 sec)
Heartbeat CPU 0 instructions: 1780000314 cycles: 2059117127 heartbeat IPC: 0.8561 cumulative IPC: 0.8644 (Simulation time: 05 hr 13 min 34 sec)
Heartbeat CPU 0 instructions: 1790000315 cycles: 2070887887 heartbeat IPC: 0.8496 cumulative IPC: 0.8644 (Simulation time: 05 hr 15 min 06 sec)
Heartbeat CPU 0 instructions: 1800000317 cycles: 2082423641 heartbeat IPC: 0.8669 cumulative IPC: 0.8644 (Simulation time: 05 hr 16 min 36 sec)
Heartbeat CPU 0 instructions: 1810000317 cycles: 2094174847 heartbeat IPC: 0.851 cumulative IPC: 0.8643 (Simulation time: 05 hr 18 min 16 sec)
Heartbeat CPU 0 instructions: 1820000320 cycles: 2106313373 heartbeat IPC: 0.8238 cumulative IPC: 0.8641 (Simulation time: 05 hr 20 min 03 sec)
Heartbeat CPU 0 instructions: 1830000320 cycles: 2118349037 heartbeat IPC: 0.8309 cumulative IPC: 0.8639 (Simulation time: 05 hr 21 min 56 sec)
Heartbeat CPU 0 instructions: 1840000324 cycles: 2130351256 heartbeat IPC: 0.8332 cumulative IPC: 0.8637 (Simulation time: 05 hr 23 min 40 sec)
Heartbeat CPU 0 instructions: 1850000327 cycles: 2142102877 heartbeat IPC: 0.8509 cumulative IPC: 0.8636 (Simulation time: 05 hr 25 min 20 sec)
Heartbeat CPU 0 instructions: 1860000329 cycles: 2153882569 heartbeat IPC: 0.8489 cumulative IPC: 0.8636 (Simulation time: 05 hr 27 min 04 sec)
Heartbeat CPU 0 instructions: 1870000330 cycles: 2165645858 heartbeat IPC: 0.8501 cumulative IPC: 0.8635 (Simulation time: 05 hr 28 min 52 sec)
Heartbeat CPU 0 instructions: 1880000330 cycles: 2177335070 heartbeat IPC: 0.8555 cumulative IPC: 0.8634 (Simulation time: 05 hr 30 min 41 sec)
Heartbeat CPU 0 instructions: 1890000330 cycles: 2189114653 heartbeat IPC: 0.8489 cumulative IPC: 0.8634 (Simulation time: 05 hr 32 min 30 sec)
Heartbeat CPU 0 instructions: 1900000333 cycles: 2200431165 heartbeat IPC: 0.8837 cumulative IPC: 0.8635 (Simulation time: 05 hr 34 min 16 sec)
Heartbeat CPU 0 instructions: 1910000333 cycles: 2211806145 heartbeat IPC: 0.8791 cumulative IPC: 0.8635 (Simulation time: 05 hr 36 min 03 sec)
Heartbeat CPU 0 instructions: 1920000337 cycles: 2223491564 heartbeat IPC: 0.8558 cumulative IPC: 0.8635 (Simulation time: 05 hr 37 min 52 sec)
Heartbeat CPU 0 instructions: 1930000337 cycles: 2235158531 heartbeat IPC: 0.8571 cumulative IPC: 0.8635 (Simulation time: 05 hr 39 min 41 sec)
Heartbeat CPU 0 instructions: 1940000341 cycles: 2246737337 heartbeat IPC: 0.8636 cumulative IPC: 0.8635 (Simulation time: 05 hr 41 min 29 sec)
Heartbeat CPU 0 instructions: 1950000345 cycles: 2258867375 heartbeat IPC: 0.8244 cumulative IPC: 0.8633 (Simulation time: 05 hr 43 min 21 sec)
Heartbeat CPU 0 instructions: 1960000348 cycles: 2271079629 heartbeat IPC: 0.8188 cumulative IPC: 0.863 (Simulation time: 05 hr 45 min 14 sec)
Heartbeat CPU 0 instructions: 1970000349 cycles: 2283076858 heartbeat IPC: 0.8335 cumulative IPC: 0.8629 (Simulation time: 05 hr 47 min 01 sec)
Heartbeat CPU 0 instructions: 1980000349 cycles: 2294876787 heartbeat IPC: 0.8475 cumulative IPC: 0.8628 (Simulation time: 05 hr 48 min 21 sec)
Heartbeat CPU 0 instructions: 1990000349 cycles: 2306528709 heartbeat IPC: 0.8582 cumulative IPC: 0.8628 (Simulation time: 05 hr 49 min 38 sec)

=== ERROR PAGE STATISTICS ===
Mode: CYCLE
Error Cycle Interval: 200000000000 CPU cycles
Total Error Accesses: 0
==============================
Simulation finished CPU 0 instructions: 1999999509 cycles: 2318219198 cumulative IPC: 0.8627 (Simulation time: 05 hr 51 min 24 sec)
Simulation complete CPU 0 instructions: 1999999509 cycles: 2318219198 cumulative IPC: 0.8627 (Simulation time: 05 hr 51 min 24 sec)

ChampSim completed all CPUs

=== Simulation ===
CPU 0 runs test_traces/649.fotonik3d_s-10881B.champsimtrace.xz

Region of Interest Statistics

CPU 0 cumulative IPC: 0.8627 instructions: 1999999509 cycles: 2318219198
CPU 0 Branch Prediction Accuracy: 97.24% MPKI: 0.2738 Average ROB Occupancy at Mispredict: 264.7
Branch type MPKI
BRANCH_DIRECT_JUMP: 5.5e-06
BRANCH_INDIRECT: 0
BRANCH_CONDITIONAL: 0.2738
BRANCH_DIRECT_CALL: 5e-07
BRANCH_INDIRECT_CALL: 0
BRANCH_RETURN: 5e-07

cpu0->cpu0_STLB TOTAL        ACCESS:       9681 HIT:       6303 MISS:       3378 MSHR_MERGE:          0
cpu0->cpu0_STLB LOAD         ACCESS:       9681 HIT:       6303 MISS:       3378 MSHR_MERGE:          0
cpu0->cpu0_STLB RFO          ACCESS:          0 HIT:          0 MISS:          0 MSHR_MERGE:          0
cpu0->cpu0_STLB PREFETCH     ACCESS:          0 HIT:          0 MISS:          0 MSHR_MERGE:          0
cpu0->cpu0_STLB WRITE        ACCESS:          0 HIT:          0 MISS:          0 MSHR_MERGE:          0
cpu0->cpu0_STLB TRANSLATION  ACCESS:          0 HIT:          0 MISS:          0 MSHR_MERGE:          0
cpu0->cpu0_STLB PREFETCH REQUESTED:          0 ISSUED:          0 USEFUL:          0 USELESS:          0
cpu0->cpu0_STLB AVERAGE MISS LATENCY: 5137 cycles
cpu0->cpu0_L2C TOTAL        ACCESS:   51672002 HIT:   16906125 MISS:   34765877 MSHR_MERGE:          0
cpu0->cpu0_L2C LOAD         ACCESS:   36315969 HIT:    1550679 MISS:   34765290 MSHR_MERGE:          0
cpu0->cpu0_L2C RFO          ACCESS:       2065 HIT:       2024 MISS:         41 MSHR_MERGE:          0
cpu0->cpu0_L2C PREFETCH     ACCESS:          0 HIT:          0 MISS:          0 MSHR_MERGE:          0
cpu0->cpu0_L2C WRITE        ACCESS:   15353968 HIT:   15353422 MISS:        546 MSHR_MERGE:          0
cpu0->cpu0_L2C TRANSLATION  ACCESS:          0 HIT:          0 MISS:          0 MSHR_MERGE:          0
cpu0->cpu0_L2C PREFETCH REQUESTED:          0 ISSUED:          0 USEFUL:          0 USELESS:          0
cpu0->cpu0_L2C AVERAGE MISS LATENCY: 111.7 cycles
cpu0->cpu0_L1I TOTAL        ACCESS:  493847634 HIT:  493846684 MISS:        950 MSHR_MERGE:        411
cpu0->cpu0_L1I LOAD         ACCESS:  493847634 HIT:  493846684 MISS:        950 MSHR_MERGE:        411
cpu0->cpu0_L1I RFO          ACCESS:          0 HIT:          0 MISS:          0 MSHR_MERGE:          0
cpu0->cpu0_L1I PREFETCH     ACCESS:          0 HIT:          0 MISS:          0 MSHR_MERGE:          0
cpu0->cpu0_L1I WRITE        ACCESS:          0 HIT:          0 MISS:          0 MSHR_MERGE:          0
cpu0->cpu0_L1I TRANSLATION  ACCESS:          0 HIT:          0 MISS:          0 MSHR_MERGE:          0
cpu0->cpu0_L1I PREFETCH REQUESTED:          0 ISSUED:          0 USEFUL:          0 USELESS:          0
cpu0->cpu0_L1I AVERAGE MISS LATENCY: 136.3 cycles
cpu0->cpu0_L1D TOTAL        ACCESS:  962406737 HIT:  917623464 MISS:   44783273 MSHR_MERGE:    8465770
cpu0->cpu0_L1D LOAD         ACCESS:  844769295 HIT:  799989666 MISS:   44779629 MSHR_MERGE:    8464198
cpu0->cpu0_L1D RFO          ACCESS:          0 HIT:          0 MISS:          0 MSHR_MERGE:          0
cpu0->cpu0_L1D PREFETCH     ACCESS:          0 HIT:          0 MISS:          0 MSHR_MERGE:          0
cpu0->cpu0_L1D WRITE        ACCESS:  117637442 HIT:  117633798 MISS:       3644 MSHR_MERGE:       1572
cpu0->cpu0_L1D TRANSLATION  ACCESS:          0 HIT:          0 MISS:          0 MSHR_MERGE:          0
cpu0->cpu0_L1D PREFETCH REQUESTED:          0 ISSUED:          0 USEFUL:          0 USELESS:          0
cpu0->cpu0_L1D AVERAGE MISS LATENCY: 115.9 cycles
cpu0->cpu0_ITLB TOTAL        ACCESS:  425569964 HIT:  425569958 MISS:          6 MSHR_MERGE:          5
cpu0->cpu0_ITLB LOAD         ACCESS:  425569964 HIT:  425569958 MISS:          6 MSHR_MERGE:          5
cpu0->cpu0_ITLB RFO          ACCESS:          0 HIT:          0 MISS:          0 MSHR_MERGE:          0
cpu0->cpu0_ITLB PREFETCH     ACCESS:          0 HIT:          0 MISS:          0 MSHR_MERGE:          0
cpu0->cpu0_ITLB WRITE        ACCESS:          0 HIT:          0 MISS:          0 MSHR_MERGE:          0
cpu0->cpu0_ITLB TRANSLATION  ACCESS:          0 HIT:          0 MISS:          0 MSHR_MERGE:          0
cpu0->cpu0_ITLB PREFETCH REQUESTED:          0 ISSUED:          0 USEFUL:          0 USELESS:          0
cpu0->cpu0_ITLB AVERAGE MISS LATENCY: 1.722e+04 cycles
cpu0->cpu0_DTLB TOTAL        ACCESS:  877813549 HIT:  877801137 MISS:      12412 MSHR_MERGE:       2732
cpu0->cpu0_DTLB LOAD         ACCESS:  877813549 HIT:  877801137 MISS:      12412 MSHR_MERGE:       2732
cpu0->cpu0_DTLB RFO          ACCESS:          0 HIT:          0 MISS:          0 MSHR_MERGE:          0
cpu0->cpu0_DTLB PREFETCH     ACCESS:          0 HIT:          0 MISS:          0 MSHR_MERGE:          0
cpu0->cpu0_DTLB WRITE        ACCESS:          0 HIT:          0 MISS:          0 MSHR_MERGE:          0
cpu0->cpu0_DTLB TRANSLATION  ACCESS:          0 HIT:          0 MISS:          0 MSHR_MERGE:          0
cpu0->cpu0_DTLB PREFETCH REQUESTED:          0 ISSUED:          0 USEFUL:          0 USELESS:          0
cpu0->cpu0_DTLB AVERAGE MISS LATENCY: 1796 cycles
cpu0->LLC TOTAL        ACCESS:   50113106 HIT:   17950261 MISS:   32162845 MSHR_MERGE:          0
cpu0->LLC LOAD         ACCESS:   34765290 HIT:    2602821 MISS:   32162469 MSHR_MERGE:          0
cpu0->LLC RFO          ACCESS:         41 HIT:         17 MISS:         24 MSHR_MERGE:          0
cpu0->LLC PREFETCH     ACCESS:          0 HIT:          0 MISS:          0 MSHR_MERGE:          0
cpu0->LLC WRITE        ACCESS:   15347775 HIT:   15347423 MISS:        352 MSHR_MERGE:          0
cpu0->LLC TRANSLATION  ACCESS:          0 HIT:          0 MISS:          0 MSHR_MERGE:          0
cpu0->LLC PREFETCH REQUESTED:          0 ISSUED:          0 USEFUL:          0 USELESS:          0
cpu0->LLC AVERAGE MISS LATENCY: 103.5 cycles

DRAM Statistics

Channel 0 RQ ROW_BUFFER_HIT:     254029
  ROW_BUFFER_MISS:   15830437
  AVG DBUS CONGESTED CYCLE: 11.54
Channel 0 WQ ROW_BUFFER_HIT:    1797206
  ROW_BUFFER_MISS:    5872404
  FULL:          0
Channel 0 REFRESHES ISSUED:     193172

Channel 1 RQ ROW_BUFFER_HIT:     254538
  ROW_BUFFER_MISS:   15830117
  AVG DBUS CONGESTED CYCLE: 11.54
Channel 1 WQ ROW_BUFFER_HIT:    1800634
  ROW_BUFFER_MISS:    5869227
  FULL:          0
Channel 1 REFRESHES ISSUED:     193172
