
*** ChampSim Multicore Out-of-Order Simulator ***
Warmup Instructions: 0
Simulation Instructions: 9223372036854775807
Number of CPUs: 1
Page size: 2097152

Off-chip DRAM Size: 64 GiB Channels: 2 Width: 32-bit Data Rate: 4807 MT/s
[ERROR_PAGE_MANAGER] Error latency: 1990500 
[ERROR_PAGE_MANAGER] Random seed: 54321 (fixed for preload reproducibility)
[ERROR_PAGE_MANAGER] Cycle-based error modeling enabled
[ERROR_PAGE_MANAGER] Errors per interval: 1
[ERROR_PAGE_MANAGER] Error cycle interval: 10000000 cycles

=== ERROR PAGE STATISTICS ===
Mode: CYCLE
Error Cycle Interval: 10000000 CPU cycles
Total Error Accesses: 0
==============================
Warmup finished CPU 0 instructions: 0 cycles: 1 cumulative IPC: 0 (Simulation time: 00 hr 00 min 00 sec)
Warmup complete CPU 0 instructions: 0 cycles: 1 cumulative IPC: 0 (Simulation time: 00 hr 00 min 00 sec)
[ERROR_CYCLE] Error added at CPU cycle 7127805, next at 9153305, pending count: 1
[DRAM_CYCLE_ERROR] Cycle-based error applied! address=0x90e2271d0 additional_latency=1990500 cycles
[ERROR_CYCLE] Error added at CPU cycle 9153306, next at 25696063, pending count: 1
[DRAM_CYCLE_ERROR] Cycle-based error applied! address=0xb63385088 additional_latency=1990500 cycles
[ERROR_CYCLE] Error added at CPU cycle 25696063, next at 53467688, pending count: 1
[DRAM_CYCLE_ERROR] Cycle-based error applied! address=0x7238cb440 additional_latency=1990500 cycles
Heartbeat CPU 0 instructions: 10000002 cycles: 26170709 heartbeat IPC: 0.3821 cumulative IPC: 0.3821 (Simulation time: 00 hr 02 min 39 sec)
Heartbeat CPU 0 instructions: 20000002 cycles: 52142235 heartbeat IPC: 0.385 cumulative IPC: 0.3836 (Simulation time: 00 hr 05 min 17 sec)
[ERROR_CYCLE] Error added at CPU cycle 53467689, next at 53768224, pending count: 1
[DRAM_CYCLE_ERROR] Cycle-based error applied! address=0x9929f5fc0 additional_latency=1990500 cycles
[ERROR_CYCLE] Error added at CPU cycle 53768224, next at 69138641, pending count: 1
[DRAM_CYCLE_ERROR] Cycle-based error applied! address=0x83ae13020 additional_latency=1990500 cycles
[ERROR_CYCLE] Error added at CPU cycle 69138642, next at 70928443, pending count: 1
[DRAM_CYCLE_ERROR] Cycle-based error applied! address=0xda87e65c0 additional_latency=1990500 cycles
[ERROR_CYCLE] Error added at CPU cycle 70928444, next at 76617422, pending count: 1
[DRAM_CYCLE_ERROR] Cycle-based error applied! address=0xd0ddb86c0 additional_latency=1990500 cycles
[ERROR_CYCLE] Error added at CPU cycle 76617422, next at 85156860, pending count: 1
[DRAM_CYCLE_ERROR] Cycle-based error applied! address=0xd0dc5c150 additional_latency=1990500 cycles
Heartbeat CPU 0 instructions: 30000004 cycles: 78128957 heartbeat IPC: 0.3848 cumulative IPC: 0.384 (Simulation time: 00 hr 07 min 55 sec)
[ERROR_CYCLE] Error added at CPU cycle 85156860, next at 87603375, pending count: 1
[DRAM_CYCLE_ERROR] Cycle-based error applied! address=0xcb2b35008 additional_latency=1990500 cycles
[ERROR_CYCLE] Error added at CPU cycle 87603376, next at 105362955, pending count: 1
[DRAM_CYCLE_ERROR] Cycle-based error applied! address=0xe50fa4cd0 additional_latency=1990500 cycles
Heartbeat CPU 0 instructions: 40000005 cycles: 104169673 heartbeat IPC: 0.384 cumulative IPC: 0.384 (Simulation time: 00 hr 10 min 34 sec)
[ERROR_CYCLE] Error added at CPU cycle 105362955, next at 108923137, pending count: 1
[DRAM_CYCLE_ERROR] Cycle-based error applied! address=0xaea4161d0 additional_latency=1990500 cycles
[ERROR_CYCLE] Error added at CPU cycle 108923137, next at 113398998, pending count: 1
[DRAM_CYCLE_ERROR] Cycle-based error applied! address=0xaea5860c0 additional_latency=1990500 cycles
[ERROR_CYCLE] Error added at CPU cycle 113398999, next at 133751835, pending count: 1
[DRAM_CYCLE_ERROR] Cycle-based error applied! address=0x5e8b74e40 additional_latency=1990500 cycles
Heartbeat CPU 0 instructions: 50000009 cycles: 130143086 heartbeat IPC: 0.385 cumulative IPC: 0.3842 (Simulation time: 00 hr 13 min 03 sec)
[ERROR_CYCLE] Error added at CPU cycle 133751835, next at 133874359, pending count: 1
[DRAM_CYCLE_ERROR] Cycle-based error applied! address=0x8d631d000 additional_latency=1990500 cycles
[ERROR_CYCLE] Error added at CPU cycle 133874359, next at 145123863, pending count: 1
[DRAM_CYCLE_ERROR] Cycle-based error applied! address=0x8d63154d0 additional_latency=1990500 cycles
[ERROR_CYCLE] Error added at CPU cycle 145123863, next at 151687113, pending count: 1
[DRAM_CYCLE_ERROR] Cycle-based error applied! address=0x8d6260080 additional_latency=1990500 cycles
[ERROR_CYCLE] Error added at CPU cycle 151687113, next at 189526482, pending count: 1
[DRAM_CYCLE_ERROR] Cycle-based error applied! address=0xe03cb4788 additional_latency=1990500 cycles
Heartbeat CPU 0 instructions: 60000012 cycles: 156150050 heartbeat IPC: 0.3845 cumulative IPC: 0.3842 (Simulation time: 00 hr 15 min 36 sec)
Heartbeat CPU 0 instructions: 70000012 cycles: 182164260 heartbeat IPC: 0.3844 cumulative IPC: 0.3843 (Simulation time: 00 hr 18 min 09 sec)
[ERROR_CYCLE] Error added at CPU cycle 189526483, next at 191895927, pending count: 1
[DRAM_CYCLE_ERROR] Cycle-based error applied! address=0x919f3e3c8 additional_latency=1990500 cycles
[ERROR_CYCLE] Error added at CPU cycle 191895927, next at 194297025, pending count: 1
[DRAM_CYCLE_ERROR] Cycle-based error applied! address=0x170d15d90 additional_latency=1990500 cycles
[ERROR_CYCLE] Error added at CPU cycle 194297026, next at 223119032, pending count: 1
[DRAM_CYCLE_ERROR] Cycle-based error applied! address=0xc6626f808 additional_latency=1990500 cycles
Heartbeat CPU 0 instructions: 80000016 cycles: 208274979 heartbeat IPC: 0.383 cumulative IPC: 0.3841 (Simulation time: 00 hr 20 min 42 sec)
[ERROR_CYCLE] Error added at CPU cycle 223119032, next at 227066706, pending count: 1
[DRAM_CYCLE_ERROR] Cycle-based error applied! address=0xd86148c0 additional_latency=1990500 cycles
[ERROR_CYCLE] Error added at CPU cycle 227066706, next at 269846489, pending count: 1
[DRAM_CYCLE_ERROR] Cycle-based error applied! address=0xd87ee088 additional_latency=1990500 cycles
Heartbeat CPU 0 instructions: 90000018 cycles: 234247459 heartbeat IPC: 0.385 cumulative IPC: 0.3842 (Simulation time: 00 hr 23 min 09 sec)
Heartbeat CPU 0 instructions: 100000020 cycles: 260168129 heartbeat IPC: 0.3858 cumulative IPC: 0.3844 (Simulation time: 00 hr 25 min 26 sec)
[ERROR_CYCLE] Error added at CPU cycle 269846490, next at 275597170, pending count: 1
[DRAM_CYCLE_ERROR] Cycle-based error applied! address=0x99a54fd08 additional_latency=1990500 cycles
[ERROR_CYCLE] Error added at CPU cycle 275597171, next at 309231635, pending count: 1
[DRAM_CYCLE_ERROR] Cycle-based error applied! address=0xe05883c8 additional_latency=1990500 cycles
Heartbeat CPU 0 instructions: 110000020 cycles: 286186082 heartbeat IPC: 0.3843 cumulative IPC: 0.3844 (Simulation time: 00 hr 28 min 02 sec)
[ERROR_CYCLE] Error added at CPU cycle 309231636, next at 312214761, pending count: 1
[DRAM_CYCLE_ERROR] Cycle-based error applied! address=0x683f5630 additional_latency=1990500 cycles
Heartbeat CPU 0 instructions: 120000024 cycles: 312201678 heartbeat IPC: 0.3844 cumulative IPC: 0.3844 (Simulation time: 00 hr 30 min 42 sec)
[ERROR_CYCLE] Error added at CPU cycle 312214762, next at 326484517, pending count: 1
[DRAM_CYCLE_ERROR] Cycle-based error applied! address=0x186459e50 additional_latency=1990500 cycles
[ERROR_CYCLE] Error added at CPU cycle 326484517, next at 328619258, pending count: 1
[DRAM_CYCLE_ERROR] Cycle-based error applied! address=0xb66d0f540 additional_latency=1990500 cycles
[ERROR_CYCLE] Error added at CPU cycle 328619258, next at 331945338, pending count: 1
[DRAM_CYCLE_ERROR] Cycle-based error applied! address=0x48f687558 additional_latency=1990500 cycles
[ERROR_CYCLE] Error added at CPU cycle 331945339, next at 346622017, pending count: 1
[DRAM_CYCLE_ERROR] Cycle-based error applied! address=0xa36672980 additional_latency=1990500 cycles
Heartbeat CPU 0 instructions: 130000024 cycles: 338251657 heartbeat IPC: 0.3839 cumulative IPC: 0.3843 (Simulation time: 00 hr 33 min 22 sec)
[ERROR_CYCLE] Error added at CPU cycle 346622017, next at 346704171, pending count: 1
[DRAM_CYCLE_ERROR] Cycle-based error applied! address=0x8e2977540 additional_latency=1990500 cycles
[ERROR_CYCLE] Error added at CPU cycle 346704171, next at 351055557, pending count: 1
[DRAM_CYCLE_ERROR] Cycle-based error applied! address=0x8e297ee80 additional_latency=1990500 cycles
[ERROR_CYCLE] Error added at CPU cycle 351055557, next at 353715518, pending count: 1
[DRAM_CYCLE_ERROR] Cycle-based error applied! address=0xca382f3a0 additional_latency=1990500 cycles
[ERROR_CYCLE] Error added at CPU cycle 353715518, next at 358578569, pending count: 1
[DRAM_CYCLE_ERROR] Cycle-based error applied! address=0x3d0ff88c0 additional_latency=1990500 cycles
[ERROR_CYCLE] Error added at CPU cycle 358578569, next at 359734081, pending count: 1
[DRAM_CYCLE_ERROR] Cycle-based error applied! address=0x89bb0f120 additional_latency=1990500 cycles
[ERROR_CYCLE] Error added at CPU cycle 359734081, next at 364965560, pending count: 1
[DRAM_CYCLE_ERROR] Cycle-based error applied! address=0x89bbb8608 additional_latency=1990500 cycles
Heartbeat CPU 0 instructions: 140000027 cycles: 364216917 heartbeat IPC: 0.3851 cumulative IPC: 0.3844 (Simulation time: 00 hr 36 min 01 sec)
[ERROR_CYCLE] Error added at CPU cycle 364965560, next at 370163876, pending count: 1
[DRAM_CYCLE_ERROR] Cycle-based error applied! address=0x7af958650 additional_latency=1990500 cycles
[ERROR_CYCLE] Error added at CPU cycle 370163876, next at 384861686, pending count: 1
[DRAM_CYCLE_ERROR] Cycle-based error applied! address=0x61440940 additional_latency=1990500 cycles
[ERROR_CYCLE] Error added at CPU cycle 384861686, next at 403305050, pending count: 1
[DRAM_CYCLE_ERROR] Cycle-based error applied! address=0x1ac85db68 additional_latency=1990500 cycles
Heartbeat CPU 0 instructions: 150000029 cycles: 390157897 heartbeat IPC: 0.3855 cumulative IPC: 0.3845 (Simulation time: 00 hr 38 min 41 sec)
[ERROR_CYCLE] Error added at CPU cycle 403305051, next at 408299099, pending count: 1
[DRAM_CYCLE_ERROR] Cycle-based error applied! address=0xfe85f0720 additional_latency=1990500 cycles
[ERROR_CYCLE] Error added at CPU cycle 408299099, next at 414578861, pending count: 1
[DRAM_CYCLE_ERROR] Cycle-based error applied! address=0xceb83e0c8 additional_latency=1990500 cycles
[ERROR_CYCLE] Error added at CPU cycle 414578862, next at 415677269, pending count: 1
[DRAM_CYCLE_ERROR] Cycle-based error applied! address=0xaaf16b200 additional_latency=1990500 cycles
[ERROR_CYCLE] Error added at CPU cycle 415677270, next at 417793974, pending count: 1
[DRAM_CYCLE_ERROR] Cycle-based error applied! address=0x206a99058 additional_latency=1990500 cycles
Heartbeat CPU 0 instructions: 160000031 cycles: 416201044 heartbeat IPC: 0.384 cumulative IPC: 0.3844 (Simulation time: 00 hr 41 min 21 sec)
[ERROR_CYCLE] Error added at CPU cycle 417793975, next at 428962166, pending count: 1
[DRAM_CYCLE_ERROR] Cycle-based error applied! address=0x859ae6ee0 additional_latency=1990500 cycles
[ERROR_CYCLE] Error added at CPU cycle 428962167, next at 435398726, pending count: 1
[DRAM_CYCLE_ERROR] Cycle-based error applied! address=0x30a8c20d0 additional_latency=1990500 cycles
[ERROR_CYCLE] Error added at CPU cycle 435398727, next at 451570558, pending count: 1
[DRAM_CYCLE_ERROR] Cycle-based error applied! address=0xff7b51600 additional_latency=1990500 cycles
Heartbeat CPU 0 instructions: 170000034 cycles: 442162504 heartbeat IPC: 0.3852 cumulative IPC: 0.3845 (Simulation time: 00 hr 44 min 00 sec)
[ERROR_CYCLE] Error added at CPU cycle 451570559, next at 454416191, pending count: 1
[DRAM_CYCLE_ERROR] Cycle-based error applied! address=0x5aa0ad208 additional_latency=1990500 cycles
[ERROR_CYCLE] Error added at CPU cycle 454416192, next at 467943289, pending count: 1
[DRAM_CYCLE_ERROR] Cycle-based error applied! address=0x6a14e480 additional_latency=1990500 cycles
[ERROR_CYCLE] Error added at CPU cycle 467943289, next at 479150351, pending count: 1
[DRAM_CYCLE_ERROR] Cycle-based error applied! address=0xd904dadc0 additional_latency=1990500 cycles
Heartbeat CPU 0 instructions: 180000036 cycles: 468122541 heartbeat IPC: 0.3852 cumulative IPC: 0.3845 (Simulation time: 00 hr 46 min 39 sec)
[ERROR_CYCLE] Error added at CPU cycle 479150352, next at 489818806, pending count: 1
[DRAM_CYCLE_ERROR] Cycle-based error applied! address=0x730fe3e98 additional_latency=1990500 cycles
[ERROR_CYCLE] Error added at CPU cycle 489818807, next at 492199391, pending count: 1
[DRAM_CYCLE_ERROR] Cycle-based error applied! address=0xe0b95650 additional_latency=1990500 cycles
[ERROR_CYCLE] Error added at CPU cycle 492199392, next at 501105066, pending count: 1
[DRAM_CYCLE_ERROR] Cycle-based error applied! address=0x730e71380 additional_latency=1990500 cycles
Heartbeat CPU 0 instructions: 190000039 cycles: 494201553 heartbeat IPC: 0.3835 cumulative IPC: 0.3845 (Simulation time: 00 hr 49 min 18 sec)
[ERROR_CYCLE] Error added at CPU cycle 501105067, next at 516413942, pending count: 1
[DRAM_CYCLE_ERROR] Cycle-based error applied! address=0x83bf15b18 additional_latency=1990500 cycles
[ERROR_CYCLE] Error added at CPU cycle 516413943, next at 523258148, pending count: 1
[DRAM_CYCLE_ERROR] Cycle-based error applied! address=0x41ceb5cc8 additional_latency=1990500 cycles
Heartbeat CPU 0 instructions: 200000040 cycles: 520132273 heartbeat IPC: 0.3856 cumulative IPC: 0.3845 (Simulation time: 00 hr 51 min 57 sec)
[ERROR_CYCLE] Error added at CPU cycle 523258148, next at 524320531, pending count: 1
[DRAM_CYCLE_ERROR] Cycle-based error applied! address=0x883d16b88 additional_latency=1990500 cycles
[ERROR_CYCLE] Error added at CPU cycle 524320531, next at 545421303, pending count: 1
[DRAM_CYCLE_ERROR] Cycle-based error applied! address=0x883dce0c0 additional_latency=1990500 cycles
[ERROR_CYCLE] Error added at CPU cycle 545421304, next at 555011553, pending count: 1
[DRAM_CYCLE_ERROR] Cycle-based error applied! address=0x4345747e0 additional_latency=1990500 cycles
Heartbeat CPU 0 instructions: 210000042 cycles: 546085600 heartbeat IPC: 0.3853 cumulative IPC: 0.3846 (Simulation time: 00 hr 54 min 36 sec)
[ERROR_CYCLE] Error added at CPU cycle 555011553, next at 566707107, pending count: 1
[DRAM_CYCLE_ERROR] Cycle-based error applied! address=0x840f11940 additional_latency=1990500 cycles
[ERROR_CYCLE] Error added at CPU cycle 566707107, next at 602334490, pending count: 1
[DRAM_CYCLE_ERROR] Cycle-based error applied! address=0xd10abfd38 additional_latency=1990500 cycles
Heartbeat CPU 0 instructions: 220000045 cycles: 572099730 heartbeat IPC: 0.3844 cumulative IPC: 0.3845 (Simulation time: 00 hr 57 min 16 sec)
Heartbeat CPU 0 instructions: 230000046 cycles: 598075427 heartbeat IPC: 0.385 cumulative IPC: 0.3846 (Simulation time: 00 hr 59 min 48 sec)
[ERROR_CYCLE] Error added at CPU cycle 602334490, next at 607801697, pending count: 1
[DRAM_CYCLE_ERROR] Cycle-based error applied! address=0xa439a0d88 additional_latency=1990500 cycles
[ERROR_CYCLE] Error added at CPU cycle 607801697, next at 608543542, pending count: 1
[DRAM_CYCLE_ERROR] Cycle-based error applied! address=0x99d0cbd00 additional_latency=1990500 cycles
[ERROR_CYCLE] Error added at CPU cycle 608543543, next at 610655090, pending count: 1
[DRAM_CYCLE_ERROR] Cycle-based error applied! address=0x99d10fdc0 additional_latency=1990500 cycles
[ERROR_CYCLE] Error added at CPU cycle 610655091, next at 613219349, pending count: 1
[DRAM_CYCLE_ERROR] Cycle-based error applied! address=0x99d1e0a10 additional_latency=1990500 cycles
[ERROR_CYCLE] Error added at CPU cycle 613219350, next at 613730924, pending count: 1
[DRAM_CYCLE_ERROR] Cycle-based error applied! address=0x2d6cc6e98 additional_latency=1990500 cycles
[ERROR_CYCLE] Error added at CPU cycle 613730925, next at 615686536, pending count: 1
[DRAM_CYCLE_ERROR] Cycle-based error applied! address=0x2d6cf2788 additional_latency=1990500 cycles
[ERROR_CYCLE] Error added at CPU cycle 615686536, next at 623830395, pending count: 1
[DRAM_CYCLE_ERROR] Cycle-based error applied! address=0x2d6dd5550 additional_latency=1990500 cycles
[ERROR_CYCLE] Error added at CPU cycle 623830395, next at 655504590, pending count: 1
[DRAM_CYCLE_ERROR] Cycle-based error applied! address=0xd97bfab08 additional_latency=1990500 cycles
Heartbeat CPU 0 instructions: 240000047 cycles: 624128003 heartbeat IPC: 0.3838 cumulative IPC: 0.3845 (Simulation time: 01 hr 02 min 21 sec)
Heartbeat CPU 0 instructions: 250000047 cycles: 650056329 heartbeat IPC: 0.3857 cumulative IPC: 0.3846 (Simulation time: 01 hr 04 min 25 sec)
[ERROR_CYCLE] Error added at CPU cycle 655504590, next at 685296427, pending count: 1
[DRAM_CYCLE_ERROR] Cycle-based error applied! address=0x88c4b6a88 additional_latency=1990500 cycles
Heartbeat CPU 0 instructions: 260000051 cycles: 676053465 heartbeat IPC: 0.3847 cumulative IPC: 0.3846 (Simulation time: 01 hr 06 min 40 sec)
[ERROR_CYCLE] Error added at CPU cycle 685296428, next at 692067362, pending count: 1
[DRAM_CYCLE_ERROR] Cycle-based error applied! address=0xabf7343c8 additional_latency=1990500 cycles
[ERROR_CYCLE] Error added at CPU cycle 692067362, next at 693560863, pending count: 1
[DRAM_CYCLE_ERROR] Cycle-based error applied! address=0x3075839d8 additional_latency=1990500 cycles
[ERROR_CYCLE] Error added at CPU cycle 693560864, next at 696567615, pending count: 1
[DRAM_CYCLE_ERROR] Cycle-based error applied! address=0x3075fcf40 additional_latency=1990500 cycles
[ERROR_CYCLE] Error added at CPU cycle 696567615, next at 705122761, pending count: 1
[DRAM_CYCLE_ERROR] Cycle-based error applied! address=0x57ce6af48 additional_latency=1990500 cycles
Heartbeat CPU 0 instructions: 270000051 cycles: 702083279 heartbeat IPC: 0.3842 cumulative IPC: 0.3846 (Simulation time: 01 hr 08 min 45 sec)
[ERROR_CYCLE] Error added at CPU cycle 705122762, next at 747545945, pending count: 1
[DRAM_CYCLE_ERROR] Cycle-based error applied! address=0x5b2891108 additional_latency=1990500 cycles
Heartbeat CPU 0 instructions: 280000052 cycles: 728044067 heartbeat IPC: 0.3852 cumulative IPC: 0.3846 (Simulation time: 01 hr 11 min 06 sec)
[ERROR_CYCLE] Error added at CPU cycle 747545946, next at 748669179, pending count: 1
[DRAM_CYCLE_ERROR] Cycle-based error applied! address=0x70cf9f648 additional_latency=1990500 cycles
[ERROR_CYCLE] Error added at CPU cycle 748669179, next at 755019492, pending count: 1
[DRAM_CYCLE_ERROR] Cycle-based error applied! address=0x8c17be890 additional_latency=1990500 cycles
Heartbeat CPU 0 instructions: 290000052 cycles: 754000684 heartbeat IPC: 0.3853 cumulative IPC: 0.3846 (Simulation time: 01 hr 13 min 11 sec)
[ERROR_CYCLE] Error added at CPU cycle 755019492, next at 755497083, pending count: 1
[DRAM_CYCLE_ERROR] Cycle-based error applied! address=0x70cf52d88 additional_latency=1990500 cycles
[ERROR_CYCLE] Error added at CPU cycle 755497084, next at 758773095, pending count: 1
[DRAM_CYCLE_ERROR] Cycle-based error applied! address=0x96d352840 additional_latency=1990500 cycles
[ERROR_CYCLE] Error added at CPU cycle 758773095, next at 767932446, pending count: 1
[DRAM_CYCLE_ERROR] Cycle-based error applied! address=0xe704edfa0 additional_latency=1990500 cycles
[ERROR_CYCLE] Error added at CPU cycle 767932447, next at 768052303, pending count: 1
[DRAM_CYCLE_ERROR] Cycle-based error applied! address=0xd16e13700 additional_latency=1990500 cycles
[ERROR_CYCLE] Error added at CPU cycle 768052303, next at 768100071, pending count: 1
[DRAM_CYCLE_ERROR] Cycle-based error applied! address=0xd16e273e0 additional_latency=1990500 cycles
[ERROR_CYCLE] Error added at CPU cycle 768100072, next at 768264987, pending count: 1
[DRAM_CYCLE_ERROR] Cycle-based error applied! address=0xd16e2b9c8 additional_latency=1990500 cycles
[ERROR_CYCLE] Error added at CPU cycle 768264987, next at 773476830, pending count: 1
[DRAM_CYCLE_ERROR] Cycle-based error applied! address=0xd16e3bf20 additional_latency=1990500 cycles
[ERROR_CYCLE] Error added at CPU cycle 773476830, next at 775408797, pending count: 1
[DRAM_CYCLE_ERROR] Cycle-based error applied! address=0xba09145d0 additional_latency=1990500 cycles
[ERROR_CYCLE] Error added at CPU cycle 775408797, next at 776477567, pending count: 1
[DRAM_CYCLE_ERROR] Cycle-based error applied! address=0x384a6ec50 additional_latency=1990500 cycles
[ERROR_CYCLE] Error added at CPU cycle 776477568, next at 782055313, pending count: 1
[DRAM_CYCLE_ERROR] Cycle-based error applied! address=0x384afe1c0 additional_latency=1990500 cycles
Heartbeat CPU 0 instructions: 300000056 cycles: 780022604 heartbeat IPC: 0.3843 cumulative IPC: 0.3846 (Simulation time: 01 hr 15 min 12 sec)
[ERROR_CYCLE] Error added at CPU cycle 782055314, next at 793366198, pending count: 1
[DRAM_CYCLE_ERROR] Cycle-based error applied! address=0x9fceb0e80 additional_latency=1990500 cycles
[ERROR_CYCLE] Error added at CPU cycle 793366198, next at 800738627, pending count: 1
[DRAM_CYCLE_ERROR] Cycle-based error applied! address=0x47cdab6c0 additional_latency=1990500 cycles
[ERROR_CYCLE] Error added at CPU cycle 800738628, next at 804703481, pending count: 1
[DRAM_CYCLE_ERROR] Cycle-based error applied! address=0x3b0b1d2e0 additional_latency=1990500 cycles
[ERROR_CYCLE] Error added at CPU cycle 804703481, next at 812634114, pending count: 1
[DRAM_CYCLE_ERROR] Cycle-based error applied! address=0x623ee84d0 additional_latency=1990500 cycles
Heartbeat CPU 0 instructions: 310000056 cycles: 806006584 heartbeat IPC: 0.3849 cumulative IPC: 0.3846 (Simulation time: 01 hr 17 min 53 sec)
[ERROR_CYCLE] Error added at CPU cycle 812634115, next at 825252033, pending count: 1
[DRAM_CYCLE_ERROR] Cycle-based error applied! address=0x932722d00 additional_latency=1990500 cycles
[ERROR_CYCLE] Error added at CPU cycle 825252034, next at 830437472, pending count: 1
[DRAM_CYCLE_ERROR] Cycle-based error applied! address=0x9f77a700 additional_latency=1990500 cycles
[ERROR_CYCLE] Error added at CPU cycle 830437472, next at 838935145, pending count: 1
[DRAM_CYCLE_ERROR] Cycle-based error applied! address=0xa7ac88e48 additional_latency=1990500 cycles
Heartbeat CPU 0 instructions: 320000059 cycles: 831994016 heartbeat IPC: 0.3848 cumulative IPC: 0.3846 (Simulation time: 01 hr 20 min 33 sec)
[ERROR_CYCLE] Error added at CPU cycle 838935145, next at 861804158, pending count: 1
[DRAM_CYCLE_ERROR] Cycle-based error applied! address=0x1eee8cac8 additional_latency=1990500 cycles
Heartbeat CPU 0 instructions: 330000059 cycles: 857957051 heartbeat IPC: 0.3852 cumulative IPC: 0.3846 (Simulation time: 01 hr 23 min 12 sec)
[ERROR_CYCLE] Error added at CPU cycle 861804158, next at 864139244, pending count: 1
[DRAM_CYCLE_ERROR] Cycle-based error applied! address=0x1f0706308 additional_latency=1990500 cycles
[ERROR_CYCLE] Error added at CPU cycle 864139244, next at 883044804, pending count: 1
[DRAM_CYCLE_ERROR] Cycle-based error applied! address=0x8880dead0 additional_latency=1990500 cycles
[ERROR_CYCLE] Error added at CPU cycle 883044804, next at 885467139, pending count: 1
[DRAM_CYCLE_ERROR] Cycle-based error applied! address=0xa38da2900 additional_latency=1990500 cycles
Heartbeat CPU 0 instructions: 340000061 cycles: 883960016 heartbeat IPC: 0.3846 cumulative IPC: 0.3846 (Simulation time: 01 hr 25 min 46 sec)
[ERROR_CYCLE] Error added at CPU cycle 885467140, next at 887176065, pending count: 1
[DRAM_CYCLE_ERROR] Cycle-based error applied! address=0x63f09aec0 additional_latency=1990500 cycles
[ERROR_CYCLE] Error added at CPU cycle 887176065, next at 891433294, pending count: 1
[DRAM_CYCLE_ERROR] Cycle-based error applied! address=0x63f14a3d8 additional_latency=1990500 cycles
[ERROR_CYCLE] Error added at CPU cycle 891433294, next at 910142062, pending count: 1
[DRAM_CYCLE_ERROR] Cycle-based error applied! address=0xeaa3a5dd0 additional_latency=1990500 cycles
Heartbeat CPU 0 instructions: 350000063 cycles: 909917411 heartbeat IPC: 0.3852 cumulative IPC: 0.3847 (Simulation time: 01 hr 28 min 00 sec)
[ERROR_CYCLE] Error added at CPU cycle 910142062, next at 912455925, pending count: 1
[DRAM_CYCLE_ERROR] Cycle-based error applied! address=0x1e73e8860 additional_latency=1990500 cycles
[ERROR_CYCLE] Error added at CPU cycle 912455925, next at 920452495, pending count: 1
[DRAM_CYCLE_ERROR] Cycle-based error applied! address=0x9eb07110 additional_latency=1990500 cycles
[ERROR_CYCLE] Error added at CPU cycle 920452495, next at 925358975, pending count: 1
[DRAM_CYCLE_ERROR] Cycle-based error applied! address=0xb1624d0 additional_latency=1990500 cycles
[ERROR_CYCLE] Error added at CPU cycle 925358976, next at 928208581, pending count: 1
[DRAM_CYCLE_ERROR] Cycle-based error applied! address=0x32d98d458 additional_latency=1990500 cycles
[ERROR_CYCLE] Error added at CPU cycle 928208581, next at 935551244, pending count: 1
[DRAM_CYCLE_ERROR] Cycle-based error applied! address=0x17ced3188 additional_latency=1990500 cycles
[ERROR_CYCLE] Error added at CPU cycle 935551244, next at 940277711, pending count: 1
[DRAM_CYCLE_ERROR] Cycle-based error applied! address=0xbff432040 additional_latency=1990500 cycles
Heartbeat CPU 0 instructions: 360000064 cycles: 935900991 heartbeat IPC: 0.3849 cumulative IPC: 0.3847 (Simulation time: 01 hr 30 min 23 sec)
[ERROR_CYCLE] Error added at CPU cycle 940277711, next at 941361915, pending count: 1
[DRAM_CYCLE_ERROR] Cycle-based error applied! address=0x338e97c0 additional_latency=1990500 cycles
[ERROR_CYCLE] Error added at CPU cycle 941361915, next at 944131710, pending count: 1
[DRAM_CYCLE_ERROR] Cycle-based error applied! address=0x33960f40 additional_latency=1990500 cycles
[ERROR_CYCLE] Error added at CPU cycle 944131710, next at 965831250, pending count: 1
[DRAM_CYCLE_ERROR] Cycle-based error applied! address=0xb0fd12588 additional_latency=1990500 cycles
Heartbeat CPU 0 instructions: 370000067 cycles: 961841507 heartbeat IPC: 0.3855 cumulative IPC: 0.3847 (Simulation time: 01 hr 32 min 58 sec)
[ERROR_CYCLE] Error added at CPU cycle 965831250, next at 978230112, pending count: 1
[DRAM_CYCLE_ERROR] Cycle-based error applied! address=0x278ded760 additional_latency=1990500 cycles
[ERROR_CYCLE] Error added at CPU cycle 978230113, next at 995345989, pending count: 1
[DRAM_CYCLE_ERROR] Cycle-based error applied! address=0xbfe8a6d20 additional_latency=1990500 cycles
Heartbeat CPU 0 instructions: 380000068 cycles: 987867213 heartbeat IPC: 0.3842 cumulative IPC: 0.3847 (Simulation time: 01 hr 35 min 37 sec)
[ERROR_CYCLE] Error added at CPU cycle 995345989, next at 1001484614, pending count: 1
[DRAM_CYCLE_ERROR] Cycle-based error applied! address=0x9edf799c8 additional_latency=1990500 cycles
[ERROR_CYCLE] Error added at CPU cycle 1001484615, next at 1010972056, pending count: 1
[DRAM_CYCLE_ERROR] Cycle-based error applied! address=0x54bcabd0 additional_latency=1990500 cycles
[ERROR_CYCLE] Error added at CPU cycle 1010972057, next at 1013450836, pending count: 1
[DRAM_CYCLE_ERROR] Cycle-based error applied! address=0xc6e9d9ba0 additional_latency=1990500 cycles
[ERROR_CYCLE] Error added at CPU cycle 1013450836, next at 1027850374, pending count: 1
[DRAM_CYCLE_ERROR] Cycle-based error applied! address=0xb43caa350 additional_latency=1990500 cycles
Heartbeat CPU 0 instructions: 390000071 cycles: 1013891155 heartbeat IPC: 0.3843 cumulative IPC: 0.3847 (Simulation time: 01 hr 38 min 06 sec)
[ERROR_CYCLE] Error added at CPU cycle 1027850375, next at 1040360188, pending count: 1
[DRAM_CYCLE_ERROR] Cycle-based error applied! address=0xcc1e630d8 additional_latency=1990500 cycles
Heartbeat CPU 0 instructions: 400000074 cycles: 1039896723 heartbeat IPC: 0.3845 cumulative IPC: 0.3847 (Simulation time: 01 hr 40 min 42 sec)
[ERROR_CYCLE] Error added at CPU cycle 1040360189, next at 1048241966, pending count: 1
[DRAM_CYCLE_ERROR] Cycle-based error applied! address=0xf66b39980 additional_latency=1990500 cycles
[ERROR_CYCLE] Error added at CPU cycle 1048241966, next at 1057607729, pending count: 1
[DRAM_CYCLE_ERROR] Cycle-based error applied! address=0xaad694018 additional_latency=1990500 cycles
[ERROR_CYCLE] Error added at CPU cycle 1057607729, next at 1078039556, pending count: 1
[DRAM_CYCLE_ERROR] Cycle-based error applied! address=0x377ef350 additional_latency=1990500 cycles
Heartbeat CPU 0 instructions: 410000076 cycles: 1065907472 heartbeat IPC: 0.3845 cumulative IPC: 0.3846 (Simulation time: 01 hr 43 min 17 sec)
[ERROR_CYCLE] Error added at CPU cycle 1078039557, next at 1093227895, pending count: 1
[DRAM_CYCLE_ERROR] Cycle-based error applied! address=0x14c395780 additional_latency=1990500 cycles
Heartbeat CPU 0 instructions: 420000076 cycles: 1091884914 heartbeat IPC: 0.3849 cumulative IPC: 0.3847 (Simulation time: 01 hr 45 min 35 sec)
[ERROR_CYCLE] Error added at CPU cycle 1093227895, next at 1095375545, pending count: 1
[DRAM_CYCLE_ERROR] Cycle-based error applied! address=0x81bcf49c8 additional_latency=1990500 cycles
[ERROR_CYCLE] Error added at CPU cycle 1095375545, next at 1101804530, pending count: 1
[DRAM_CYCLE_ERROR] Cycle-based error applied! address=0x4d7a19140 additional_latency=1990500 cycles
[ERROR_CYCLE] Error added at CPU cycle 1101804530, next at 1107079687, pending count: 1
[DRAM_CYCLE_ERROR] Cycle-based error applied! address=0x1d6755f60 additional_latency=1990500 cycles
[ERROR_CYCLE] Error added at CPU cycle 1107079687, next at 1115318803, pending count: 1
[DRAM_CYCLE_ERROR] Cycle-based error applied! address=0xd39e3940 additional_latency=1990500 cycles
[ERROR_CYCLE] Error added at CPU cycle 1115318803, next at 1135008200, pending count: 1
[DRAM_CYCLE_ERROR] Cycle-based error applied! address=0x6544f2658 additional_latency=1990500 cycles
Heartbeat CPU 0 instructions: 430000076 cycles: 1117852092 heartbeat IPC: 0.3851 cumulative IPC: 0.3847 (Simulation time: 01 hr 48 min 05 sec)
[ERROR_CYCLE] Error added at CPU cycle 1135008201, next at 1140982700, pending count: 1
[DRAM_CYCLE_ERROR] Cycle-based error applied! address=0x2f84d8e58 additional_latency=1990500 cycles
[ERROR_CYCLE] Error added at CPU cycle 1140982700, next at 1154083331, pending count: 1
[DRAM_CYCLE_ERROR] Cycle-based error applied! address=0x8a503cc98 additional_latency=1990500 cycles
Heartbeat CPU 0 instructions: 440000080 cycles: 1143817761 heartbeat IPC: 0.3851 cumulative IPC: 0.3847 (Simulation time: 01 hr 50 min 45 sec)
[ERROR_CYCLE] Error added at CPU cycle 1154083332, next at 1155066855, pending count: 1
[DRAM_CYCLE_ERROR] Cycle-based error applied! address=0x9fc78d6a0 additional_latency=1990500 cycles
[ERROR_CYCLE] Error added at CPU cycle 1155066856, next at 1164180982, pending count: 1
[DRAM_CYCLE_ERROR] Cycle-based error applied! address=0x9fc7facc8 additional_latency=1990500 cycles
[ERROR_CYCLE] Error added at CPU cycle 1164180982, next at 1170052729, pending count: 1
[DRAM_CYCLE_ERROR] Cycle-based error applied! address=0x8ce985c40 additional_latency=1990500 cycles
Heartbeat CPU 0 instructions: 450000081 cycles: 1169783920 heartbeat IPC: 0.3851 cumulative IPC: 0.3847 (Simulation time: 01 hr 53 min 00 sec)
[ERROR_CYCLE] Error added at CPU cycle 1170052730, next at 1201159550, pending count: 1
[DRAM_CYCLE_ERROR] Cycle-based error applied! address=0x100e87d00 additional_latency=1990500 cycles
Heartbeat CPU 0 instructions: 460000083 cycles: 1195683547 heartbeat IPC: 0.3861 cumulative IPC: 0.3847 (Simulation time: 01 hr 55 min 15 sec)
[ERROR_CYCLE] Error added at CPU cycle 1201159551, next at 1219803754, pending count: 1
[DRAM_CYCLE_ERROR] Cycle-based error applied! address=0xffbb6c518 additional_latency=1990500 cycles
[ERROR_CYCLE] Error added at CPU cycle 1219803754, next at 1222032553, pending count: 1
[DRAM_CYCLE_ERROR] Cycle-based error applied! address=0xe8ef6fc88 additional_latency=1990500 cycles
Heartbeat CPU 0 instructions: 470000085 cycles: 1221562037 heartbeat IPC: 0.3864 cumulative IPC: 0.3848 (Simulation time: 01 hr 57 min 17 sec)
[ERROR_CYCLE] Error added at CPU cycle 1222032554, next at 1224789878, pending count: 1
[DRAM_CYCLE_ERROR] Cycle-based error applied! address=0xb7fc6e210 additional_latency=1990500 cycles
[ERROR_CYCLE] Error added at CPU cycle 1224789879, next at 1231478862, pending count: 1
[DRAM_CYCLE_ERROR] Cycle-based error applied! address=0xb7fda3e50 additional_latency=1990500 cycles
[ERROR_CYCLE] Error added at CPU cycle 1231478862, next at 1231912145, pending count: 1
[DRAM_CYCLE_ERROR] Cycle-based error applied! address=0x7106f39c0 additional_latency=1990500 cycles
[ERROR_CYCLE] Error added at CPU cycle 1231912145, next at 1236268432, pending count: 1
[DRAM_CYCLE_ERROR] Cycle-based error applied! address=0x71071ff48 additional_latency=1990500 cycles
[ERROR_CYCLE] Error added at CPU cycle 1236268432, next at 1250618753, pending count: 1
[DRAM_CYCLE_ERROR] Cycle-based error applied! address=0x46ecc0cb8 additional_latency=1990500 cycles
Heartbeat CPU 0 instructions: 480000086 cycles: 1247490929 heartbeat IPC: 0.3857 cumulative IPC: 0.3848 (Simulation time: 01 hr 59 min 27 sec)
[ERROR_CYCLE] Error added at CPU cycle 1250618753, next at 1293864347, pending count: 1
[DRAM_CYCLE_ERROR] Cycle-based error applied! address=0xdc3d82710 additional_latency=1990500 cycles
Heartbeat CPU 0 instructions: 490000086 cycles: 1273376666 heartbeat IPC: 0.3863 cumulative IPC: 0.3848 (Simulation time: 02 hr 02 min 04 sec)
[ERROR_CYCLE] Error added at CPU cycle 1293864347, next at 1304881196, pending count: 1
[DRAM_CYCLE_ERROR] Cycle-based error applied! address=0xcca5162a0 additional_latency=1990500 cycles
Heartbeat CPU 0 instructions: 500000086 cycles: 1299362909 heartbeat IPC: 0.3848 cumulative IPC: 0.3848 (Simulation time: 02 hr 04 min 30 sec)
[ERROR_CYCLE] Error added at CPU cycle 1304881197, next at 1314838771, pending count: 1
[DRAM_CYCLE_ERROR] Cycle-based error applied! address=0x5fe5dd90 additional_latency=1990500 cycles
[ERROR_CYCLE] Error added at CPU cycle 1314838771, next at 1321326019, pending count: 1
[DRAM_CYCLE_ERROR] Cycle-based error applied! address=0x4fb6e1290 additional_latency=1990500 cycles
[ERROR_CYCLE] Error added at CPU cycle 1321326020, next at 1334779567, pending count: 1
[DRAM_CYCLE_ERROR] Cycle-based error applied! address=0x359216da0 additional_latency=1990500 cycles
Heartbeat CPU 0 instructions: 510000087 cycles: 1325313316 heartbeat IPC: 0.3854 cumulative IPC: 0.3848 (Simulation time: 02 hr 07 min 08 sec)
[ERROR_CYCLE] Error added at CPU cycle 1334779568, next at 1341662842, pending count: 1
[DRAM_CYCLE_ERROR] Cycle-based error applied! address=0x290407de0 additional_latency=1990500 cycles
[ERROR_CYCLE] Error added at CPU cycle 1341662842, next at 1341958013, pending count: 1
[DRAM_CYCLE_ERROR] Cycle-based error applied! address=0x5d30d7048 additional_latency=1990500 cycles
[ERROR_CYCLE] Error added at CPU cycle 1341958014, next at 1347444921, pending count: 1
[DRAM_CYCLE_ERROR] Cycle-based error applied! address=0x5d30f4fd0 additional_latency=1990500 cycles
[ERROR_CYCLE] Error added at CPU cycle 1347444921, next at 1348889686, pending count: 1
[DRAM_CYCLE_ERROR] Cycle-based error applied! address=0x8f172be08 additional_latency=1990500 cycles
[ERROR_CYCLE] Error added at CPU cycle 1348889686, next at 1370368934, pending count: 1
[DRAM_CYCLE_ERROR] Cycle-based error applied! address=0x8f17af590 additional_latency=1990500 cycles
Heartbeat CPU 0 instructions: 520000087 cycles: 1351244333 heartbeat IPC: 0.3856 cumulative IPC: 0.3848 (Simulation time: 02 hr 09 min 47 sec)
[ERROR_CYCLE] Error added at CPU cycle 1370368934, next at 1377657432, pending count: 1
[DRAM_CYCLE_ERROR] Cycle-based error applied! address=0x66d2ac580 additional_latency=1990500 cycles
Heartbeat CPU 0 instructions: 530000091 cycles: 1377164399 heartbeat IPC: 0.3858 cumulative IPC: 0.3848 (Simulation time: 02 hr 12 min 25 sec)
[ERROR_CYCLE] Error added at CPU cycle 1377657432, next at 1418042020, pending count: 1
[DRAM_CYCLE_ERROR] Cycle-based error applied! address=0x10f0de310 additional_latency=1990500 cycles
Heartbeat CPU 0 instructions: 540000093 cycles: 1403168129 heartbeat IPC: 0.3846 cumulative IPC: 0.3848 (Simulation time: 02 hr 15 min 03 sec)
[ERROR_CYCLE] Error added at CPU cycle 1418042020, next at 1428774744, pending count: 1
[DRAM_CYCLE_ERROR] Cycle-based error applied! address=0x89a16ee40 additional_latency=1990500 cycles
[ERROR_CYCLE] Error added at CPU cycle 1428774745, next at 1430659638, pending count: 1
[DRAM_CYCLE_ERROR] Cycle-based error applied! address=0xd4759f810 additional_latency=1990500 cycles
Heartbeat CPU 0 instructions: 550000093 cycles: 1429097729 heartbeat IPC: 0.3857 cumulative IPC: 0.3849 (Simulation time: 02 hr 17 min 41 sec)
[ERROR_CYCLE] Error added at CPU cycle 1430659639, next at 1434805602, pending count: 1
[DRAM_CYCLE_ERROR] Cycle-based error applied! address=0xf916e9a90 additional_latency=1990500 cycles
[ERROR_CYCLE] Error added at CPU cycle 1434805602, next at 1439910027, pending count: 1
[DRAM_CYCLE_ERROR] Cycle-based error applied! address=0xd0b281808 additional_latency=1990500 cycles
[ERROR_CYCLE] Error added at CPU cycle 1439910028, next at 1455265502, pending count: 1
[DRAM_CYCLE_ERROR] Cycle-based error applied! address=0xe651468c0 additional_latency=1990500 cycles
Heartbeat CPU 0 instructions: 560000095 cycles: 1455065853 heartbeat IPC: 0.3851 cumulative IPC: 0.3849 (Simulation time: 02 hr 20 min 14 sec)
[ERROR_CYCLE] Error added at CPU cycle 1455265502, next at 1456081149, pending count: 1
[DRAM_CYCLE_ERROR] Cycle-based error applied! address=0x3616a66d8 additional_latency=1990500 cycles
[ERROR_CYCLE] Error added at CPU cycle 1456081149, next at 1459633187, pending count: 1
[DRAM_CYCLE_ERROR] Cycle-based error applied! address=0x361712310 additional_latency=1990500 cycles
[ERROR_CYCLE] Error added at CPU cycle 1459633187, next at 1470585164, pending count: 1
[DRAM_CYCLE_ERROR] Cycle-based error applied! address=0x207503e08 additional_latency=1990500 cycles
[ERROR_CYCLE] Error added at CPU cycle 1470585164, next at 1472949657, pending count: 1
[DRAM_CYCLE_ERROR] Cycle-based error applied! address=0x5d363d950 additional_latency=1990500 cycles
[ERROR_CYCLE] Error added at CPU cycle 1472949657, next at 1483173147, pending count: 1
[DRAM_CYCLE_ERROR] Cycle-based error applied! address=0x5d37e5a50 additional_latency=1990500 cycles
Heartbeat CPU 0 instructions: 570000095 cycles: 1481046439 heartbeat IPC: 0.3849 cumulative IPC: 0.3849 (Simulation time: 02 hr 22 min 38 sec)
[ERROR_CYCLE] Error added at CPU cycle 1483173148, next at 1484511175, pending count: 1
[DRAM_CYCLE_ERROR] Cycle-based error applied! address=0x7017ecc80 additional_latency=1990500 cycles
[ERROR_CYCLE] Error added at CPU cycle 1484511175, next at 1492326095, pending count: 1
[DRAM_CYCLE_ERROR] Cycle-based error applied! address=0x85b6f1708 additional_latency=1990500 cycles
[ERROR_CYCLE] Error added at CPU cycle 1492326095, next at 1498403147, pending count: 1
[DRAM_CYCLE_ERROR] Cycle-based error applied! address=0x8e5ad9820 additional_latency=1990500 cycles
[ERROR_CYCLE] Error added at CPU cycle 1498403147, next at 1500174205, pending count: 1
[DRAM_CYCLE_ERROR] Cycle-based error applied! address=0x9142f9dd8 additional_latency=1990500 cycles
[ERROR_CYCLE] Error added at CPU cycle 1500174206, next at 1504681962, pending count: 1
[DRAM_CYCLE_ERROR] Cycle-based error applied! address=0xee440f288 additional_latency=1990500 cycles
[ERROR_CYCLE] Error added at CPU cycle 1504681962, next at 1508176422, pending count: 1
[DRAM_CYCLE_ERROR] Cycle-based error applied! address=0xc0891c1d0 additional_latency=1990500 cycles
Heartbeat CPU 0 instructions: 580000099 cycles: 1507044154 heartbeat IPC: 0.3846 cumulative IPC: 0.3849 (Simulation time: 02 hr 24 min 54 sec)
[ERROR_CYCLE] Error added at CPU cycle 1508176422, next at 1510980618, pending count: 1
[DRAM_CYCLE_ERROR] Cycle-based error applied! address=0x2ebc630d0 additional_latency=1990500 cycles
[ERROR_CYCLE] Error added at CPU cycle 1510980618, next at 1540506590, pending count: 1
[DRAM_CYCLE_ERROR] Cycle-based error applied! address=0xe43719a90 additional_latency=1990500 cycles
Heartbeat CPU 0 instructions: 590000102 cycles: 1533004177 heartbeat IPC: 0.3852 cumulative IPC: 0.3849 (Simulation time: 02 hr 27 min 31 sec)
[ERROR_CYCLE] Error added at CPU cycle 1540506591, next at 1545633908, pending count: 1
[DRAM_CYCLE_ERROR] Cycle-based error applied! address=0xe43634c10 additional_latency=1990500 cycles
[ERROR_CYCLE] Error added at CPU cycle 1545633909, next at 1555382131, pending count: 1
[DRAM_CYCLE_ERROR] Cycle-based error applied! address=0x5145d0460 additional_latency=1990500 cycles
[ERROR_CYCLE] Error added at CPU cycle 1555382132, next at 1559379921, pending count: 1
[DRAM_CYCLE_ERROR] Cycle-based error applied! address=0xc5a12f8c0 additional_latency=1990500 cycles
Heartbeat CPU 0 instructions: 600000104 cycles: 1559017629 heartbeat IPC: 0.3844 cumulative IPC: 0.3849 (Simulation time: 02 hr 30 min 04 sec)
[ERROR_CYCLE] Error added at CPU cycle 1559379922, next at 1568250473, pending count: 1
[DRAM_CYCLE_ERROR] Cycle-based error applied! address=0x3568c41c8 additional_latency=1990500 cycles
[ERROR_CYCLE] Error added at CPU cycle 1568250473, next at 1568397086, pending count: 1
[DRAM_CYCLE_ERROR] Cycle-based error applied! address=0x53a24860 additional_latency=1990500 cycles
[ERROR_CYCLE] Error added at CPU cycle 1568397086, next at 1571204618, pending count: 1
[DRAM_CYCLE_ERROR] Cycle-based error applied! address=0x53a33450 additional_latency=1990500 cycles
[ERROR_CYCLE] Error added at CPU cycle 1571204618, next at 1572401785, pending count: 1
[DRAM_CYCLE_ERROR] Cycle-based error applied! address=0x53be8c00 additional_latency=1990500 cycles
[ERROR_CYCLE] Error added at CPU cycle 1572401785, next at 1585569552, pending count: 1
[DRAM_CYCLE_ERROR] Cycle-based error applied! address=0xd622be2c0 additional_latency=1990500 cycles
Heartbeat CPU 0 instructions: 610000105 cycles: 1585054859 heartbeat IPC: 0.3841 cumulative IPC: 0.3848 (Simulation time: 02 hr 32 min 42 sec)
[ERROR_CYCLE] Error added at CPU cycle 1585569553, next at 1586429627, pending count: 1
[DRAM_CYCLE_ERROR] Cycle-based error applied! address=0xddc3e0a88 additional_latency=1990500 cycles
[ERROR_CYCLE] Error added at CPU cycle 1586429628, next at 1598198580, pending count: 1
[DRAM_CYCLE_ERROR] Cycle-based error applied! address=0x47e9ebb78 additional_latency=1990500 cycles
[ERROR_CYCLE] Error added at CPU cycle 1598198580, next at 1609933064, pending count: 1
[DRAM_CYCLE_ERROR] Cycle-based error applied! address=0x67638a148 additional_latency=1990500 cycles
[ERROR_CYCLE] Error added at CPU cycle 1609933064, next at 1625877684, pending count: 1
[DRAM_CYCLE_ERROR] Cycle-based error applied! address=0x5f78b1da0 additional_latency=1990500 cycles
Heartbeat CPU 0 instructions: 620000107 cycles: 1613035245 heartbeat IPC: 0.3574 cumulative IPC: 0.3844 (Simulation time: 02 hr 35 min 31 sec)
[ERROR_CYCLE] Error added at CPU cycle 1625877685, next at 1636789861, pending count: 1
[DRAM_CYCLE_ERROR] Cycle-based error applied! address=0x501090688 additional_latency=1990500 cycles
[ERROR_CYCLE] Error added at CPU cycle 1636789862, next at 1644796500, pending count: 1
[DRAM_CYCLE_ERROR] Cycle-based error applied! address=0x266988bd0 additional_latency=1990500 cycles
Heartbeat CPU 0 instructions: 630000107 cycles: 1639787238 heartbeat IPC: 0.3738 cumulative IPC: 0.3842 (Simulation time: 02 hr 38 min 09 sec)
[ERROR_CYCLE] Error added at CPU cycle 1644796501, next at 1651860450, pending count: 1
[DRAM_CYCLE_ERROR] Cycle-based error applied! address=0xa2f7ce600 additional_latency=1990500 cycles
[ERROR_CYCLE] Error added at CPU cycle 1651860451, next at 1653809977, pending count: 1
[DRAM_CYCLE_ERROR] Cycle-based error applied! address=0x7f2b3e520 additional_latency=1990500 cycles
[ERROR_CYCLE] Error added at CPU cycle 1653809978, next at 1657379418, pending count: 1
[DRAM_CYCLE_ERROR] Cycle-based error applied! address=0x6c6e0eac8 additional_latency=1990500 cycles
[ERROR_CYCLE] Error added at CPU cycle 1657379418, next at 1658264083, pending count: 1
[DRAM_CYCLE_ERROR] Cycle-based error applied! address=0xc16ae9058 additional_latency=1990500 cycles
[ERROR_CYCLE] Error added at CPU cycle 1658264083, next at 1665882359, pending count: 1
[DRAM_CYCLE_ERROR] Cycle-based error applied! address=0xc16b41c08 additional_latency=1990500 cycles
[ERROR_CYCLE] Error added at CPU cycle 1665882360, next at 1676059798, pending count: 1
[DRAM_CYCLE_ERROR] Cycle-based error applied! address=0x696c75fc8 additional_latency=1990500 cycles
Heartbeat CPU 0 instructions: 640000107 cycles: 1666124140 heartbeat IPC: 0.3797 cumulative IPC: 0.3841 (Simulation time: 02 hr 40 min 42 sec)
[ERROR_CYCLE] Error added at CPU cycle 1676059798, next at 1681837268, pending count: 1
[DRAM_CYCLE_ERROR] Cycle-based error applied! address=0x89327c908 additional_latency=1990500 cycles
[ERROR_CYCLE] Error added at CPU cycle 1681837269, next at 1682449489, pending count: 1
[DRAM_CYCLE_ERROR] Cycle-based error applied! address=0xb11e35bc8 additional_latency=1990500 cycles
[ERROR_CYCLE] Error added at CPU cycle 1682449490, next at 1684531699, pending count: 1
[DRAM_CYCLE_ERROR] Cycle-based error applied! address=0xf9c1b2050 additional_latency=1990500 cycles
[ERROR_CYCLE] Error added at CPU cycle 1684531699, next at 1689632708, pending count: 1
[DRAM_CYCLE_ERROR] Cycle-based error applied! address=0x785c98910 additional_latency=1990500 cycles
[ERROR_CYCLE] Error added at CPU cycle 1689632708, next at 1698666429, pending count: 1
[DRAM_CYCLE_ERROR] Cycle-based error applied! address=0x1c03c52c8 additional_latency=1990500 cycles
Heartbeat CPU 0 instructions: 650000107 cycles: 1692669970 heartbeat IPC: 0.3767 cumulative IPC: 0.384 (Simulation time: 02 hr 43 min 19 sec)
[ERROR_CYCLE] Error added at CPU cycle 1698666429, next at 1712907950, pending count: 1
[DRAM_CYCLE_ERROR] Cycle-based error applied! address=0x3cd62c3c0 additional_latency=1990500 cycles
[ERROR_CYCLE] Error added at CPU cycle 1712907950, next at 1723767518, pending count: 1
[DRAM_CYCLE_ERROR] Cycle-based error applied! address=0xb5cd399c0 additional_latency=1990500 cycles
Heartbeat CPU 0 instructions: 660000108 cycles: 1718763720 heartbeat IPC: 0.3832 cumulative IPC: 0.384 (Simulation time: 02 hr 45 min 53 sec)
[ERROR_CYCLE] Error added at CPU cycle 1723767518, next at 1724455640, pending count: 1
[DRAM_CYCLE_ERROR] Cycle-based error applied! address=0xfe3204a80 additional_latency=1990500 cycles
[ERROR_CYCLE] Error added at CPU cycle 1724455640, next at 1732720291, pending count: 1
[DRAM_CYCLE_ERROR] Cycle-based error applied! address=0x7ba2d0448 additional_latency=1990500 cycles
[ERROR_CYCLE] Error added at CPU cycle 1732720291, next at 1732872069, pending count: 1
[DRAM_CYCLE_ERROR] Cycle-based error applied! address=0x6d9033400 additional_latency=1990500 cycles
[ERROR_CYCLE] Error added at CPU cycle 1732872069, next at 1761065331, pending count: 1
[DRAM_CYCLE_ERROR] Cycle-based error applied! address=0x6d904a560 additional_latency=1990500 cycles
Heartbeat CPU 0 instructions: 670000109 cycles: 1744793098 heartbeat IPC: 0.3842 cumulative IPC: 0.384 (Simulation time: 02 hr 48 min 27 sec)
[ERROR_CYCLE] Error added at CPU cycle 1761065331, next at 1793147943, pending count: 1
[DRAM_CYCLE_ERROR] Cycle-based error applied! address=0x7eff5a090 additional_latency=1990500 cycles
Heartbeat CPU 0 instructions: 680000110 cycles: 1770749275 heartbeat IPC: 0.3853 cumulative IPC: 0.384 (Simulation time: 02 hr 50 min 51 sec)
[ERROR_CYCLE] Error added at CPU cycle 1793147943, next at 1793813373, pending count: 1
[DRAM_CYCLE_ERROR] Cycle-based error applied! address=0x82a4009d0 additional_latency=1990500 cycles
[ERROR_CYCLE] Error added at CPU cycle 1793813374, next at 1797803186, pending count: 1
[DRAM_CYCLE_ERROR] Cycle-based error applied! address=0x82a445058 additional_latency=1990500 cycles
Heartbeat CPU 0 instructions: 690000111 cycles: 1796626176 heartbeat IPC: 0.3864 cumulative IPC: 0.3841 (Simulation time: 02 hr 53 min 24 sec)
[ERROR_CYCLE] Error added at CPU cycle 1797803186, next at 1799966554, pending count: 1
[DRAM_CYCLE_ERROR] Cycle-based error applied! address=0xb3fc9f700 additional_latency=1990500 cycles
[ERROR_CYCLE] Error added at CPU cycle 1799966554, next at 1816349209, pending count: 1
[DRAM_CYCLE_ERROR] Cycle-based error applied! address=0x39a936bc0 additional_latency=1990500 cycles
[ERROR_CYCLE] Error added at CPU cycle 1816349210, next at 1825528779, pending count: 1
[DRAM_CYCLE_ERROR] Cycle-based error applied! address=0xf682a1290 additional_latency=1990500 cycles
Heartbeat CPU 0 instructions: 700000115 cycles: 1822508559 heartbeat IPC: 0.3864 cumulative IPC: 0.3841 (Simulation time: 02 hr 55 min 57 sec)
[ERROR_CYCLE] Error added at CPU cycle 1825528779, next at 1834768449, pending count: 1
[DRAM_CYCLE_ERROR] Cycle-based error applied! address=0xcfcd2fd0 additional_latency=1990500 cycles
[ERROR_CYCLE] Error added at CPU cycle 1834768449, next at 1844525260, pending count: 1
[DRAM_CYCLE_ERROR] Cycle-based error applied! address=0xd893762d0 additional_latency=1990500 cycles
[ERROR_CYCLE] Error added at CPU cycle 1844525260, next at 1850641546, pending count: 1
[DRAM_CYCLE_ERROR] Cycle-based error applied! address=0x455736148 additional_latency=1990500 cycles
Heartbeat CPU 0 instructions: 710000116 cycles: 1848402591 heartbeat IPC: 0.3862 cumulative IPC: 0.3841 (Simulation time: 02 hr 58 min 29 sec)
[ERROR_CYCLE] Error added at CPU cycle 1850641546, next at 1889060908, pending count: 1
[DRAM_CYCLE_ERROR] Cycle-based error applied! address=0x5be3f03c0 additional_latency=1990500 cycles
Heartbeat CPU 0 instructions: 720000117 cycles: 1874266045 heartbeat IPC: 0.3866 cumulative IPC: 0.3842 (Simulation time: 03 hr 01 min 03 sec)
[ERROR_CYCLE] Error added at CPU cycle 1889060908, next at 1893058439, pending count: 1
[DRAM_CYCLE_ERROR] Cycle-based error applied! address=0xeffcd5f80 additional_latency=1990500 cycles
[ERROR_CYCLE] Error added at CPU cycle 1893058439, next at 1893848597, pending count: 1
[DRAM_CYCLE_ERROR] Cycle-based error applied! address=0x83de20b00 additional_latency=1990500 cycles
[ERROR_CYCLE] Error added at CPU cycle 1893848597, next at 1896618500, pending count: 1
[DRAM_CYCLE_ERROR] Cycle-based error applied! address=0x83deab740 additional_latency=1990500 cycles
[ERROR_CYCLE] Error added at CPU cycle 1896618500, next at 1899563940, pending count: 1
[DRAM_CYCLE_ERROR] Cycle-based error applied! address=0x5b706dca0 additional_latency=1990500 cycles
[ERROR_CYCLE] Error added at CPU cycle 1899563940, next at 1916523007, pending count: 1
[DRAM_CYCLE_ERROR] Cycle-based error applied! address=0x92b8e6fd8 additional_latency=1990500 cycles
Heartbeat CPU 0 instructions: 730000120 cycles: 1900210426 heartbeat IPC: 0.3854 cumulative IPC: 0.3842 (Simulation time: 03 hr 03 min 37 sec)
[ERROR_CYCLE] Error added at CPU cycle 1916523007, next at 1919993062, pending count: 1
[DRAM_CYCLE_ERROR] Cycle-based error applied! address=0x3d7783908 additional_latency=1990500 cycles
[ERROR_CYCLE] Error added at CPU cycle 1919993063, next at 1953397181, pending count: 1
[DRAM_CYCLE_ERROR] Cycle-based error applied! address=0x52b609a88 additional_latency=1990500 cycles
Heartbeat CPU 0 instructions: 740000121 cycles: 1926213687 heartbeat IPC: 0.3846 cumulative IPC: 0.3842 (Simulation time: 03 hr 05 min 43 sec)
Heartbeat CPU 0 instructions: 750000122 cycles: 1952164941 heartbeat IPC: 0.3853 cumulative IPC: 0.3842 (Simulation time: 03 hr 08 min 12 sec)
[ERROR_CYCLE] Error added at CPU cycle 1953397182, next at 1957960083, pending count: 1
[DRAM_CYCLE_ERROR] Cycle-based error applied! address=0x38fed9b20 additional_latency=1990500 cycles
[ERROR_CYCLE] Error added at CPU cycle 1957960083, next at 1964413148, pending count: 1
[DRAM_CYCLE_ERROR] Cycle-based error applied! address=0xb54687788 additional_latency=1990500 cycles
[ERROR_CYCLE] Error added at CPU cycle 1964413148, next at 1975694798, pending count: 1
[DRAM_CYCLE_ERROR] Cycle-based error applied! address=0x7cf5a4f40 additional_latency=1990500 cycles
[ERROR_CYCLE] Error added at CPU cycle 1975694799, next at 1978590678, pending count: 1
[DRAM_CYCLE_ERROR] Cycle-based error applied! address=0x1fd9b6e18 additional_latency=1990500 cycles
Heartbeat CPU 0 instructions: 760000122 cycles: 1978161836 heartbeat IPC: 0.3847 cumulative IPC: 0.3842 (Simulation time: 03 hr 10 min 44 sec)
[ERROR_CYCLE] Error added at CPU cycle 1978590678, next at 1999903695, pending count: 1
[DRAM_CYCLE_ERROR] Cycle-based error applied! address=0x27df33de0 additional_latency=1990500 cycles
[ERROR_CYCLE] Error added at CPU cycle 1999903696, next at 2039968677, pending count: 1
[DRAM_CYCLE_ERROR] Cycle-based error applied! address=0x225fb67c8 additional_latency=1990500 cycles
Heartbeat CPU 0 instructions: 770000122 cycles: 2004101995 heartbeat IPC: 0.3855 cumulative IPC: 0.3842 (Simulation time: 03 hr 13 min 17 sec)
Heartbeat CPU 0 instructions: 780000124 cycles: 2030021698 heartbeat IPC: 0.3858 cumulative IPC: 0.3842 (Simulation time: 03 hr 15 min 49 sec)
[ERROR_CYCLE] Error added at CPU cycle 2039968677, next at 2041475847, pending count: 1
[DRAM_CYCLE_ERROR] Cycle-based error applied! address=0xb6286e6c0 additional_latency=1990500 cycles
[ERROR_CYCLE] Error added at CPU cycle 2041475847, next at 2047560792, pending count: 1
[DRAM_CYCLE_ERROR] Cycle-based error applied! address=0xb6292ad08 additional_latency=1990500 cycles
[ERROR_CYCLE] Error added at CPU cycle 2047560792, next at 2057318185, pending count: 1
[DRAM_CYCLE_ERROR] Cycle-based error applied! address=0x537bfa100 additional_latency=1990500 cycles
Heartbeat CPU 0 instructions: 790000127 cycles: 2055914119 heartbeat IPC: 0.3862 cumulative IPC: 0.3843 (Simulation time: 03 hr 18 min 22 sec)
[ERROR_CYCLE] Error added at CPU cycle 2057318185, next at 2060443789, pending count: 1
[DRAM_CYCLE_ERROR] Cycle-based error applied! address=0x55827d988 additional_latency=1990500 cycles
[ERROR_CYCLE] Error added at CPU cycle 2060443790, next at 2081336312, pending count: 1
[DRAM_CYCLE_ERROR] Cycle-based error applied! address=0x5583e1d48 additional_latency=1990500 cycles
[ERROR_CYCLE] Error added at CPU cycle 2081336313, next at 2086511136, pending count: 1
[DRAM_CYCLE_ERROR] Cycle-based error applied! address=0x683975dc8 additional_latency=1990500 cycles
Heartbeat CPU 0 instructions: 800000128 cycles: 2081910012 heartbeat IPC: 0.3847 cumulative IPC: 0.3843 (Simulation time: 03 hr 20 min 54 sec)
[ERROR_CYCLE] Error added at CPU cycle 2086511137, next at 2122093809, pending count: 1
[DRAM_CYCLE_ERROR] Cycle-based error applied! address=0x9d84aaf98 additional_latency=1990500 cycles
Heartbeat CPU 0 instructions: 810000128 cycles: 2107844084 heartbeat IPC: 0.3856 cumulative IPC: 0.3843 (Simulation time: 03 hr 23 min 27 sec)
[ERROR_CYCLE] Error added at CPU cycle 2122093810, next at 2127094108, pending count: 1
[DRAM_CYCLE_ERROR] Cycle-based error applied! address=0xd6643d930 additional_latency=1990500 cycles
[ERROR_CYCLE] Error added at CPU cycle 2127094108, next at 2135895343, pending count: 1
[DRAM_CYCLE_ERROR] Cycle-based error applied! address=0xc384b9590 additional_latency=1990500 cycles
Heartbeat CPU 0 instructions: 820000128 cycles: 2133807867 heartbeat IPC: 0.3852 cumulative IPC: 0.3843 (Simulation time: 03 hr 26 min 00 sec)
[ERROR_CYCLE] Error added at CPU cycle 2135895344, next at 2136799738, pending count: 1
[DRAM_CYCLE_ERROR] Cycle-based error applied! address=0x8b2266718 additional_latency=1990500 cycles
[ERROR_CYCLE] Error added at CPU cycle 2136799738, next at 2139453762, pending count: 1
[DRAM_CYCLE_ERROR] Cycle-based error applied! address=0x8b22dc940 additional_latency=1990500 cycles
[ERROR_CYCLE] Error added at CPU cycle 2139453763, next at 2143754350, pending count: 1
[DRAM_CYCLE_ERROR] Cycle-based error applied! address=0xc5e21f820 additional_latency=1990500 cycles
[ERROR_CYCLE] Error added at CPU cycle 2143754351, next at 2143833455, pending count: 1
[DRAM_CYCLE_ERROR] Cycle-based error applied! address=0xa87645550 additional_latency=1990500 cycles
[ERROR_CYCLE] Error added at CPU cycle 2143833456, next at 2170169196, pending count: 1
[DRAM_CYCLE_ERROR] Cycle-based error applied! address=0xa8764cf08 additional_latency=1990500 cycles
Heartbeat CPU 0 instructions: 830000128 cycles: 2159784610 heartbeat IPC: 0.385 cumulative IPC: 0.3843 (Simulation time: 03 hr 28 min 13 sec)
[ERROR_CYCLE] Error added at CPU cycle 2170169196, next at 2170565878, pending count: 1
[DRAM_CYCLE_ERROR] Cycle-based error applied! address=0x27570cc08 additional_latency=1990500 cycles
[ERROR_CYCLE] Error added at CPU cycle 2170565879, next at 2195034269, pending count: 1
[DRAM_CYCLE_ERROR] Cycle-based error applied! address=0x27572cf80 additional_latency=1990500 cycles
Heartbeat CPU 0 instructions: 840000128 cycles: 2185746205 heartbeat IPC: 0.3852 cumulative IPC: 0.3843 (Simulation time: 03 hr 30 min 06 sec)
[ERROR_CYCLE] Error added at CPU cycle 2195034270, next at 2204436534, pending count: 1
[DRAM_CYCLE_ERROR] Cycle-based error applied! address=0x6394dfd88 additional_latency=1990500 cycles
[ERROR_CYCLE] Error added at CPU cycle 2204436534, next at 2217211204, pending count: 1
[DRAM_CYCLE_ERROR] Cycle-based error applied! address=0xd3d4bb0c8 additional_latency=1990500 cycles
Heartbeat CPU 0 instructions: 850000131 cycles: 2211714227 heartbeat IPC: 0.3851 cumulative IPC: 0.3843 (Simulation time: 03 hr 31 min 58 sec)
[ERROR_CYCLE] Error added at CPU cycle 2217211205, next at 2223054796, pending count: 1
[DRAM_CYCLE_ERROR] Cycle-based error applied! address=0x1c4272d80 additional_latency=1990500 cycles
[ERROR_CYCLE] Error added at CPU cycle 2223054797, next at 2228544198, pending count: 1
[DRAM_CYCLE_ERROR] Cycle-based error applied! address=0x4a26cfd80 additional_latency=1990500 cycles
[ERROR_CYCLE] Error added at CPU cycle 2228544198, next at 2232019815, pending count: 1
[DRAM_CYCLE_ERROR] Cycle-based error applied! address=0x2385074c8 additional_latency=1990500 cycles
[ERROR_CYCLE] Error added at CPU cycle 2232019815, next at 2235515925, pending count: 1
[DRAM_CYCLE_ERROR] Cycle-based error applied! address=0x92466e748 additional_latency=1990500 cycles
[ERROR_CYCLE] Error added at CPU cycle 2235515925, next at 2237647010, pending count: 1
[DRAM_CYCLE_ERROR] Cycle-based error applied! address=0x9247d7dc8 additional_latency=1990500 cycles
Heartbeat CPU 0 instructions: 860000134 cycles: 2237611293 heartbeat IPC: 0.3861 cumulative IPC: 0.3843 (Simulation time: 03 hr 33 min 56 sec)
[ERROR_CYCLE] Error added at CPU cycle 2237647010, next at 2248080448, pending count: 1
[DRAM_CYCLE_ERROR] Cycle-based error applied! address=0x6aa0b3760 additional_latency=1990500 cycles
[ERROR_CYCLE] Error added at CPU cycle 2248080448, next at 2268555961, pending count: 1
[DRAM_CYCLE_ERROR] Cycle-based error applied! address=0xaceaebb98 additional_latency=1990500 cycles
Heartbeat CPU 0 instructions: 870000134 cycles: 2263504638 heartbeat IPC: 0.3862 cumulative IPC: 0.3844 (Simulation time: 03 hr 36 min 08 sec)
[ERROR_CYCLE] Error added at CPU cycle 2268555961, next at 2288482074, pending count: 1
[DRAM_CYCLE_ERROR] Cycle-based error applied! address=0x2dbf4fa80 additional_latency=1990500 cycles
[ERROR_CYCLE] Error added at CPU cycle 2288482074, next at 2294298920, pending count: 1
[DRAM_CYCLE_ERROR] Cycle-based error applied! address=0xa762b3960 additional_latency=1990500 cycles
Heartbeat CPU 0 instructions: 880000136 cycles: 2289381933 heartbeat IPC: 0.3864 cumulative IPC: 0.3844 (Simulation time: 03 hr 37 min 53 sec)
[ERROR_CYCLE] Error added at CPU cycle 2294298920, next at 2295073929, pending count: 1
[DRAM_CYCLE_ERROR] Cycle-based error applied! address=0xff8d0d350 additional_latency=1990500 cycles
[ERROR_CYCLE] Error added at CPU cycle 2295073930, next at 2296867031, pending count: 1
[DRAM_CYCLE_ERROR] Cycle-based error applied! address=0xff8d5c9a0 additional_latency=1990500 cycles
[ERROR_CYCLE] Error added at CPU cycle 2296867031, next at 2305759519, pending count: 1
[DRAM_CYCLE_ERROR] Cycle-based error applied! address=0x72a614d98 additional_latency=1990500 cycles
[ERROR_CYCLE] Error added at CPU cycle 2305759519, next at 2317589146, pending count: 1
[DRAM_CYCLE_ERROR] Cycle-based error applied! address=0x58b7ada90 additional_latency=1990500 cycles
Heartbeat CPU 0 instructions: 890000137 cycles: 2315321155 heartbeat IPC: 0.3855 cumulative IPC: 0.3844 (Simulation time: 03 hr 39 min 39 sec)
[ERROR_CYCLE] Error added at CPU cycle 2317589146, next at 2319340389, pending count: 1
[DRAM_CYCLE_ERROR] Cycle-based error applied! address=0xb68c82ad8 additional_latency=1990500 cycles
[ERROR_CYCLE] Error added at CPU cycle 2319340390, next at 2321630499, pending count: 1
[DRAM_CYCLE_ERROR] Cycle-based error applied! address=0xb68d71f20 additional_latency=1990500 cycles
[ERROR_CYCLE] Error added at CPU cycle 2321630499, next at 2328230742, pending count: 1
[DRAM_CYCLE_ERROR] Cycle-based error applied! address=0x545ea7d90 additional_latency=1990500 cycles
[ERROR_CYCLE] Error added at CPU cycle 2328230742, next at 2330492435, pending count: 1
[DRAM_CYCLE_ERROR] Cycle-based error applied! address=0x510a06ec8 additional_latency=1990500 cycles
[ERROR_CYCLE] Error added at CPU cycle 2330492436, next at 2331166908, pending count: 1
[DRAM_CYCLE_ERROR] Cycle-based error applied! address=0x510b75598 additional_latency=1990500 cycles
[ERROR_CYCLE] Error added at CPU cycle 2331166908, next at 2332314393, pending count: 1
[DRAM_CYCLE_ERROR] Cycle-based error applied! address=0x510bdbe48 additional_latency=1990500 cycles
[ERROR_CYCLE] Error added at CPU cycle 2332314393, next at 2334063851, pending count: 1
[DRAM_CYCLE_ERROR] Cycle-based error applied! address=0xce3c82940 additional_latency=1990500 cycles
[ERROR_CYCLE] Error added at CPU cycle 2334063851, next at 2375625705, pending count: 1
[DRAM_CYCLE_ERROR] Cycle-based error applied! address=0xce3dc43d0 additional_latency=1990500 cycles
Heartbeat CPU 0 instructions: 900000137 cycles: 2341270735 heartbeat IPC: 0.3854 cumulative IPC: 0.3844 (Simulation time: 03 hr 41 min 20 sec)
Heartbeat CPU 0 instructions: 910000140 cycles: 2367153555 heartbeat IPC: 0.3864 cumulative IPC: 0.3844 (Simulation time: 03 hr 43 min 42 sec)
[ERROR_CYCLE] Error added at CPU cycle 2375625705, next at 2388203853, pending count: 1
[DRAM_CYCLE_ERROR] Cycle-based error applied! address=0xa84b6b9d0 additional_latency=1990500 cycles
[ERROR_CYCLE] Error added at CPU cycle 2388203853, next at 2394260406, pending count: 1
[DRAM_CYCLE_ERROR] Cycle-based error applied! address=0xe42671e90 additional_latency=1990500 cycles
Heartbeat CPU 0 instructions: 920000140 cycles: 2393037050 heartbeat IPC: 0.3863 cumulative IPC: 0.3844 (Simulation time: 03 hr 45 min 47 sec)
[ERROR_CYCLE] Error added at CPU cycle 2394260407, next at 2419140556, pending count: 1
[DRAM_CYCLE_ERROR] Cycle-based error applied! address=0x5dac3b70 additional_latency=1990500 cycles
Heartbeat CPU 0 instructions: 930000140 cycles: 2418912202 heartbeat IPC: 0.3865 cumulative IPC: 0.3845 (Simulation time: 03 hr 48 min 25 sec)
[ERROR_CYCLE] Error added at CPU cycle 2419140557, next at 2424145521, pending count: 1
[DRAM_CYCLE_ERROR] Cycle-based error applied! address=0x7020c3d88 additional_latency=1990500 cycles
[ERROR_CYCLE] Error added at CPU cycle 2424145521, next at 2429301214, pending count: 1
[DRAM_CYCLE_ERROR] Cycle-based error applied! address=0x2a4fa0258 additional_latency=1990500 cycles
[ERROR_CYCLE] Error added at CPU cycle 2429301214, next at 2462176563, pending count: 1
[DRAM_CYCLE_ERROR] Cycle-based error applied! address=0x8b141f840 additional_latency=1990500 cycles
Heartbeat CPU 0 instructions: 940000144 cycles: 2444823175 heartbeat IPC: 0.3859 cumulative IPC: 0.3845 (Simulation time: 03 hr 51 min 05 sec)
[ERROR_CYCLE] Error added at CPU cycle 2462176564, next at 2471115500, pending count: 1
[DRAM_CYCLE_ERROR] Cycle-based error applied! address=0x43dbf2cd8 additional_latency=1990500 cycles
Heartbeat CPU 0 instructions: 950000147 cycles: 2470705276 heartbeat IPC: 0.3864 cumulative IPC: 0.3845 (Simulation time: 03 hr 53 min 19 sec)
[ERROR_CYCLE] Error added at CPU cycle 2471115500, next at 2482235696, pending count: 1
[DRAM_CYCLE_ERROR] Cycle-based error applied! address=0x17ddd0808 additional_latency=1990500 cycles
[ERROR_CYCLE] Error added at CPU cycle 2482235696, next at 2484445689, pending count: 1
[DRAM_CYCLE_ERROR] Cycle-based error applied! address=0x66d781ac0 additional_latency=1990500 cycles
[ERROR_CYCLE] Error added at CPU cycle 2484445689, next at 2487826583, pending count: 1
[DRAM_CYCLE_ERROR] Cycle-based error applied! address=0x92b275a08 additional_latency=1990500 cycles
[ERROR_CYCLE] Error added at CPU cycle 2487826583, next at 2492127373, pending count: 1
[DRAM_CYCLE_ERROR] Cycle-based error applied! address=0xe5244edc0 additional_latency=1990500 cycles
[ERROR_CYCLE] Error added at CPU cycle 2492127374, next at 2505689272, pending count: 1
[DRAM_CYCLE_ERROR] Cycle-based error applied! address=0x54c45390 additional_latency=1990500 cycles
Heartbeat CPU 0 instructions: 960000147 cycles: 2496617104 heartbeat IPC: 0.3859 cumulative IPC: 0.3845 (Simulation time: 03 hr 55 min 38 sec)
[ERROR_CYCLE] Error added at CPU cycle 2505689272, next at 2515529207, pending count: 1
[DRAM_CYCLE_ERROR] Cycle-based error applied! address=0x3039c1a08 additional_latency=1990500 cycles
[ERROR_CYCLE] Error added at CPU cycle 2515529208, next at 2520692507, pending count: 1
[DRAM_CYCLE_ERROR] Cycle-based error applied! address=0x5bfa47540 additional_latency=1990500 cycles
[ERROR_CYCLE] Error added at CPU cycle 2520692507, next at 2526977663, pending count: 1
[DRAM_CYCLE_ERROR] Cycle-based error applied! address=0x8b171b900 additional_latency=1990500 cycles
Heartbeat CPU 0 instructions: 970000149 cycles: 2522496915 heartbeat IPC: 0.3864 cumulative IPC: 0.3845 (Simulation time: 03 hr 58 min 17 sec)
[ERROR_CYCLE] Error added at CPU cycle 2526977664, next at 2534787706, pending count: 1
[DRAM_CYCLE_ERROR] Cycle-based error applied! address=0x51f1d0090 additional_latency=1990500 cycles
[ERROR_CYCLE] Error added at CPU cycle 2534787706, next at 2539634993, pending count: 1
[DRAM_CYCLE_ERROR] Cycle-based error applied! address=0x2405a5350 additional_latency=1990500 cycles
[ERROR_CYCLE] Error added at CPU cycle 2539634993, next at 2541357327, pending count: 1
[DRAM_CYCLE_ERROR] Cycle-based error applied! address=0x5bccfc688 additional_latency=1990500 cycles
[ERROR_CYCLE] Error added at CPU cycle 2541357328, next at 2563015622, pending count: 1
[DRAM_CYCLE_ERROR] Cycle-based error applied! address=0x5bcde8980 additional_latency=1990500 cycles
Heartbeat CPU 0 instructions: 980000150 cycles: 2548403312 heartbeat IPC: 0.386 cumulative IPC: 0.3846 (Simulation time: 04 hr 00 min 56 sec)
[ERROR_CYCLE] Error added at CPU cycle 2563015623, next at 2574248413, pending count: 1
[DRAM_CYCLE_ERROR] Cycle-based error applied! address=0xb67d99a48 additional_latency=1990500 cycles
[ERROR_CYCLE] Error added at CPU cycle 2574248413, next at 2584536777, pending count: 1
[DRAM_CYCLE_ERROR] Cycle-based error applied! address=0x77d4a0750 additional_latency=1990500 cycles
Heartbeat CPU 0 instructions: 990000150 cycles: 2574265412 heartbeat IPC: 0.3867 cumulative IPC: 0.3846 (Simulation time: 04 hr 03 min 26 sec)
[ERROR_CYCLE] Error added at CPU cycle 2584536777, next at 2633667804, pending count: 1
[DRAM_CYCLE_ERROR] Cycle-based error applied! address=0x69e85c8c0 additional_latency=1990500 cycles
Heartbeat CPU 0 instructions: 1000000152 cycles: 2600165764 heartbeat IPC: 0.3861 cumulative IPC: 0.3846 (Simulation time: 04 hr 05 min 39 sec)
Heartbeat CPU 0 instructions: 1010000153 cycles: 2626026539 heartbeat IPC: 0.3867 cumulative IPC: 0.3846 (Simulation time: 04 hr 08 min 18 sec)
[ERROR_CYCLE] Error added at CPU cycle 2633667805, next at 2637894515, pending count: 1
[DRAM_CYCLE_ERROR] Cycle-based error applied! address=0x3742d8388 additional_latency=1990500 cycles
[ERROR_CYCLE] Error added at CPU cycle 2637894516, next at 2648211880, pending count: 1
[DRAM_CYCLE_ERROR] Cycle-based error applied! address=0x9bfc8c8c8 additional_latency=1990500 cycles
[ERROR_CYCLE] Error added at CPU cycle 2648211880, next at 2649012483, pending count: 1
[DRAM_CYCLE_ERROR] Cycle-based error applied! address=0xd0d772c0 additional_latency=1990500 cycles
[ERROR_CYCLE] Error added at CPU cycle 2649012484, next at 2655650192, pending count: 1
[DRAM_CYCLE_ERROR] Cycle-based error applied! address=0xd0dc9750 additional_latency=1990500 cycles
Heartbeat CPU 0 instructions: 1020000155 cycles: 2651913457 heartbeat IPC: 0.3863 cumulative IPC: 0.3846 (Simulation time: 04 hr 10 min 56 sec)
[ERROR_CYCLE] Error added at CPU cycle 2655650192, next at 2663525915, pending count: 1
[DRAM_CYCLE_ERROR] Cycle-based error applied! address=0x284ddb8c0 additional_latency=1990500 cycles
[ERROR_CYCLE] Error added at CPU cycle 2663525915, next at 2686778622, pending count: 1
[DRAM_CYCLE_ERROR] Cycle-based error applied! address=0xaeef3bcc0 additional_latency=1990500 cycles
Heartbeat CPU 0 instructions: 1030000155 cycles: 2677796494 heartbeat IPC: 0.3864 cumulative IPC: 0.3846 (Simulation time: 04 hr 13 min 34 sec)
[ERROR_CYCLE] Error added at CPU cycle 2686778623, next at 2706990306, pending count: 1
[DRAM_CYCLE_ERROR] Cycle-based error applied! address=0x895daaad8 additional_latency=1990500 cycles
Heartbeat CPU 0 instructions: 1040000157 cycles: 2703676746 heartbeat IPC: 0.3864 cumulative IPC: 0.3847 (Simulation time: 04 hr 16 min 12 sec)
[ERROR_CYCLE] Error added at CPU cycle 2706990306, next at 2707500157, pending count: 1
[DRAM_CYCLE_ERROR] Cycle-based error applied! address=0xc61f9b808 additional_latency=1990500 cycles
[ERROR_CYCLE] Error added at CPU cycle 2707500157, next at 2711785951, pending count: 1
[DRAM_CYCLE_ERROR] Cycle-based error applied! address=0xc61fcfa90 additional_latency=1990500 cycles
[ERROR_CYCLE] Error added at CPU cycle 2711785952, next at 2722419252, pending count: 1
[DRAM_CYCLE_ERROR] Cycle-based error applied! address=0x46e99b4c8 additional_latency=1990500 cycles
[ERROR_CYCLE] Error added at CPU cycle 2722419253, next at 2734191801, pending count: 1
[DRAM_CYCLE_ERROR] Cycle-based error applied! address=0x78f1194e0 additional_latency=1990500 cycles
Heartbeat CPU 0 instructions: 1050000160 cycles: 2729567935 heartbeat IPC: 0.3862 cumulative IPC: 0.3847 (Simulation time: 04 hr 18 min 51 sec)
[ERROR_CYCLE] Error added at CPU cycle 2734191802, next at 2762580882, pending count: 1
[DRAM_CYCLE_ERROR] Cycle-based error applied! address=0x2d0314f48 additional_latency=1990500 cycles
Heartbeat CPU 0 instructions: 1060000161 cycles: 2755456537 heartbeat IPC: 0.3863 cumulative IPC: 0.3847 (Simulation time: 04 hr 21 min 24 sec)
[ERROR_CYCLE] Error added at CPU cycle 2762580882, next at 2768610152, pending count: 1
[DRAM_CYCLE_ERROR] Cycle-based error applied! address=0x29afda0a0 additional_latency=1990500 cycles
[ERROR_CYCLE] Error added at CPU cycle 2768610153, next at 2784603218, pending count: 1
[DRAM_CYCLE_ERROR] Cycle-based error applied! address=0x9f5772ec0 additional_latency=1990500 cycles
Heartbeat CPU 0 instructions: 1070000162 cycles: 2781333765 heartbeat IPC: 0.3864 cumulative IPC: 0.3847 (Simulation time: 04 hr 23 min 41 sec)
[ERROR_CYCLE] Error added at CPU cycle 2784603218, next at 2791831024, pending count: 1
[DRAM_CYCLE_ERROR] Cycle-based error applied! address=0xbc2f5cfc8 additional_latency=1990500 cycles
[ERROR_CYCLE] Error added at CPU cycle 2791831025, next at 2801792805, pending count: 1
[DRAM_CYCLE_ERROR] Cycle-based error applied! address=0x4c4779e48 additional_latency=1990500 cycles
[ERROR_CYCLE] Error added at CPU cycle 2801792805, next at 2802263784, pending count: 1
[DRAM_CYCLE_ERROR] Cycle-based error applied! address=0xbbed156e0 additional_latency=1990500 cycles
[ERROR_CYCLE] Error added at CPU cycle 2802263784, next at 2805327961, pending count: 1
[DRAM_CYCLE_ERROR] Cycle-based error applied! address=0xbbed4dc48 additional_latency=1990500 cycles
[ERROR_CYCLE] Error added at CPU cycle 2805327962, next at 2808931246, pending count: 1
[DRAM_CYCLE_ERROR] Cycle-based error applied! address=0xef6eed490 additional_latency=1990500 cycles
Heartbeat CPU 0 instructions: 1080000163 cycles: 2807253290 heartbeat IPC: 0.3858 cumulative IPC: 0.3847 (Simulation time: 04 hr 25 min 34 sec)
[ERROR_CYCLE] Error added at CPU cycle 2808931247, next at 2816309239, pending count: 1
[DRAM_CYCLE_ERROR] Cycle-based error applied! address=0xd49efec08 additional_latency=1990500 cycles
[ERROR_CYCLE] Error added at CPU cycle 2816309240, next at 2826601536, pending count: 1
[DRAM_CYCLE_ERROR] Cycle-based error applied! address=0x234ebfc88 additional_latency=1990500 cycles
[ERROR_CYCLE] Error added at CPU cycle 2826601536, next at 2860916053, pending count: 1
[DRAM_CYCLE_ERROR] Cycle-based error applied! address=0xfe183af50 additional_latency=1990500 cycles
Heartbeat CPU 0 instructions: 1090000163 cycles: 2833145892 heartbeat IPC: 0.3862 cumulative IPC: 0.3847 (Simulation time: 04 hr 27 min 56 sec)
Heartbeat CPU 0 instructions: 1100000164 cycles: 2859062276 heartbeat IPC: 0.3859 cumulative IPC: 0.3847 (Simulation time: 04 hr 30 min 12 sec)
[ERROR_CYCLE] Error added at CPU cycle 2860916053, next at 2870223242, pending count: 1
[DRAM_CYCLE_ERROR] Cycle-based error applied! address=0x9f7b7f4a0 additional_latency=1990500 cycles
[ERROR_CYCLE] Error added at CPU cycle 2870223243, next at 2884087618, pending count: 1
[DRAM_CYCLE_ERROR] Cycle-based error applied! address=0x4a0683308 additional_latency=1990500 cycles
[ERROR_CYCLE] Error added at CPU cycle 2884087618, next at 2892827392, pending count: 1
[DRAM_CYCLE_ERROR] Cycle-based error applied! address=0x442c5f3c8 additional_latency=1990500 cycles
Heartbeat CPU 0 instructions: 1110000164 cycles: 2884979207 heartbeat IPC: 0.3858 cumulative IPC: 0.3848 (Simulation time: 04 hr 32 min 44 sec)
[ERROR_CYCLE] Error added at CPU cycle 2892827392, next at 2899902752, pending count: 1
[DRAM_CYCLE_ERROR] Cycle-based error applied! address=0x4ce8d5c0 additional_latency=1990500 cycles
[ERROR_CYCLE] Error added at CPU cycle 2899902753, next at 2921677388, pending count: 1
[DRAM_CYCLE_ERROR] Cycle-based error applied! address=0xfa6592f60 additional_latency=1990500 cycles
Heartbeat CPU 0 instructions: 1120000166 cycles: 2910870048 heartbeat IPC: 0.3862 cumulative IPC: 0.3848 (Simulation time: 04 hr 35 min 18 sec)
[ERROR_CYCLE] Error added at CPU cycle 2921677388, next at 2926276412, pending count: 1
[DRAM_CYCLE_ERROR] Cycle-based error applied! address=0xdd8704f10 additional_latency=1990500 cycles
[ERROR_CYCLE] Error added at CPU cycle 2926276412, next at 2942166062, pending count: 1
[DRAM_CYCLE_ERROR] Cycle-based error applied! address=0xac6575448 additional_latency=1990500 cycles
Heartbeat CPU 0 instructions: 1130000166 cycles: 2936753370 heartbeat IPC: 0.3863 cumulative IPC: 0.3848 (Simulation time: 04 hr 37 min 25 sec)
[ERROR_CYCLE] Error added at CPU cycle 2942166063, next at 2942802865, pending count: 1
[DRAM_CYCLE_ERROR] Cycle-based error applied! address=0x5cf5a0500 additional_latency=1990500 cycles
[ERROR_CYCLE] Error added at CPU cycle 2942802866, next at 2957660694, pending count: 1
[DRAM_CYCLE_ERROR] Cycle-based error applied! address=0x5cf5fa500 additional_latency=1990500 cycles
[ERROR_CYCLE] Error added at CPU cycle 2957660694, next at 2973123696, pending count: 1
[DRAM_CYCLE_ERROR] Cycle-based error applied! address=0xc02114b18 additional_latency=1990500 cycles
Heartbeat CPU 0 instructions: 1140000169 cycles: 2962638604 heartbeat IPC: 0.3863 cumulative IPC: 0.3848 (Simulation time: 04 hr 39 min 52 sec)
[ERROR_CYCLE] Error added at CPU cycle 2973123697, next at 2986952310, pending count: 1
[DRAM_CYCLE_ERROR] Cycle-based error applied! address=0xc61d354c8 additional_latency=1990500 cycles
[ERROR_CYCLE] Error added at CPU cycle 2986952310, next at 3024457243, pending count: 1
[DRAM_CYCLE_ERROR] Cycle-based error applied! address=0xe6f0d4688 additional_latency=1990500 cycles
Heartbeat CPU 0 instructions: 1150000169 cycles: 2988585746 heartbeat IPC: 0.3854 cumulative IPC: 0.3848 (Simulation time: 04 hr 42 min 13 sec)
Heartbeat CPU 0 instructions: 1160000171 cycles: 3014478705 heartbeat IPC: 0.3862 cumulative IPC: 0.3848 (Simulation time: 04 hr 44 min 26 sec)
[ERROR_CYCLE] Error added at CPU cycle 3024457243, next at 3025131631, pending count: 1
[DRAM_CYCLE_ERROR] Cycle-based error applied! address=0x6b69fd2c0 additional_latency=1990500 cycles
[ERROR_CYCLE] Error added at CPU cycle 3025131632, next at 3039063732, pending count: 1
[DRAM_CYCLE_ERROR] Cycle-based error applied! address=0x6b69b5b18 additional_latency=1990500 cycles
[ERROR_CYCLE] Error added at CPU cycle 3039063732, next at 3042156612, pending count: 1
[DRAM_CYCLE_ERROR] Cycle-based error applied! address=0xb4e9c0a00 additional_latency=1990500 cycles
Heartbeat CPU 0 instructions: 1170000172 cycles: 3040155997 heartbeat IPC: 0.3894 cumulative IPC: 0.3848 (Simulation time: 04 hr 47 min 02 sec)
[ERROR_CYCLE] Error added at CPU cycle 3042156612, next at 3049153556, pending count: 1
[DRAM_CYCLE_ERROR] Cycle-based error applied! address=0xb4e88ad98 additional_latency=1990500 cycles
[ERROR_CYCLE] Error added at CPU cycle 3049153557, next at 3071479979, pending count: 1
[DRAM_CYCLE_ERROR] Cycle-based error applied! address=0x341a84290 additional_latency=1990500 cycles
Heartbeat CPU 0 instructions: 1180000173 cycles: 3066000456 heartbeat IPC: 0.3869 cumulative IPC: 0.3849 (Simulation time: 04 hr 49 min 38 sec)
[ERROR_CYCLE] Error added at CPU cycle 3071479979, next at 3075438839, pending count: 1
[DRAM_CYCLE_ERROR] Cycle-based error applied! address=0xe6de10710 additional_latency=1990500 cycles
[ERROR_CYCLE] Error added at CPU cycle 3075438840, next at 3101604216, pending count: 1
[DRAM_CYCLE_ERROR] Cycle-based error applied! address=0xc95c46480 additional_latency=1990500 cycles
Heartbeat CPU 0 instructions: 1190000173 cycles: 3091894085 heartbeat IPC: 0.3862 cumulative IPC: 0.3849 (Simulation time: 04 hr 52 min 15 sec)
[ERROR_CYCLE] Error added at CPU cycle 3101604217, next at 3105234572, pending count: 1
[DRAM_CYCLE_ERROR] Cycle-based error applied! address=0x5fd2ec750 additional_latency=1990500 cycles
[ERROR_CYCLE] Error added at CPU cycle 3105234572, next at 3120731691, pending count: 1
[DRAM_CYCLE_ERROR] Cycle-based error applied! address=0xcdd011d0 additional_latency=1990500 cycles
Heartbeat CPU 0 instructions: 1200000173 cycles: 3117763474 heartbeat IPC: 0.3866 cumulative IPC: 0.3849 (Simulation time: 04 hr 54 min 53 sec)
[ERROR_CYCLE] Error added at CPU cycle 3120731692, next at 3148717972, pending count: 1
[DRAM_CYCLE_ERROR] Cycle-based error applied! address=0x80b95ead0 additional_latency=1990500 cycles
Heartbeat CPU 0 instructions: 1210000174 cycles: 3143644703 heartbeat IPC: 0.3864 cumulative IPC: 0.3849 (Simulation time: 04 hr 57 min 31 sec)
[ERROR_CYCLE] Error added at CPU cycle 3148717972, next at 3149188062, pending count: 1
[DRAM_CYCLE_ERROR] Cycle-based error applied! address=0xa9a66e480 additional_latency=1990500 cycles
[ERROR_CYCLE] Error added at CPU cycle 3149188062, next at 3162239438, pending count: 1
[DRAM_CYCLE_ERROR] Cycle-based error applied! address=0xa9a6b7108 additional_latency=1990500 cycles
[ERROR_CYCLE] Error added at CPU cycle 3162239438, next at 3169530421, pending count: 1
[DRAM_CYCLE_ERROR] Cycle-based error applied! address=0xe23bfdac8 additional_latency=1990500 cycles
[ERROR_CYCLE] Error added at CPU cycle 3169530422, next at 3171491275, pending count: 1
[DRAM_CYCLE_ERROR] Cycle-based error applied! address=0x9464a3e08 additional_latency=1990500 cycles
Heartbeat CPU 0 instructions: 1220000178 cycles: 3169546521 heartbeat IPC: 0.3861 cumulative IPC: 0.3849 (Simulation time: 04 hr 59 min 53 sec)
[ERROR_CYCLE] Error added at CPU cycle 3171491275, next at 3174258426, pending count: 1
[...]
[ERROR_CYCLE] Error added at CPU cycle 4670635255, next at 4677468434, pending count: 1
[DRAM_CYCLE_ERROR] Cycle-based error applied! address=0xabf767d18 additional_latency=1990500 cycles
Heartbeat CPU 0 instructions: 1800000252 cycles: 4671838666 heartbeat IPC: 0.3872 cumulative IPC: 0.3853 (Simulation time: 07 hr 20 min 13 sec)
[ERROR_CYCLE] Error added at CPU cycle 4677468435, next at 4717250780, pending count: 1
[DRAM_CYCLE_ERROR] Cycle-based error applied! address=0x3075aa498 additional_latency=1990500 cycles
Heartbeat CPU 0 instructions: 1810000253 cycles: 4697626063 heartbeat IPC: 0.3878 cumulative IPC: 0.3853 (Simulation time: 07 hr 22 min 28 sec)
[ERROR_CYCLE] Error added at CPU cycle 4717250781, next at 4720340496, pending count: 1
[DRAM_CYCLE_ERROR] Cycle-based error applied! address=0xdba5550c0 additional_latency=1990500 cycles
[ERROR_CYCLE] Error added at CPU cycle 4720340496, next at 4737956370, pending count: 1
[DRAM_CYCLE_ERROR] Cycle-based error applied! address=0x996f6bec8 additional_latency=1990500 cycles
Heartbeat CPU 0 instructions: 1820000255 cycles: 4723407502 heartbeat IPC: 0.3879 cumulative IPC: 0.3853 (Simulation time: 07 hr 24 min 55 sec)
[ERROR_CYCLE] Error added at CPU cycle 4737956371, next at 4740979191, pending count: 1
[DRAM_CYCLE_ERROR] Cycle-based error applied! address=0x70cf41ec0 additional_latency=1990500 cycles
[ERROR_CYCLE] Error added at CPU cycle 4740979191, next at 4769627417, pending count: 1
[DRAM_CYCLE_ERROR] Cycle-based error applied! address=0xe704f51c0 additional_latency=1990500 cycles
Heartbeat CPU 0 instructions: 1830000257 cycles: 4749222261 heartbeat IPC: 0.3874 cumulative IPC: 0.3853 (Simulation time: 07 hr 27 min 33 sec)
[ERROR_CYCLE] Error added at CPU cycle 4769627417, next at 4771128509, pending count: 1
[DRAM_CYCLE_ERROR] Cycle-based error applied! address=0xadd8b10a0 additional_latency=1990500 cycles
[ERROR_CYCLE] Error added at CPU cycle 4771128509, next at 4793885635, pending count: 1
[DRAM_CYCLE_ERROR] Cycle-based error applied! address=0xadd9bf550 additional_latency=1990500 cycles
Heartbeat CPU 0 instructions: 1840000259 cycles: 4775006540 heartbeat IPC: 0.3878 cumulative IPC: 0.3853 (Simulation time: 07 hr 30 min 12 sec)
[ERROR_CYCLE] Error added at CPU cycle 4793885635, next at 4796369366, pending count: 1
[DRAM_CYCLE_ERROR] Cycle-based error applied! address=0x9326f9ae0 additional_latency=1990500 cycles
[ERROR_CYCLE] Error added at CPU cycle 4796369367, next at 4796867509, pending count: 1
[DRAM_CYCLE_ERROR] Cycle-based error applied! address=0xf66a88260 additional_latency=1990500 cycles
[ERROR_CYCLE] Error added at CPU cycle 4796867510, next at 4802649332, pending count: 1
[DRAM_CYCLE_ERROR] Cycle-based error applied! address=0x5d4f3ed50 additional_latency=1990500 cycles
Heartbeat CPU 0 instructions: 1850000259 cycles: 4800810445 heartbeat IPC: 0.3875 cumulative IPC: 0.3854 (Simulation time: 07 hr 32 min 39 sec)
[ERROR_CYCLE] Error added at CPU cycle 4802649333, next at 4807151481, pending count: 1
[DRAM_CYCLE_ERROR] Cycle-based error applied! address=0x86d54da00 additional_latency=1990500 cycles
[ERROR_CYCLE] Error added at CPU cycle 4807151481, next at 4812584869, pending count: 1
[DRAM_CYCLE_ERROR] Cycle-based error applied! address=0x9f79c800 additional_latency=1990500 cycles
[ERROR_CYCLE] Error added at CPU cycle 4812584869, next at 4819223033, pending count: 1
[DRAM_CYCLE_ERROR] Cycle-based error applied! address=0xa7ad1a518 additional_latency=1990500 cycles
[ERROR_CYCLE] Error added at CPU cycle 4819223034, next at 4850186596, pending count: 1
[DRAM_CYCLE_ERROR] Cycle-based error applied! address=0x1eee26e80 additional_latency=1990500 cycles
Heartbeat CPU 0 instructions: 1860000262 cycles: 4826631500 heartbeat IPC: 0.3873 cumulative IPC: 0.3854 (Simulation time: 07 hr 34 min 36 sec)
[ERROR_CYCLE] Error added at CPU cycle 4850186596, next at 4863375215, pending count: 1
[DRAM_CYCLE_ERROR] Cycle-based error applied! address=0x80d26ab08 additional_latency=1990500 cycles
Heartbeat CPU 0 instructions: 1870000263 cycles: 4852435321 heartbeat IPC: 0.3875 cumulative IPC: 0.3854 (Simulation time: 07 hr 37 min 16 sec)
[ERROR_CYCLE] Error added at CPU cycle 4863375216, next at 4887016179, pending count: 1
[DRAM_CYCLE_ERROR] Cycle-based error applied! address=0xa38d92f40 additional_latency=1990500 cycles
Heartbeat CPU 0 instructions: 1880000264 cycles: 4878246237 heartbeat IPC: 0.3874 cumulative IPC: 0.3854 (Simulation time: 07 hr 39 min 09 sec)
[ERROR_CYCLE] Error added at CPU cycle 4887016179, next at 4892532675, pending count: 1
[DRAM_CYCLE_ERROR] Cycle-based error applied! address=0xd15b59860 additional_latency=1990500 cycles
[ERROR_CYCLE] Error added at CPU cycle 4892532676, next at 4913593093, pending count: 1
[DRAM_CYCLE_ERROR] Cycle-based error applied! address=0x9eaf0b00 additional_latency=1990500 cycles
Heartbeat CPU 0 instructions: 1890000267 cycles: 4904042968 heartbeat IPC: 0.3876 cumulative IPC: 0.3854 (Simulation time: 07 hr 41 min 43 sec)
[ERROR_CYCLE] Error added at CPU cycle 4913593093, next at 4922620728, pending count: 1
[DRAM_CYCLE_ERROR] Cycle-based error applied! address=0x90757ad90 additional_latency=1990500 cycles
[ERROR_CYCLE] Error added at CPU cycle 4922620728, next at 4926082078, pending count: 1
[DRAM_CYCLE_ERROR] Cycle-based error applied! address=0xb0fc22a50 additional_latency=1990500 cycles
[ERROR_CYCLE] Error added at CPU cycle 4926082079, next at 4928751811, pending count: 1
[DRAM_CYCLE_ERROR] Cycle-based error applied! address=0x85c81d990 additional_latency=1990500 cycles
[ERROR_CYCLE] Error added at CPU cycle 4928751812, next at 4929286446, pending count: 1
[DRAM_CYCLE_ERROR] Cycle-based error applied! address=0x85c983fc8 additional_latency=1990500 cycles
[ERROR_CYCLE] Error added at CPU cycle 4929286447, next at 4960897533, pending count: 1
[DRAM_CYCLE_ERROR] Cycle-based error applied! address=0x85c9bac80 additional_latency=1990500 cycles
Heartbeat CPU 0 instructions: 1900000271 cycles: 4929881071 heartbeat IPC: 0.387 cumulative IPC: 0.3854 (Simulation time: 07 hr 44 min 24 sec)
Heartbeat CPU 0 instructions: 1910000274 cycles: 4955679849 heartbeat IPC: 0.3876 cumulative IPC: 0.3854 (Simulation time: 07 hr 46 min 26 sec)
[ERROR_CYCLE] Error added at CPU cycle 4960897533, next at 4961744702, pending count: 1
[DRAM_CYCLE_ERROR] Cycle-based error applied! address=0x4bd63ed40 additional_latency=1990500 cycles
[ERROR_CYCLE] Error added at CPU cycle 4961744702, next at 4975713151, pending count: 1
[DRAM_CYCLE_ERROR] Cycle-based error applied! address=0x4bd61ae80 additional_latency=1990500 cycles
[ERROR_CYCLE] Error added at CPU cycle 4975713152, next at 4979988009, pending count: 1
[DRAM_CYCLE_ERROR] Cycle-based error applied! address=0xcd92c3bd0 additional_latency=1990500 cycles
[ERROR_CYCLE] Error added at CPU cycle 4979988009, next at 4988154640, pending count: 1
[DRAM_CYCLE_ERROR] Cycle-based error applied! address=0x54ba0790 additional_latency=1990500 cycles
Heartbeat CPU 0 instructions: 1920000278 cycles: 4981449517 heartbeat IPC: 0.3881 cumulative IPC: 0.3854 (Simulation time: 07 hr 48 min 24 sec)
[ERROR_CYCLE] Error added at CPU cycle 4988154640, next at 4995811884, pending count: 1
[DRAM_CYCLE_ERROR] Cycle-based error applied! address=0xa4383be08 additional_latency=1990500 cycles
[ERROR_CYCLE] Error added at CPU cycle 4995811884, next at 5004195501, pending count: 1
[DRAM_CYCLE_ERROR] Cycle-based error applied! address=0xbfd681f98 additional_latency=1990500 cycles
[ERROR_CYCLE] Error added at CPU cycle 5004195502, next at 5013230606, pending count: 1
[DRAM_CYCLE_ERROR] Cycle-based error applied! address=0x350a8c110 additional_latency=1990500 cycles
Heartbeat CPU 0 instructions: 1930000280 cycles: 5007268802 heartbeat IPC: 0.3873 cumulative IPC: 0.3854 (Simulation time: 07 hr 50 min 12 sec)
[ERROR_CYCLE] Error added at CPU cycle 5013230606, next at 5017914935, pending count: 1
[DRAM_CYCLE_ERROR] Cycle-based error applied! address=0xd2bce29c8 additional_latency=1990500 cycles
[ERROR_CYCLE] Error added at CPU cycle 5017914936, next at 5020069964, pending count: 1
[DRAM_CYCLE_ERROR] Cycle-based error applied! address=0x6da95ccd0 additional_latency=1990500 cycles
[ERROR_CYCLE] Error added at CPU cycle 5020069964, next at 5029804625, pending count: 1
[DRAM_CYCLE_ERROR] Cycle-based error applied! address=0xbc42c0400 additional_latency=1990500 cycles
[ERROR_CYCLE] Error added at CPU cycle 5029804625, next at 5032375575, pending count: 1
[DRAM_CYCLE_ERROR] Cycle-based error applied! address=0x38a46f00 additional_latency=1990500 cycles
[ERROR_CYCLE] Error added at CPU cycle 5032375575, next at 5048880928, pending count: 1
[DRAM_CYCLE_ERROR] Cycle-based error applied! address=0x37661cc8 additional_latency=1990500 cycles
Heartbeat CPU 0 instructions: 1940000280 cycles: 5033088408 heartbeat IPC: 0.3873 cumulative IPC: 0.3854 (Simulation time: 07 hr 51 min 55 sec)
[ERROR_CYCLE] Error added at CPU cycle 5048880928, next at 5051078320, pending count: 1
[DRAM_CYCLE_ERROR] Cycle-based error applied! address=0xe15c52620 additional_latency=1990500 cycles
[ERROR_CYCLE] Error added at CPU cycle 5051078321, next at 5058467297, pending count: 1
[DRAM_CYCLE_ERROR] Cycle-based error applied! address=0x14c227b00 additional_latency=1990500 cycles
[ERROR_CYCLE] Error added at CPU cycle 5058467298, next at 5061633817, pending count: 1
[DRAM_CYCLE_ERROR] Cycle-based error applied! address=0x1a4980cc0 additional_latency=1990500 cycles
Heartbeat CPU 0 instructions: 1950000281 cycles: 5058864954 heartbeat IPC: 0.3879 cumulative IPC: 0.3855 (Simulation time: 07 hr 53 min 36 sec)
[ERROR_CYCLE] Error added at CPU cycle 5061633817, next at 5074762835, pending count: 1
[DRAM_CYCLE_ERROR] Cycle-based error applied! address=0xb6928d448 additional_latency=1990500 cycles
[ERROR_CYCLE] Error added at CPU cycle 5074762835, next at 5090219021, pending count: 1
[DRAM_CYCLE_ERROR] Cycle-based error applied! address=0x4d7b7d848 additional_latency=1990500 cycles
Heartbeat CPU 0 instructions: 1960000284 cycles: 5084641132 heartbeat IPC: 0.388 cumulative IPC: 0.3855 (Simulation time: 07 hr 55 min 16 sec)
[ERROR_CYCLE] Error added at CPU cycle 5090219021, next at 5091766488, pending count: 1
[DRAM_CYCLE_ERROR] Cycle-based error applied! address=0x5df5d4bd0 additional_latency=1990500 cycles
[ERROR_CYCLE] Error added at CPU cycle 5091766489, next at 5100458909, pending count: 1
[DRAM_CYCLE_ERROR] Cycle-based error applied! address=0x6544d7700 additional_latency=1990500 cycles
[ERROR_CYCLE] Error added at CPU cycle 5100458909, next at 5101313334, pending count: 1
[DRAM_CYCLE_ERROR] Cycle-based error applied! address=0x2f85a90d0 additional_latency=1990500 cycles
[ERROR_CYCLE] Error added at CPU cycle 5101313335, next at 5103706184, pending count: 1
[DRAM_CYCLE_ERROR] Cycle-based error applied! address=0x6672648c0 additional_latency=1990500 cycles
[ERROR_CYCLE] Error added at CPU cycle 5103706185, next at 5112185508, pending count: 1
[DRAM_CYCLE_ERROR] Cycle-based error applied! address=0x2f85197c8 additional_latency=1990500 cycles
Heartbeat CPU 0 instructions: 1970000284 cycles: 5110447202 heartbeat IPC: 0.3875 cumulative IPC: 0.3855 (Simulation time: 07 hr 57 min 13 sec)
[ERROR_CYCLE] Error added at CPU cycle 5112185508, next at 5132424364, pending count: 1
[DRAM_CYCLE_ERROR] Cycle-based error applied! address=0x2f84a15c0 additional_latency=1990500 cycles
[ERROR_CYCLE] Error added at CPU cycle 5132424364, next at 5134233713, pending count: 1
[DRAM_CYCLE_ERROR] Cycle-based error applied! address=0x686d42f90 additional_latency=1990500 cycles
[ERROR_CYCLE] Error added at CPU cycle 5134233713, next at 5142024645, pending count: 1
[DRAM_CYCLE_ERROR] Cycle-based error applied! address=0x93e26f10 additional_latency=1990500 cycles
Heartbeat CPU 0 instructions: 1980000285 cycles: 5136264977 heartbeat IPC: 0.3873 cumulative IPC: 0.3855 (Simulation time: 07 hr 58 min 59 sec)
[ERROR_CYCLE] Error added at CPU cycle 5142024645, next at 5147531931, pending count: 1
[DRAM_CYCLE_ERROR] Cycle-based error applied! address=0x100ebdc48 additional_latency=1990500 cycles
[ERROR_CYCLE] Error added at CPU cycle 5147531931, next at 5148843783, pending count: 1
[DRAM_CYCLE_ERROR] Cycle-based error applied! address=0x8982c91a0 additional_latency=1990500 cycles
[ERROR_CYCLE] Error added at CPU cycle 5148843784, next at 5148975692, pending count: 1
[DRAM_CYCLE_ERROR] Cycle-based error applied! address=0x8983927d0 additional_latency=1990500 cycles
[ERROR_CYCLE] Error added at CPU cycle 5148975693, next at 5157157168, pending count: 1
[DRAM_CYCLE_ERROR] Cycle-based error applied! address=0x100e3fe10 additional_latency=1990500 cycles
[ERROR_CYCLE] Error added at CPU cycle 5157157168, next at 5181197506, pending count: 1
[DRAM_CYCLE_ERROR] Cycle-based error applied! address=0xed887c110 additional_latency=1990500 cycles
Heartbeat CPU 0 instructions: 1990000285 cycles: 5162105059 heartbeat IPC: 0.387 cumulative IPC: 0.3855 (Simulation time: 08 hr 00 min 53 sec)
[ERROR_CYCLE] Error added at CPU cycle 5181197507, next at 5209930148, pending count: 1
[DRAM_CYCLE_ERROR] Cycle-based error applied! address=0xb4d7d8860 additional_latency=1990500 cycles

=== ERROR PAGE STATISTICS ===
Mode: CYCLE
Error Cycle Interval: 10000000 CPU cycles
Total Error Accesses: 536
==============================
Simulation finished CPU 0 instructions: 1999999981 cycles: 5187887818 cumulative IPC: 0.3855 (Simulation time: 08 hr 02 min 45 sec)
Simulation complete CPU 0 instructions: 1999999981 cycles: 5187887818 cumulative IPC: 0.3855 (Simulation time: 08 hr 02 min 45 sec)

ChampSim completed all CPUs

=== Simulation ===
CPU 0 runs test_traces/602.gcc_s-1850B.champsimtrace.xz

Region of Interest Statistics

CPU 0 cumulative IPC: 0.3855 instructions: 1999999981 cycles: 5187887818
CPU 0 Branch Prediction Accuracy: 92.26% MPKI: 19.84 Average ROB Occupancy at Mispredict: 28.45
Branch type MPKI
BRANCH_DIRECT_JUMP: 0.0104
BRANCH_INDIRECT: 0
BRANCH_CONDITIONAL: 19.83
BRANCH_DIRECT_CALL: 8.5e-06
BRANCH_INDIRECT_CALL: 0
BRANCH_RETURN: 7e-06

cpu0->cpu0_STLB TOTAL        ACCESS:      15986 HIT:      12647 MISS:       3339 MSHR_MERGE:          0
cpu0->cpu0_STLB LOAD         ACCESS:      15986 HIT:      12647 MISS:       3339 MSHR_MERGE:          0
cpu0->cpu0_STLB RFO          ACCESS:          0 HIT:          0 MISS:          0 MSHR_MERGE:          0
cpu0->cpu0_STLB PREFETCH     ACCESS:          0 HIT:          0 MISS:          0 MSHR_MERGE:          0
cpu0->cpu0_STLB WRITE        ACCESS:          0 HIT:          0 MISS:          0 MSHR_MERGE:          0
cpu0->cpu0_STLB TRANSLATION  ACCESS:          0 HIT:          0 MISS:          0 MSHR_MERGE:          0
cpu0->cpu0_STLB PREFETCH REQUESTED:          0 ISSUED:          0 USEFUL:          0 USELESS:          0
cpu0->cpu0_STLB AVERAGE MISS LATENCY: 6454 cycles
cpu0->cpu0_L2C TOTAL        ACCESS:   48249160 HIT:   12598010 MISS:   35651150 MSHR_MERGE:          0
cpu0->cpu0_L2C LOAD         ACCESS:   48104278 HIT:   12470011 MISS:   35634267 MSHR_MERGE:          0
cpu0->cpu0_L2C RFO          ACCESS:      16943 HIT:        109 MISS:      16834 MSHR_MERGE:          0
cpu0->cpu0_L2C PREFETCH     ACCESS:          0 HIT:          0 MISS:          0 MSHR_MERGE:          0
cpu0->cpu0_L2C WRITE        ACCESS:     127939 HIT:     127890 MISS:         49 MSHR_MERGE:          0
cpu0->cpu0_L2C TRANSLATION  ACCESS:          0 HIT:          0 MISS:          0 MSHR_MERGE:          0
cpu0->cpu0_L2C PREFETCH REQUESTED:          0 ISSUED:          0 USEFUL:          0 USELESS:          0
cpu0->cpu0_L2C AVERAGE MISS LATENCY: 93.22 cycles
cpu0->cpu0_L1I TOTAL        ACCESS:      78335 HIT:      78275 MISS:         60 MSHR_MERGE:          3
cpu0->cpu0_L1I LOAD         ACCESS:      78335 HIT:      78275 MISS:         60 MSHR_MERGE:          3
cpu0->cpu0_L1I RFO          ACCESS:          0 HIT:          0 MISS:          0 MSHR_MERGE:          0
cpu0->cpu0_L1I PREFETCH     ACCESS:          0 HIT:          0 MISS:          0 MSHR_MERGE:          0
cpu0->cpu0_L1I WRITE        ACCESS:          0 HIT:          0 MISS:          0 MSHR_MERGE:          0
cpu0->cpu0_L1I TRANSLATION  ACCESS:          0 HIT:          0 MISS:          0 MSHR_MERGE:          0
cpu0->cpu0_L1I PREFETCH REQUESTED:          0 ISSUED:          0 USEFUL:          0 USELESS:          0
cpu0->cpu0_L1I AVERAGE MISS LATENCY: 118.9 cycles
cpu0->cpu0_L1D TOTAL        ACCESS:  605689849 HIT:  522317880 MISS:   83371969 MSHR_MERGE:   35250805
cpu0->cpu0_L1D LOAD         ACCESS:  433067292 HIT:  349712710 MISS:   83354582 MSHR_MERGE:   35250361
cpu0->cpu0_L1D RFO          ACCESS:          0 HIT:          0 MISS:          0 MSHR_MERGE:          0
cpu0->cpu0_L1D PREFETCH     ACCESS:          0 HIT:          0 MISS:          0 MSHR_MERGE:          0
cpu0->cpu0_L1D WRITE        ACCESS:  172622557 HIT:  172605170 MISS:      17387 MSHR_MERGE:        444
cpu0->cpu0_L1D TRANSLATION  ACCESS:          0 HIT:          0 MISS:          0 MSHR_MERGE:          0
cpu0->cpu0_L1D PREFETCH REQUESTED:          0 ISSUED:          0 USEFUL:          0 USELESS:          0
cpu0->cpu0_L1D AVERAGE MISS LATENCY: 77.81 cycles
cpu0->cpu0_ITLB TOTAL        ACCESS:      73659 HIT:      73656 MISS:          3 MSHR_MERGE:          1
cpu0->cpu0_ITLB LOAD         ACCESS:      73659 HIT:      73656 MISS:          3 MSHR_MERGE:          1
cpu0->cpu0_ITLB RFO          ACCESS:          0 HIT:          0 MISS:          0 MSHR_MERGE:          0
cpu0->cpu0_ITLB PREFETCH     ACCESS:          0 HIT:          0 MISS:          0 MSHR_MERGE:          0
cpu0->cpu0_ITLB WRITE        ACCESS:          0 HIT:          0 MISS:          0 MSHR_MERGE:          0
cpu0->cpu0_ITLB TRANSLATION  ACCESS:          0 HIT:          0 MISS:          0 MSHR_MERGE:          0
cpu0->cpu0_ITLB PREFETCH REQUESTED:          0 ISSUED:          0 USEFUL:          0 USELESS:          0
cpu0->cpu0_ITLB AVERAGE MISS LATENCY: 1.292e+04 cycles
cpu0->cpu0_DTLB TOTAL        ACCESS:  551964406 HIT:  551939708 MISS:      24698 MSHR_MERGE:       8714
cpu0->cpu0_DTLB LOAD         ACCESS:  551964406 HIT:  551939708 MISS:      24698 MSHR_MERGE:       8714
cpu0->cpu0_DTLB RFO          ACCESS:          0 HIT:          0 MISS:          0 MSHR_MERGE:          0
cpu0->cpu0_DTLB PREFETCH     ACCESS:          0 HIT:          0 MISS:          0 MSHR_MERGE:          0
cpu0->cpu0_DTLB WRITE        ACCESS:          0 HIT:          0 MISS:          0 MSHR_MERGE:          0
cpu0->cpu0_DTLB TRANSLATION  ACCESS:          0 HIT:          0 MISS:          0 MSHR_MERGE:          0
cpu0->cpu0_DTLB PREFETCH REQUESTED:          0 ISSUED:          0 USEFUL:          0 USELESS:          0
cpu0->cpu0_DTLB AVERAGE MISS LATENCY: 1352 cycles
cpu0->LLC TOTAL        ACCESS:   35701266 HIT:     113972 MISS:   35587294 MSHR_MERGE:          0
cpu0->LLC LOAD         ACCESS:   35634267 HIT:      63993 MISS:   35570274 MSHR_MERGE:          0
cpu0->LLC RFO          ACCESS:      16834 HIT:         95 MISS:      16739 MSHR_MERGE:          0
cpu0->LLC PREFETCH     ACCESS:          0 HIT:          0 MISS:          0 MSHR_MERGE:          0
cpu0->LLC WRITE        ACCESS:      50165 HIT:      49884 MISS:        281 MSHR_MERGE:          0
cpu0->LLC TRANSLATION  ACCESS:          0 HIT:          0 MISS:          0 MSHR_MERGE:          0
cpu0->LLC PREFETCH REQUESTED:          0 ISSUED:          0 USEFUL:          0 USELESS:          0
cpu0->LLC AVERAGE MISS LATENCY: 77.36 cycles

DRAM Statistics

Channel 0 RQ ROW_BUFFER_HIT:    3470174
  ROW_BUFFER_MISS:   14325617
  AVG DBUS CONGESTED CYCLE: 13.9
Channel 0 WQ ROW_BUFFER_HIT:       3412
  ROW_BUFFER_MISS:      21705
  FULL:          0
Channel 0 REFRESHES ISSUED:     432296

Channel 1 RQ ROW_BUFFER_HIT:    3470390
  ROW_BUFFER_MISS:   14327521
  AVG DBUS CONGESTED CYCLE: 13.76
Channel 1 WQ ROW_BUFFER_HIT:       3339
  ROW_BUFFER_MISS:      21627
  FULL:          0
Channel 1 REFRESHES ISSUED:     432296
