[VMEM] WARNING: physical memory size is smaller than virtual memory size.

*** ChampSim Multicore Out-of-Order Simulator ***
Warmup Instructions: 0
Simulation Instructions: 9223372036854775807
Number of CPUs: 1
Page size: 4096

Off-chip DRAM Size: 128 GiB Channels: 2 Width: 32-bit Data Rate: 4807 MT/s
[ERROR_PAGE_MANAGER] Error latency: 173500 
[ERROR_PAGE_MANAGER] Random seed: 54321 (fixed for preload reproducibility)
[ERROR_PAGE_MANAGER] Cycle-based error modeling enabled
[ERROR_PAGE_MANAGER] Errors per interval: 1
[ERROR_PAGE_MANAGER] Error cycle interval: 8000000 cycles

=== ERROR PAGE STATISTICS ===
Mode: CYCLE
Error Cycle Interval: 8000000 CPU cycles
Total Error Accesses: 0
==============================
Warmup finished CPU 0 instructions: 0 cycles: 1 cumulative IPC: 0 (Simulation time: 00 hr 00 min 01 sec)
Warmup complete CPU 0 instructions: 0 cycles: 1 cumulative IPC: 0 (Simulation time: 00 hr 00 min 01 sec)
[ERROR_CYCLE] Error added at CPU cycle 5702245, next at 7322645, pending count: 1
[DRAM_CYCLE_ERROR] Cycle-based error applied! address=0xae12cdc18 additional_latency=173500 cycles
[ERROR_CYCLE] Error added at CPU cycle 7322646, next at 20556852, pending count: 1
[DRAM_CYCLE_ERROR] Cycle-based error applied! address=0xf21c299e0 additional_latency=173500 cycles
Heartbeat CPU 0 instructions: 10000001 cycles: 17141469 heartbeat IPC: 0.5834 cumulative IPC: 0.5834 (Simulation time: 00 hr 01 min 19 sec)
[ERROR_CYCLE] Error added at CPU cycle 20556852, next at 42774152, pending count: 1
[DRAM_CYCLE_ERROR] Cycle-based error applied! address=0xdf15cd160 additional_latency=173500 cycles
Heartbeat CPU 0 instructions: 20000002 cycles: 39554099 heartbeat IPC: 0.4462 cumulative IPC: 0.5056 (Simulation time: 00 hr 03 min 44 sec)
[ERROR_CYCLE] Error added at CPU cycle 42774153, next at 43014581, pending count: 1
[DRAM_CYCLE_ERROR] Cycle-based error applied! address=0x16e4c86b58 additional_latency=173500 cycles
[ERROR_CYCLE] Error added at CPU cycle 43014581, next at 55310914, pending count: 1
[DRAM_CYCLE_ERROR] Cycle-based error applied! address=0x1bef938b68 additional_latency=173500 cycles
[ERROR_CYCLE] Error added at CPU cycle 55310914, next at 56742755, pending count: 1
[DRAM_CYCLE_ERROR] Cycle-based error applied! address=0x123564c320 additional_latency=173500 cycles
[ERROR_CYCLE] Error added at CPU cycle 56742756, next at 61293938, pending count: 1
[DRAM_CYCLE_ERROR] Cycle-based error applied! address=0x9925ffcb8 additional_latency=173500 cycles
[ERROR_CYCLE] Error added at CPU cycle 61293939, next at 68125490, pending count: 1
[DRAM_CYCLE_ERROR] Cycle-based error applied! address=0xa58a373e8 additional_latency=173500 cycles
Heartbeat CPU 0 instructions: 30000002 cycles: 65777788 heartbeat IPC: 0.3813 cumulative IPC: 0.4561 (Simulation time: 00 hr 06 min 09 sec)
[ERROR_CYCLE] Error added at CPU cycle 68125491, next at 70082703, pending count: 1
[DRAM_CYCLE_ERROR] Cycle-based error applied! address=0x101fb32f70 additional_latency=173500 cycles
[ERROR_CYCLE] Error added at CPU cycle 70082704, next at 84290367, pending count: 1
[DRAM_CYCLE_ERROR] Cycle-based error applied! address=0xb555f0f8 additional_latency=173500 cycles
Heartbeat CPU 0 instructions: 40000005 cycles: 83533157 heartbeat IPC: 0.5632 cumulative IPC: 0.4789 (Simulation time: 00 hr 08 min 07 sec)
[ERROR_CYCLE] Error added at CPU cycle 84290367, next at 87138513, pending count: 1
[DRAM_CYCLE_ERROR] Cycle-based error applied! address=0x6ee65ce0 additional_latency=173500 cycles
[ERROR_CYCLE] Error added at CPU cycle 87138513, next at 90719201, pending count: 1
[DRAM_CYCLE_ERROR] Cycle-based error applied! address=0x10819dd470 additional_latency=173500 cycles
[ERROR_CYCLE] Error added at CPU cycle 90719201, next at 107001469, pending count: 1
[DRAM_CYCLE_ERROR] Cycle-based error applied! address=0x15999530c8 additional_latency=173500 cycles
[ERROR_CYCLE] Error added at CPU cycle 107001469, next at 107099488, pending count: 1
[DRAM_CYCLE_ERROR] Cycle-based error applied! address=0x2bb4398a0 additional_latency=173500 cycles
[ERROR_CYCLE] Error added at CPU cycle 107099489, next at 116099092, pending count: 1
[DRAM_CYCLE_ERROR] Cycle-based error applied! address=0x3bcb2c048 additional_latency=173500 cycles
[ERROR_CYCLE] Error added at CPU cycle 116099092, next at 121349692, pending count: 1
[DRAM_CYCLE_ERROR] Cycle-based error applied! address=0x61e1bbd8 additional_latency=173500 cycles
[ERROR_CYCLE] Error added at CPU cycle 121349692, next at 151621187, pending count: 1
[DRAM_CYCLE_ERROR] Cycle-based error applied! address=0x13df534d00 additional_latency=173500 cycles
[ERROR_CYCLE] Error added at CPU cycle 151621187, next at 153516742, pending count: 1
[DRAM_CYCLE_ERROR] Cycle-based error applied! address=0x8062582c0 additional_latency=173500 cycles
[ERROR_CYCLE] Error added at CPU cycle 153516742, next at 155437621, pending count: 1
[DRAM_CYCLE_ERROR] Cycle-based error applied! address=0xca9253488 additional_latency=173500 cycles
[ERROR_CYCLE] Error added at CPU cycle 155437621, next at 178495226, pending count: 1
[DRAM_CYCLE_ERROR] Cycle-based error applied! address=0x1f556439b8 additional_latency=173500 cycles
Heartbeat CPU 0 instructions: 50000005 cycles: 164894959 heartbeat IPC: 0.1229 cumulative IPC: 0.3032 (Simulation time: 00 hr 15 min 38 sec)
[ERROR_CYCLE] Error added at CPU cycle 178495226, next at 181653365, pending count: 1
[DRAM_CYCLE_ERROR] Cycle-based error applied! address=0x70c276080 additional_latency=173500 cycles
[ERROR_CYCLE] Error added at CPU cycle 181653365, next at 215877191, pending count: 1
[DRAM_CYCLE_ERROR] Cycle-based error applied! address=0x62926dbb0 additional_latency=173500 cycles
Heartbeat CPU 0 instructions: 60000005 cycles: 191269549 heartbeat IPC: 0.3792 cumulative IPC: 0.3137 (Simulation time: 00 hr 18 min 23 sec)
[ERROR_CYCLE] Error added at CPU cycle 215877191, next at 220477735, pending count: 1
[DRAM_CYCLE_ERROR] Cycle-based error applied! address=0x99c757c8 additional_latency=173500 cycles
[ERROR_CYCLE] Error added at CPU cycle 220477735, next at 247385306, pending count: 1
[DRAM_CYCLE_ERROR] Cycle-based error applied! address=0xbc4226468 additional_latency=173500 cycles
Heartbeat CPU 0 instructions: 70000005 cycles: 225393311 heartbeat IPC: 0.2931 cumulative IPC: 0.3106 (Simulation time: 00 hr 21 min 29 sec)
Heartbeat CPU 0 instructions: 80000007 cycles: 244339859 heartbeat IPC: 0.5278 cumulative IPC: 0.3274 (Simulation time: 00 hr 23 min 13 sec)
[ERROR_CYCLE] Error added at CPU cycle 247385307, next at 249771807, pending count: 1
[DRAM_CYCLE_ERROR] Cycle-based error applied! address=0x19e8e77548 additional_latency=173500 cycles
[ERROR_CYCLE] Error added at CPU cycle 249771808, next at 261187612, pending count: 1
[DRAM_CYCLE_ERROR] Cycle-based error applied! address=0x39baac618 additional_latency=173500 cycles
[ERROR_CYCLE] Error added at CPU cycle 261187613, next at 262895406, pending count: 1
Heartbeat CPU 0 instructions: 90000007 cycles: 261200112 heartbeat IPC: 0.5931 cumulative IPC: 0.3446 (Simulation time: 00 hr 24 min 57 sec)
[DRAM_CYCLE_ERROR] Cycle-based error applied! address=0x15092e0050 additional_latency=173500 cycles
[ERROR_CYCLE] Error added at CPU cycle 262895406, next at 265556270, pending count: 1
[DRAM_CYCLE_ERROR] Cycle-based error applied! address=0x96f5c2468 additional_latency=173500 cycles
[ERROR_CYCLE] Error added at CPU cycle 265556270, next at 277297613, pending count: 1
[DRAM_CYCLE_ERROR] Cycle-based error applied! address=0x1ed3e7b650 additional_latency=173500 cycles
Heartbeat CPU 0 instructions: 100000008 cycles: 277213359 heartbeat IPC: 0.6245 cumulative IPC: 0.3607 (Simulation time: 00 hr 26 min 42 sec)
[ERROR_CYCLE] Error added at CPU cycle 277297614, next at 277363337, pending count: 1
[DRAM_CYCLE_ERROR] Cycle-based error applied! address=0x3c5cba168 additional_latency=173500 cycles
[ERROR_CYCLE] Error added at CPU cycle 277363337, next at 280844445, pending count: 1
[DRAM_CYCLE_ERROR] Cycle-based error applied! address=0x16734edd60 additional_latency=173500 cycles
[ERROR_CYCLE] Error added at CPU cycle 280844445, next at 282972414, pending count: 1
[DRAM_CYCLE_ERROR] Cycle-based error applied! address=0xd8a801378 additional_latency=173500 cycles
[ERROR_CYCLE] Error added at CPU cycle 282972415, next at 286862856, pending count: 1
[DRAM_CYCLE_ERROR] Cycle-based error applied! address=0x1f1e710338 additional_latency=173500 cycles
[ERROR_CYCLE] Error added at CPU cycle 286862857, next at 287787267, pending count: 1
[DRAM_CYCLE_ERROR] Cycle-based error applied! address=0x2d958e4d0 additional_latency=173500 cycles
[ERROR_CYCLE] Error added at CPU cycle 287787267, next at 291972450, pending count: 1
[DRAM_CYCLE_ERROR] Cycle-based error applied! address=0x1a883e3060 additional_latency=173500 cycles
[ERROR_CYCLE] Error added at CPU cycle 291972450, next at 296131102, pending count: 1
[DRAM_CYCLE_ERROR] Cycle-based error applied! address=0xa03a729f0 additional_latency=173500 cycles
[ERROR_CYCLE] Error added at CPU cycle 296131102, next at 307889350, pending count: 1
[DRAM_CYCLE_ERROR] Cycle-based error applied! address=0xf4a459fb8 additional_latency=173500 cycles
[ERROR_CYCLE] Error added at CPU cycle 307889350, next at 322644041, pending count: 1
[DRAM_CYCLE_ERROR] Cycle-based error applied! address=0x1c273730f8 additional_latency=173500 cycles
Heartbeat CPU 0 instructions: 110000010 cycles: 315402218 heartbeat IPC: 0.2619 cumulative IPC: 0.3488 (Simulation time: 00 hr 30 min 27 sec)
[ERROR_CYCLE] Error added at CPU cycle 322644042, next at 326639280, pending count: 1
[DRAM_CYCLE_ERROR] Cycle-based error applied! address=0x16bfd34ad8 additional_latency=173500 cycles
[ERROR_CYCLE] Error added at CPU cycle 326639281, next at 331663090, pending count: 1
[DRAM_CYCLE_ERROR] Cycle-based error applied! address=0x1846a4c4d8 additional_latency=173500 cycles
[ERROR_CYCLE] Error added at CPU cycle 331663090, next at 332541815, pending count: 1
[DRAM_CYCLE_ERROR] Cycle-based error applied! address=0x1f1e7106e8 additional_latency=173500 cycles
[ERROR_CYCLE] Error added at CPU cycle 332541815, next at 334235178, pending count: 1
[DRAM_CYCLE_ERROR] Cycle-based error applied! address=0x1ba565088 additional_latency=173500 cycles
[ERROR_CYCLE] Error added at CPU cycle 334235178, next at 343169730, pending count: 1
[DRAM_CYCLE_ERROR] Cycle-based error applied! address=0xd3a6bc400 additional_latency=173500 cycles
Heartbeat CPU 0 instructions: 120000014 cycles: 343030020 heartbeat IPC: 0.362 cumulative IPC: 0.3498 (Simulation time: 00 hr 33 min 14 sec)
[ERROR_CYCLE] Error added at CPU cycle 343169730, next at 348318977, pending count: 1
[DRAM_CYCLE_ERROR] Cycle-based error applied! address=0x15573e99f8 additional_latency=173500 cycles
[ERROR_CYCLE] Error added at CPU cycle 348318978, next at 361256443, pending count: 1
[DRAM_CYCLE_ERROR] Cycle-based error applied! address=0x62f8cb098 additional_latency=173500 cycles
[ERROR_CYCLE] Error added at CPU cycle 361256443, next at 363532948, pending count: 1
[DRAM_CYCLE_ERROR] Cycle-based error applied! address=0x1eabbd32d0 additional_latency=173500 cycles
[ERROR_CYCLE] Error added at CPU cycle 363532948, next at 374354625, pending count: 1
[DRAM_CYCLE_ERROR] Cycle-based error applied! address=0xf430f6d40 additional_latency=173500 cycles
Heartbeat CPU 0 instructions: 130000016 cycles: 366626921 heartbeat IPC: 0.4238 cumulative IPC: 0.3546 (Simulation time: 00 hr 35 min 47 sec)
[ERROR_CYCLE] Error added at CPU cycle 374354626, next at 383320275, pending count: 1
[DRAM_CYCLE_ERROR] Cycle-based error applied! address=0x18f38cfb10 additional_latency=173500 cycles
[ERROR_CYCLE] Error added at CPU cycle 383320276, next at 391855039, pending count: 1
[DRAM_CYCLE_ERROR] Cycle-based error applied! address=0x66828f948 additional_latency=173500 cycles
[ERROR_CYCLE] Error added at CPU cycle 391855040, next at 393759507, pending count: 1
[DRAM_CYCLE_ERROR] Cycle-based error applied! address=0x64404a268 additional_latency=173500 cycles
[ERROR_CYCLE] Error added at CPU cycle 393759508, next at 400884047, pending count: 1
[DRAM_CYCLE_ERROR] Cycle-based error applied! address=0x12678cdfb8 additional_latency=173500 cycles
Heartbeat CPU 0 instructions: 140000016 cycles: 399967400 heartbeat IPC: 0.2999 cumulative IPC: 0.35 (Simulation time: 00 hr 39 min 06 sec)
[ERROR_CYCLE] Error added at CPU cycle 400884047, next at 413131147, pending count: 1
[DRAM_CYCLE_ERROR] Cycle-based error applied! address=0x32d0027f0 additional_latency=173500 cycles
[ERROR_CYCLE] Error added at CPU cycle 413131147, next at 418606511, pending count: 1
[DRAM_CYCLE_ERROR] Cycle-based error applied! address=0x880cdd290 additional_latency=173500 cycles
[ERROR_CYCLE] Error added at CPU cycle 418606511, next at 419456417, pending count: 1
[DRAM_CYCLE_ERROR] Cycle-based error applied! address=0x150b7188c0 additional_latency=173500 cycles
[ERROR_CYCLE] Error added at CPU cycle 419456417, next at 436337035, pending count: 1
[DRAM_CYCLE_ERROR] Cycle-based error applied! address=0x1785a86ae0 additional_latency=173500 cycles
[ERROR_CYCLE] Error added at CPU cycle 436337035, next at 444009234, pending count: 1
[DRAM_CYCLE_ERROR] Cycle-based error applied! address=0xd1c53b018 additional_latency=173500 cycles
[ERROR_CYCLE] Error added at CPU cycle 444009235, next at 453365678, pending count: 1
[DRAM_CYCLE_ERROR] Cycle-based error applied! address=0xf87c37a38 additional_latency=173500 cycles
Heartbeat CPU 0 instructions: 150000016 cycles: 450767487 heartbeat IPC: 0.1969 cumulative IPC: 0.3328 (Simulation time: 00 hr 44 min 04 sec)
[ERROR_CYCLE] Error added at CPU cycle 453365679, next at 481867585, pending count: 1
[DRAM_CYCLE_ERROR] Cycle-based error applied! address=0x1c5e7bc280 additional_latency=173500 cycles
Heartbeat CPU 0 instructions: 160000017 cycles: 467307468 heartbeat IPC: 0.6046 cumulative IPC: 0.3424 (Simulation time: 00 hr 45 min 55 sec)
Heartbeat CPU 0 instructions: 170000020 cycles: 477954500 heartbeat IPC: 0.9392 cumulative IPC: 0.3557 (Simulation time: 00 hr 47 min 15 sec)
[ERROR_CYCLE] Error added at CPU cycle 481867586, next at 486241351, pending count: 1
[DRAM_CYCLE_ERROR] Cycle-based error applied! address=0x118973a778 additional_latency=173500 cycles
[ERROR_CYCLE] Error added at CPU cycle 486241352, next at 486834828, pending count: 1
[DRAM_CYCLE_ERROR] Cycle-based error applied! address=0x118580bd28 additional_latency=173500 cycles
[ERROR_CYCLE] Error added at CPU cycle 486834829, next at 488524067, pending count: 1
[DRAM_CYCLE_ERROR] Cycle-based error applied! address=0x1c0605b0c0 additional_latency=173500 cycles
[ERROR_CYCLE] Error added at CPU cycle 488524067, next at 490575473, pending count: 1
[DRAM_CYCLE_ERROR] Cycle-based error applied! address=0xe6e851b0 additional_latency=173500 cycles
[ERROR_CYCLE] Error added at CPU cycle 490575473, next at 490984732, pending count: 1
[DRAM_CYCLE_ERROR] Cycle-based error applied! address=0x7ab7e4218 additional_latency=173500 cycles
[ERROR_CYCLE] Error added at CPU cycle 490984732, next at 492549221, pending count: 1
[DRAM_CYCLE_ERROR] Cycle-based error applied! address=0x1a0c0df530 additional_latency=173500 cycles
[ERROR_CYCLE] Error added at CPU cycle 492549221, next at 499064308, pending count: 1
[DRAM_CYCLE_ERROR] Cycle-based error applied! address=0xd836cc000 additional_latency=173500 cycles
[ERROR_CYCLE] Error added at CPU cycle 499064309, next at 524403665, pending count: 1
[DRAM_CYCLE_ERROR] Cycle-based error applied! address=0xa71b1c758 additional_latency=173500 cycles
[ERROR_CYCLE] Error added at CPU cycle 524403666, next at 548237136, pending count: 1
[DRAM_CYCLE_ERROR] Cycle-based error applied! address=0x1a6dfb30e0 additional_latency=173500 cycles
Heartbeat CPU 0 instructions: 180000022 cycles: 526764854 heartbeat IPC: 0.2049 cumulative IPC: 0.3417 (Simulation time: 00 hr 51 min 52 sec)
Heartbeat CPU 0 instructions: 190000022 cycles: 538161830 heartbeat IPC: 0.8774 cumulative IPC: 0.3531 (Simulation time: 00 hr 53 min 16 sec)
[ERROR_CYCLE] Error added at CPU cycle 548237136, next at 553653883, pending count: 1
[DRAM_CYCLE_ERROR] Cycle-based error applied! address=0x13fc7846b0 additional_latency=173500 cycles
[ERROR_CYCLE] Error added at CPU cycle 553653884, next at 554848685, pending count: 1
[DRAM_CYCLE_ERROR] Cycle-based error applied! address=0x48d80b758 additional_latency=173500 cycles
[ERROR_CYCLE] Error added at CPU cycle 554848686, next at 557254087, pending count: 1
[DRAM_CYCLE_ERROR] Cycle-based error applied! address=0x1d21a6780 additional_latency=173500 cycles
Heartbeat CPU 0 instructions: 200000022 cycles: 556624690 heartbeat IPC: 0.5416 cumulative IPC: 0.3593 (Simulation time: 00 hr 55 min 18 sec)
[ERROR_CYCLE] Error added at CPU cycle 557254087, next at 564098204, pending count: 1
[DRAM_CYCLE_ERROR] Cycle-based error applied! address=0xf08a0e858 additional_latency=173500 cycles
[ERROR_CYCLE] Error added at CPU cycle 564098204, next at 598036750, pending count: 1
[DRAM_CYCLE_ERROR] Cycle-based error applied! address=0x25315b080 additional_latency=173500 cycles
Heartbeat CPU 0 instructions: 210000023 cycles: 589348146 heartbeat IPC: 0.3056 cumulative IPC: 0.3563 (Simulation time: 00 hr 58 min 39 sec)
[ERROR_CYCLE] Error added at CPU cycle 598036751, next at 598935337, pending count: 1
[DRAM_CYCLE_ERROR] Cycle-based error applied! address=0x16c8897a28 additional_latency=173500 cycles
[ERROR_CYCLE] Error added at CPU cycle 598935337, next at 604015587, pending count: 1
[DRAM_CYCLE_ERROR] Cycle-based error applied! address=0x1e7b64d428 additional_latency=173500 cycles
[ERROR_CYCLE] Error added at CPU cycle 604015587, next at 604397660, pending count: 1
[DRAM_CYCLE_ERROR] Cycle-based error applied! address=0x1702502698 additional_latency=173500 cycles
[ERROR_CYCLE] Error added at CPU cycle 604397660, next at 607018469, pending count: 1
[DRAM_CYCLE_ERROR] Cycle-based error applied! address=0x60191c5b8 additional_latency=173500 cycles
[ERROR_CYCLE] Error added at CPU cycle 607018470, next at 614345951, pending count: 1
[DRAM_CYCLE_ERROR] Cycle-based error applied! address=0x1a64af7b0 additional_latency=173500 cycles
[ERROR_CYCLE] Error added at CPU cycle 614345951, next at 614441836, pending count: 1
[DRAM_CYCLE_ERROR] Cycle-based error applied! address=0x165b4a3c28 additional_latency=173500 cycles
[ERROR_CYCLE] Error added at CPU cycle 614441837, next at 614480051, pending count: 1
[DRAM_CYCLE_ERROR] Cycle-based error applied! address=0x165a8239a8 additional_latency=173500 cycles
[ERROR_CYCLE] Error added at CPU cycle 614480051, next at 614611983, pending count: 1
[DRAM_CYCLE_ERROR] Cycle-based error applied! address=0x11f7775788 additional_latency=173500 cycles
[ERROR_CYCLE] Error added at CPU cycle 614611983, next at 618781457, pending count: 1
[DRAM_CYCLE_ERROR] Cycle-based error applied! address=0x4bdfa1218 additional_latency=173500 cycles
[ERROR_CYCLE] Error added at CPU cycle 618781458, next at 620327032, pending count: 1
[DRAM_CYCLE_ERROR] Cycle-based error applied! address=0x17257256b0 additional_latency=173500 cycles
[ERROR_CYCLE] Error added at CPU cycle 620327032, next at 621182048, pending count: 1
[DRAM_CYCLE_ERROR] Cycle-based error applied! address=0x138dde6a48 additional_latency=173500 cycles
[ERROR_CYCLE] Error added at CPU cycle 621182049, next at 625644245, pending count: 1
[DRAM_CYCLE_ERROR] Cycle-based error applied! address=0x1b8a75f330 additional_latency=173500 cycles
[ERROR_CYCLE] Error added at CPU cycle 625644246, next at 634692953, pending count: 1
[DRAM_CYCLE_ERROR] Cycle-based error applied! address=0x1dd9b12ab0 additional_latency=173500 cycles
Heartbeat CPU 0 instructions: 220000024 cycles: 633321082 heartbeat IPC: 0.2274 cumulative IPC: 0.3474 (Simulation time: 01 hr 03 min 03 sec)
[ERROR_CYCLE] Error added at CPU cycle 634692953, next at 640590896, pending count: 1
[DRAM_CYCLE_ERROR] Cycle-based error applied! address=0x15bbbdbd10 additional_latency=173500 cycles
[ERROR_CYCLE] Error added at CPU cycle 640590897, next at 643762779, pending count: 1
[DRAM_CYCLE_ERROR] Cycle-based error applied! address=0x1fe5b93788 additional_latency=173500 cycles
[ERROR_CYCLE] Error added at CPU cycle 643762780, next at 650107287, pending count: 1
[DRAM_CYCLE_ERROR] Cycle-based error applied! address=0x1641103960 additional_latency=173500 cycles
[ERROR_CYCLE] Error added at CPU cycle 650107288, next at 660201622, pending count: 1
[DRAM_CYCLE_ERROR] Cycle-based error applied! address=0xca45480d8 additional_latency=173500 cycles
Heartbeat CPU 0 instructions: 230000024 cycles: 655171290 heartbeat IPC: 0.4577 cumulative IPC: 0.3511 (Simulation time: 01 hr 05 min 28 sec)
[ERROR_CYCLE] Error added at CPU cycle 660201622, next at 664349972, pending count: 1
[DRAM_CYCLE_ERROR] Cycle-based error applied! address=0x4de6e7ee0 additional_latency=173500 cycles
[ERROR_CYCLE] Error added at CPU cycle 664349973, next at 671148112, pending count: 1
[DRAM_CYCLE_ERROR] Cycle-based error applied! address=0x1615452878 additional_latency=173500 cycles
[ERROR_CYCLE] Error added at CPU cycle 671148112, next at 689443322, pending count: 1
[DRAM_CYCLE_ERROR] Cycle-based error applied! address=0xc88d98200 additional_latency=173500 cycles
Heartbeat CPU 0 instructions: 240000024 cycles: 676852538 heartbeat IPC: 0.4612 cumulative IPC: 0.3546 (Simulation time: 01 hr 07 min 44 sec)
Heartbeat CPU 0 instructions: 250000028 cycles: 689020348 heartbeat IPC: 0.8218 cumulative IPC: 0.3628 (Simulation time: 01 hr 09 min 05 sec)
[ERROR_CYCLE] Error added at CPU cycle 689443322, next at 691311391, pending count: 1
[DRAM_CYCLE_ERROR] Cycle-based error applied! address=0xe46e76598 additional_latency=173500 cycles
[ERROR_CYCLE] Error added at CPU cycle 691311392, next at 706435840, pending count: 1
[DRAM_CYCLE_ERROR] Cycle-based error applied! address=0x82d321268 additional_latency=173500 cycles
[ERROR_CYCLE] Error added at CPU cycle 706435841, next at 708373709, pending count: 1
[DRAM_CYCLE_ERROR] Cycle-based error applied! address=0x27b48d398 additional_latency=173500 cycles
[ERROR_CYCLE] Error added at CPU cycle 708373709, next at 709740849, pending count: 1
[DRAM_CYCLE_ERROR] Cycle-based error applied! address=0x550a8a88 additional_latency=173500 cycles
[ERROR_CYCLE] Error added at CPU cycle 709740849, next at 713146632, pending count: 1
[DRAM_CYCLE_ERROR] Cycle-based error applied! address=0x13b4d62d0 additional_latency=173500 cycles
[ERROR_CYCLE] Error added at CPU cycle 713146633, next at 728113647, pending count: 1
[DRAM_CYCLE_ERROR] Cycle-based error applied! address=0x154a03818 additional_latency=173500 cycles
[ERROR_CYCLE] Error added at CPU cycle 728113647, next at 729964738, pending count: 1
[DRAM_CYCLE_ERROR] Cycle-based error applied! address=0xb91abf8 additional_latency=173500 cycles
[ERROR_CYCLE] Error added at CPU cycle 729964738, next at 736361994, pending count: 1
[DRAM_CYCLE_ERROR] Cycle-based error applied! address=0xefea3ff78 additional_latency=173500 cycles
[ERROR_CYCLE] Error added at CPU cycle 736361994, next at 740287178, pending count: 1
[DRAM_CYCLE_ERROR] Cycle-based error applied! address=0x1e1ddfc3f0 additional_latency=173500 cycles
[ERROR_CYCLE] Error added at CPU cycle 740287179, next at 742566863, pending count: 1
[DRAM_CYCLE_ERROR] Cycle-based error applied! address=0x44fb8a50 additional_latency=173500 cycles
[ERROR_CYCLE] Error added at CPU cycle 742566864, next at 748440995, pending count: 1
[DRAM_CYCLE_ERROR] Cycle-based error applied! address=0x71cba97f0 additional_latency=173500 cycles
[ERROR_CYCLE] Error added at CPU cycle 748440995, next at 752222168, pending count: 1
[DRAM_CYCLE_ERROR] Cycle-based error applied! address=0x181dc16590 additional_latency=173500 cycles
[ERROR_CYCLE] Error added at CPU cycle 752222169, next at 753089532, pending count: 1
[DRAM_CYCLE_ERROR] Cycle-based error applied! address=0x1dcae6be60 additional_latency=173500 cycles
[ERROR_CYCLE] Error added at CPU cycle 753089532, next at 755305368, pending count: 1
[DRAM_CYCLE_ERROR] Cycle-based error applied! address=0xb98123bb8 additional_latency=173500 cycles
Heartbeat CPU 0 instructions: 260000028 cycles: 755235695 heartbeat IPC: 0.151 cumulative IPC: 0.3443 (Simulation time: 01 hr 14 min 47 sec)
[ERROR_CYCLE] Error added at CPU cycle 755305368, next at 772665000, pending count: 1
[DRAM_CYCLE_ERROR] Cycle-based error applied! address=0x15c5fd4488 additional_latency=173500 cycles
[ERROR_CYCLE] Error added at CPU cycle 772665001, next at 782584091, pending count: 1
[DRAM_CYCLE_ERROR] Cycle-based error applied! address=0xf014669c8 additional_latency=173500 cycles
[ERROR_CYCLE] Error added at CPU cycle 782584092, next at 796276792, pending count: 1
[DRAM_CYCLE_ERROR] Cycle-based error applied! address=0xbadf170c0 additional_latency=173500 cycles
[ERROR_CYCLE] Error added at CPU cycle 796276792, next at 801187692, pending count: 1
[DRAM_CYCLE_ERROR] Cycle-based error applied! address=0x1fde7d5218 additional_latency=173500 cycles
[ERROR_CYCLE] Error added at CPU cycle 801187692, next at 808777645, pending count: 1
[DRAM_CYCLE_ERROR] Cycle-based error applied! address=0x1a83071ea0 additional_latency=173500 cycles
[ERROR_CYCLE] Error added at CPU cycle 808777645, next at 810760668, pending count: 1
[DRAM_CYCLE_ERROR] Cycle-based error applied! address=0x1abde97300 additional_latency=173500 cycles
[ERROR_CYCLE] Error added at CPU cycle 810760669, next at 822280300, pending count: 1
[DRAM_CYCLE_ERROR] Cycle-based error applied! address=0x12ae8aac18 additional_latency=173500 cycles
[ERROR_CYCLE] Error added at CPU cycle 822280301, next at 832288151, pending count: 1
[DRAM_CYCLE_ERROR] Cycle-based error applied! address=0x1c9ce79438 additional_latency=173500 cycles
[ERROR_CYCLE] Error added at CPU cycle 832288151, next at 838593573, pending count: 1
[DRAM_CYCLE_ERROR] Cycle-based error applied! address=0x248b1eac8 additional_latency=173500 cycles
Heartbeat CPU 0 instructions: 270000028 cycles: 837219978 heartbeat IPC: 0.122 cumulative IPC: 0.3225 (Simulation time: 01 hr 21 min 40 sec)
[ERROR_CYCLE] Error added at CPU cycle 838593573, next at 846086183, pending count: 1
[DRAM_CYCLE_ERROR] Cycle-based error applied! address=0x86d227ce8 additional_latency=173500 cycles
[ERROR_CYCLE] Error added at CPU cycle 846086184, next at 862431645, pending count: 1
[DRAM_CYCLE_ERROR] Cycle-based error applied! address=0xcd283ad88 additional_latency=173500 cycles
[ERROR_CYCLE] Error added at CPU cycle 862431646, next at 874582316, pending count: 1
[DRAM_CYCLE_ERROR] Cycle-based error applied! address=0x19eabd8638 additional_latency=173500 cycles
Heartbeat CPU 0 instructions: 280000028 cycles: 863573831 heartbeat IPC: 0.3795 cumulative IPC: 0.3242 (Simulation time: 01 hr 24 min 29 sec)
[ERROR_CYCLE] Error added at CPU cycle 874582317, next at 876300437, pending count: 1
[DRAM_CYCLE_ERROR] Cycle-based error applied! address=0x80e1589a8 additional_latency=173500 cycles
[ERROR_CYCLE] Error added at CPU cycle 876300437, next at 881443625, pending count: 1
[DRAM_CYCLE_ERROR] Cycle-based error applied! address=0x1ff9c12a10 additional_latency=173500 cycles
[ERROR_CYCLE] Error added at CPU cycle 881443625, next at 885663751, pending count: 1
[DRAM_CYCLE_ERROR] Cycle-based error applied! address=0x1216ede660 additional_latency=173500 cycles
[ERROR_CYCLE] Error added at CPU cycle 885663752, next at 892255045, pending count: 1
[DRAM_CYCLE_ERROR] Cycle-based error applied! address=0x1f99465d20 additional_latency=173500 cycles
[ERROR_CYCLE] Error added at CPU cycle 892255045, next at 908006563, pending count: 1
[DRAM_CYCLE_ERROR] Cycle-based error applied! address=0x751647f8 additional_latency=173500 cycles
Heartbeat CPU 0 instructions: 290000029 cycles: 896608057 heartbeat IPC: 0.3027 cumulative IPC: 0.3234 (Simulation time: 01 hr 26 min 45 sec)
[ERROR_CYCLE] Error added at CPU cycle 908006564, next at 912786163, pending count: 1
[DRAM_CYCLE_ERROR] Cycle-based error applied! address=0x1446e47798 additional_latency=173500 cycles
[ERROR_CYCLE] Error added at CPU cycle 912786163, next at 923266667, pending count: 1
[DRAM_CYCLE_ERROR] Cycle-based error applied! address=0xe69fcca78 additional_latency=173500 cycles
[ERROR_CYCLE] Error added at CPU cycle 923266667, next at 924053485, pending count: 1
[DRAM_CYCLE_ERROR] Cycle-based error applied! address=0xdc9dc30a8 additional_latency=173500 cycles
[ERROR_CYCLE] Error added at CPU cycle 924053485, next at 931344785, pending count: 1
[DRAM_CYCLE_ERROR] Cycle-based error applied! address=0x1565d82270 additional_latency=173500 cycles
Heartbeat CPU 0 instructions: 300000030 cycles: 931284874 heartbeat IPC: 0.2884 cumulative IPC: 0.3221 (Simulation time: 01 hr 29 min 46 sec)
[ERROR_CYCLE] Error added at CPU cycle 931344785, next at 936042183, pending count: 1
[DRAM_CYCLE_ERROR] Cycle-based error applied! address=0x1c99b3c8f8 additional_latency=173500 cycles
[ERROR_CYCLE] Error added at CPU cycle 936042184, next at 960927640, pending count: 1
[DRAM_CYCLE_ERROR] Cycle-based error applied! address=0x1aa3e7ac98 additional_latency=173500 cycles
Heartbeat CPU 0 instructions: 310000030 cycles: 952603755 heartbeat IPC: 0.4691 cumulative IPC: 0.3254 (Simulation time: 01 hr 31 min 51 sec)
[ERROR_CYCLE] Error added at CPU cycle 960927640, next at 975843003, pending count: 1
[DRAM_CYCLE_ERROR] Cycle-based error applied! address=0xc24142360 additional_latency=173500 cycles
Heartbeat CPU 0 instructions: 320000030 cycles: 975061050 heartbeat IPC: 0.4453 cumulative IPC: 0.3282 (Simulation time: 01 hr 34 min 00 sec)
[ERROR_CYCLE] Error added at CPU cycle 975843004, next at 977626043, pending count: 1
[DRAM_CYCLE_ERROR] Cycle-based error applied! address=0x1615452878 additional_latency=173500 cycles
[ERROR_CYCLE] Error added at CPU cycle 977626043, next at 979831902, pending count: 1
[DRAM_CYCLE_ERROR] Cycle-based error applied! address=0x1a2f97c898 additional_latency=173500 cycles
[ERROR_CYCLE] Error added at CPU cycle 979831903, next at 985183089, pending count: 1
[DRAM_CYCLE_ERROR] Cycle-based error applied! address=0x17d7b59ed0 additional_latency=173500 cycles
[ERROR_CYCLE] Error added at CPU cycle 985183089, next at 985529715, pending count: 1
[DRAM_CYCLE_ERROR] Cycle-based error applied! address=0xd40a84000 additional_latency=173500 cycles
[ERROR_CYCLE] Error added at CPU cycle 985529715, next at 989014745, pending count: 1
[DRAM_CYCLE_ERROR] Cycle-based error applied! address=0x3ee2e5378 additional_latency=173500 cycles
[ERROR_CYCLE] Error added at CPU cycle 989014745, next at 1000495001, pending count: 1
[DRAM_CYCLE_ERROR] Cycle-based error applied! address=0x1e6acd9190 additional_latency=173500 cycles
[ERROR_CYCLE] Error added at CPU cycle 1000495002, next at 1035091477, pending count: 1
[DRAM_CYCLE_ERROR] Cycle-based error applied! address=0x1909d2a98 additional_latency=173500 cycles
Heartbeat CPU 0 instructions: 330000032 cycles: 1013283122 heartbeat IPC: 0.2616 cumulative IPC: 0.3257 (Simulation time: 01 hr 37 min 30 sec)
Heartbeat CPU 0 instructions: 340000032 cycles: 1028652979 heartbeat IPC: 0.6506 cumulative IPC: 0.3305 (Simulation time: 01 hr 39 min 15 sec)
[ERROR_CYCLE] Error added at CPU cycle 1035091477, next at 1043904956, pending count: 1
[DRAM_CYCLE_ERROR] Cycle-based error applied! address=0xdaba1f20 additional_latency=173500 cycles
Heartbeat CPU 0 instructions: 350000032 cycles: 1039330301 heartbeat IPC: 0.9366 cumulative IPC: 0.3368 (Simulation time: 01 hr 40 min 34 sec)
[ERROR_CYCLE] Error added at CPU cycle 1043904957, next at 1051871016, pending count: 1
[DRAM_CYCLE_ERROR] Cycle-based error applied! address=0x980fab988 additional_latency=173500 cycles
[ERROR_CYCLE] Error added at CPU cycle 1051871017, next at 1057060815, pending count: 1
[DRAM_CYCLE_ERROR] Cycle-based error applied! address=0xecf9880b8 additional_latency=173500 cycles
[ERROR_CYCLE] Error added at CPU cycle 1057060815, next at 1067823653, pending count: 1
[DRAM_CYCLE_ERROR] Cycle-based error applied! address=0x90b8ba628 additional_latency=173500 cycles
[ERROR_CYCLE] Error added at CPU cycle 1067823654, next at 1073330273, pending count: 1
[DRAM_CYCLE_ERROR] Cycle-based error applied! address=0x5bd21c1b0 additional_latency=173500 cycles
Heartbeat CPU 0 instructions: 360000032 cycles: 1073135609 heartbeat IPC: 0.2958 cumulative IPC: 0.3355 (Simulation time: 01 hr 43 min 55 sec)
[ERROR_CYCLE] Error added at CPU cycle 1073330274, next at 1073566411, pending count: 1
[DRAM_CYCLE_ERROR] Cycle-based error applied! address=0x1ac4174f00 additional_latency=173500 cycles
[ERROR_CYCLE] Error added at CPU cycle 1073566411, next at 1077955936, pending count: 1
[DRAM_CYCLE_ERROR] Cycle-based error applied! address=0x16fe9c3f08 additional_latency=173500 cycles
[ERROR_CYCLE] Error added at CPU cycle 1077955936, next at 1079111748, pending count: 1
[DRAM_CYCLE_ERROR] Cycle-based error applied! address=0x164024ab70 additional_latency=173500 cycles
[ERROR_CYCLE] Error added at CPU cycle 1079111749, next at 1096295147, pending count: 1
[DRAM_CYCLE_ERROR] Cycle-based error applied! address=0x106769dff8 additional_latency=173500 cycles
Heartbeat CPU 0 instructions: 370000034 cycles: 1094886307 heartbeat IPC: 0.4598 cumulative IPC: 0.3379 (Simulation time: 01 hr 46 min 13 sec)
[ERROR_CYCLE] Error added at CPU cycle 1096295148, next at 1102125947, pending count: 1
[DRAM_CYCLE_ERROR] Cycle-based error applied! address=0x5216915d8 additional_latency=173500 cycles
[ERROR_CYCLE] Error added at CPU cycle 1102125947, next at 1134433618, pending count: 1
[DRAM_CYCLE_ERROR] Cycle-based error applied! address=0x147f78c378 additional_latency=173500 cycles
Heartbeat CPU 0 instructions: 380000034 cycles: 1112101675 heartbeat IPC: 0.5809 cumulative IPC: 0.3417 (Simulation time: 01 hr 47 min 57 sec)
[ERROR_CYCLE] Error added at CPU cycle 1134433619, next at 1143019798, pending count: 1
[DRAM_CYCLE_ERROR] Cycle-based error applied! address=0x9fdc8d6c0 additional_latency=173500 cycles
[ERROR_CYCLE] Error added at CPU cycle 1143019799, next at 1144527713, pending count: 1
[DRAM_CYCLE_ERROR] Cycle-based error applied! address=0x1555843718 additional_latency=173500 cycles
[ERROR_CYCLE] Error added at CPU cycle 1144527714, next at 1147844485, pending count: 1
[DRAM_CYCLE_ERROR] Cycle-based error applied! address=0x171a0af50 additional_latency=173500 cycles
[ERROR_CYCLE] Error added at CPU cycle 1147844485, next at 1151928025, pending count: 1
[DRAM_CYCLE_ERROR] Cycle-based error applied! address=0x181eb617e8 additional_latency=173500 cycles
[ERROR_CYCLE] Error added at CPU cycle 1151928026, next at 1164212405, pending count: 1
[DRAM_CYCLE_ERROR] Cycle-based error applied! address=0x1015e96dd8 additional_latency=173500 cycles
Heartbeat CPU 0 instructions: 390000034 cycles: 1153453147 heartbeat IPC: 0.2418 cumulative IPC: 0.3381 (Simulation time: 01 hr 51 min 49 sec)
[ERROR_CYCLE] Error added at CPU cycle 1164212406, next at 1164864924, pending count: 1
[DRAM_CYCLE_ERROR] Cycle-based error applied! address=0x4e9f5c558 additional_latency=173500 cycles
[ERROR_CYCLE] Error added at CPU cycle 1164864924, next at 1167706555, pending count: 1
[DRAM_CYCLE_ERROR] Cycle-based error applied! address=0x13d9750cf8 additional_latency=173500 cycles
[ERROR_CYCLE] Error added at CPU cycle 1167706555, next at 1176468137, pending count: 1
[DRAM_CYCLE_ERROR] Cycle-based error applied! address=0x2cc343310 additional_latency=173500 cycles
[ERROR_CYCLE] Error added at CPU cycle 1176468137, next at 1178359731, pending count: 1
[DRAM_CYCLE_ERROR] Cycle-based error applied! address=0x167da6bfb0 additional_latency=173500 cycles
[ERROR_CYCLE] Error added at CPU cycle 1178359731, next at 1186538523, pending count: 1
[DRAM_CYCLE_ERROR] Cycle-based error applied! address=0x109eb56028 additional_latency=173500 cycles
[ERROR_CYCLE] Error added at CPU cycle 1186538524, next at 1187608946, pending count: 1
[DRAM_CYCLE_ERROR] Cycle-based error applied! address=0x1e99525528 additional_latency=173500 cycles
[ERROR_CYCLE] Error added at CPU cycle 1187608947, next at 1193860883, pending count: 1
[DRAM_CYCLE_ERROR] Cycle-based error applied! address=0x9b184d860 additional_latency=173500 cycles
[ERROR_CYCLE] Error added at CPU cycle 1193860883, next at 1198722524, pending count: 1
[DRAM_CYCLE_ERROR] Cycle-based error applied! address=0x870cb2db0 additional_latency=173500 cycles
[ERROR_CYCLE] Error added at CPU cycle 1198722525, next at 1200139371, pending count: 1
[DRAM_CYCLE_ERROR] Cycle-based error applied! address=0xf2bb59a10 additional_latency=173500 cycles
Heartbeat CPU 0 instructions: 400000034 cycles: 1199144965 heartbeat IPC: 0.2189 cumulative IPC: 0.3336 (Simulation time: 01 hr 55 min 58 sec)
[ERROR_CYCLE] Error added at CPU cycle 1200139371, next at 1203745576, pending count: 1
[DRAM_CYCLE_ERROR] Cycle-based error applied! address=0x1e1d0b3a58 additional_latency=173500 cycles
[ERROR_CYCLE] Error added at CPU cycle 1203745577, next at 1206541145, pending count: 1
[DRAM_CYCLE_ERROR] Cycle-based error applied! address=0x3b0ca6940 additional_latency=173500 cycles
[ERROR_CYCLE] Error added at CPU cycle 1206541145, next at 1208784502, pending count: 1
[DRAM_CYCLE_ERROR] Cycle-based error applied! address=0xbbc2f2638 additional_latency=173500 cycles
[ERROR_CYCLE] Error added at CPU cycle 1208784502, next at 1232405280, pending count: 1
[DRAM_CYCLE_ERROR] Cycle-based error applied! address=0x4ba37ed20 additional_latency=173500 cycles
Heartbeat CPU 0 instructions: 410000034 cycles: 1216598925 heartbeat IPC: 0.5729 cumulative IPC: 0.337 (Simulation time: 01 hr 57 min 53 sec)
Heartbeat CPU 0 instructions: 420000035 cycles: 1227758408 heartbeat IPC: 0.8961 cumulative IPC: 0.3421 (Simulation time: 01 hr 59 min 14 sec)
[ERROR_CYCLE] Error added at CPU cycle 1232405281, next at 1236507134, pending count: 1
[DRAM_CYCLE_ERROR] Cycle-based error applied! address=0xad5b70d08 additional_latency=173500 cycles
[ERROR_CYCLE] Error added at CPU cycle 1236507134, next at 1244305712, pending count: 1
[DRAM_CYCLE_ERROR] Cycle-based error applied! address=0x1a7ee2b1b0 additional_latency=173500 cycles
[ERROR_CYCLE] Error added at CPU cycle 1244305712, next at 1247503943, pending count: 1
[DRAM_CYCLE_ERROR] Cycle-based error applied! address=0x1323f3c8f0 additional_latency=173500 cycles
Heartbeat CPU 0 instructions: 430000038 cycles: 1247151626 heartbeat IPC: 0.5156 cumulative IPC: 0.3448 (Simulation time: 02 hr 01 min 20 sec)
[ERROR_CYCLE] Error added at CPU cycle 1247503943, next at 1254600384, pending count: 1
[DRAM_CYCLE_ERROR] Cycle-based error applied! address=0xf7ec67878 additional_latency=173500 cycles
[ERROR_CYCLE] Error added at CPU cycle 1254600384, next at 1254717674, pending count: 1
[DRAM_CYCLE_ERROR] Cycle-based error applied! address=0x1873fa9468 additional_latency=173500 cycles
[ERROR_CYCLE] Error added at CPU cycle 1254717674, next at 1256963700, pending count: 1
[DRAM_CYCLE_ERROR] Cycle-based error applied! address=0x138872dfb8 additional_latency=173500 cycles
[ERROR_CYCLE] Error added at CPU cycle 1256963700, next at 1257921434, pending count: 1
[DRAM_CYCLE_ERROR] Cycle-based error applied! address=0xad0409e58 additional_latency=173500 cycles
[ERROR_CYCLE] Error added at CPU cycle 1257921435, next at 1268455648, pending count: 1
[DRAM_CYCLE_ERROR] Cycle-based error applied! address=0x1bc6928020 additional_latency=173500 cycles
[ERROR_CYCLE] Error added at CPU cycle 1268455648, next at 1269143707, pending count: 1
[DRAM_CYCLE_ERROR] Cycle-based error applied! address=0xa1be2c630 additional_latency=173500 cycles
[ERROR_CYCLE] Error added at CPU cycle 1269143707, next at 1278558868, pending count: 1
[DRAM_CYCLE_ERROR] Cycle-based error applied! address=0x1c45b83190 additional_latency=173500 cycles
[ERROR_CYCLE] Error added at CPU cycle 1278558869, next at 1287946456, pending count: 1
[DRAM_CYCLE_ERROR] Cycle-based error applied! address=0x15cd1b3930 additional_latency=173500 cycles
[ERROR_CYCLE] Error added at CPU cycle 1287946456, next at 1300702152, pending count: 1
[DRAM_CYCLE_ERROR] Cycle-based error applied! address=0x5a1a27190 additional_latency=173500 cycles
Heartbeat CPU 0 instructions: 440000040 cycles: 1296894221 heartbeat IPC: 0.201 cumulative IPC: 0.3393 (Simulation time: 02 hr 05 min 52 sec)
[ERROR_CYCLE] Error added at CPU cycle 1300702153, next at 1309431894, pending count: 1
[DRAM_CYCLE_ERROR] Cycle-based error applied! address=0xd4aef08d8 additional_latency=173500 cycles
Heartbeat CPU 0 instructions: 450000041 cycles: 1307438256 heartbeat IPC: 0.9484 cumulative IPC: 0.3442 (Simulation time: 02 hr 07 min 00 sec)
[ERROR_CYCLE] Error added at CPU cycle 1309431894, next at 1315837204, pending count: 1
[DRAM_CYCLE_ERROR] Cycle-based error applied! address=0x18ae2e8a18 additional_latency=173500 cycles
[ERROR_CYCLE] Error added at CPU cycle 1315837204, next at 1321488363, pending count: 1
[DRAM_CYCLE_ERROR] Cycle-based error applied! address=0x361f67ac0 additional_latency=173500 cycles
[ERROR_CYCLE] Error added at CPU cycle 1321488363, next at 1323047984, pending count: 1
[DRAM_CYCLE_ERROR] Cycle-based error applied! address=0x12b47ca258 additional_latency=173500 cycles
[ERROR_CYCLE] Error added at CPU cycle 1323047984, next at 1325903536, pending count: 1
[DRAM_CYCLE_ERROR] Cycle-based error applied! address=0x1fdd8c4c60 additional_latency=173500 cycles
[ERROR_CYCLE] Error added at CPU cycle 1325903536, next at 1326611268, pending count: 1
[DRAM_CYCLE_ERROR] Cycle-based error applied! address=0xc47e3c8c0 additional_latency=173500 cycles
[ERROR_CYCLE] Error added at CPU cycle 1326611268, next at 1332705889, pending count: 1
Heartbeat CPU 0 instructions: 460000041 cycles: 1326840670 heartbeat IPC: 0.5154 cumulative IPC: 0.3467 (Simulation time: 02 hr 08 min 43 sec)
[DRAM_CYCLE_ERROR] Cycle-based error applied! address=0x1aa3e7ae30 additional_latency=173500 cycles
[ERROR_CYCLE] Error added at CPU cycle 1332705890, next at 1340847840, pending count: 1
[DRAM_CYCLE_ERROR] Cycle-based error applied! address=0x177450b98 additional_latency=173500 cycles
Heartbeat CPU 0 instructions: 470000041 cycles: 1338972158 heartbeat IPC: 0.8243 cumulative IPC: 0.351 (Simulation time: 02 hr 10 min 04 sec)
[ERROR_CYCLE] Error added at CPU cycle 1340847840, next at 1345469816, pending count: 1
[DRAM_CYCLE_ERROR] Cycle-based error applied! address=0x8269f84f0 additional_latency=173500 cycles
[ERROR_CYCLE] Error added at CPU cycle 1345469816, next at 1345959592, pending count: 1
[DRAM_CYCLE_ERROR] Cycle-based error applied! address=0x1149a8ad80 additional_latency=173500 cycles
[ERROR_CYCLE] Error added at CPU cycle 1345959593, next at 1347625360, pending count: 1
[DRAM_CYCLE_ERROR] Cycle-based error applied! address=0x600ec2610 additional_latency=173500 cycles
[ERROR_CYCLE] Error added at CPU cycle 1347625360, next at 1351706167, pending count: 1
[DRAM_CYCLE_ERROR] Cycle-based error applied! address=0x1c4909a5f8 additional_latency=173500 cycles
[ERROR_CYCLE] Error added at CPU cycle 1351706167, next at 1358933144, pending count: 1
[DRAM_CYCLE_ERROR] Cycle-based error applied! address=0x18467593c0 additional_latency=173500 cycles
Heartbeat CPU 0 instructions: 480000042 cycles: 1353917386 heartbeat IPC: 0.6691 cumulative IPC: 0.3545 (Simulation time: 02 hr 11 min 36 sec)
[ERROR_CYCLE] Error added at CPU cycle 1358933144, next at 1370326360, pending count: 1
[DRAM_CYCLE_ERROR] Cycle-based error applied! address=0x1ae87e7e8 additional_latency=173500 cycles
[ERROR_CYCLE] Error added at CPU cycle 1370326360, next at 1379014015, pending count: 1
[DRAM_CYCLE_ERROR] Cycle-based error applied! address=0x18a5922b80 additional_latency=173500 cycles
[ERROR_CYCLE] Error added at CPU cycle 1379014016, next at 1379564513, pending count: 1
[DRAM_CYCLE_ERROR] Cycle-based error applied! address=0x185c9d05c0 additional_latency=173500 cycles
[ERROR_CYCLE] Error added at CPU cycle 1379564514, next at 1386176235, pending count: 1
[DRAM_CYCLE_ERROR] Cycle-based error applied! address=0x14724fba10 additional_latency=173500 cycles
[ERROR_CYCLE] Error added at CPU cycle 1386176235, next at 1386297657, pending count: 1
[DRAM_CYCLE_ERROR] Cycle-based error applied! address=0x156213cda0 additional_latency=173500 cycles
[ERROR_CYCLE] Error added at CPU cycle 1386297657, next at 1408852266, pending count: 1
[DRAM_CYCLE_ERROR] Cycle-based error applied! address=0x14a5ac21f8 additional_latency=173500 cycles
Heartbeat CPU 0 instructions: 490000043 cycles: 1400897637 heartbeat IPC: 0.2129 cumulative IPC: 0.3498 (Simulation time: 02 hr 15 min 34 sec)
[ERROR_CYCLE] Error added at CPU cycle 1408852267, next at 1434518356, pending count: 1
[DRAM_CYCLE_ERROR] Cycle-based error applied! address=0x63d7f7448 additional_latency=173500 cycles
Heartbeat CPU 0 instructions: 500000046 cycles: 1420467660 heartbeat IPC: 0.511 cumulative IPC: 0.352 (Simulation time: 02 hr 17 min 18 sec)
[ERROR_CYCLE] Error added at CPU cycle 1434518357, next at 1435050701, pending count: 1
[DRAM_CYCLE_ERROR] Cycle-based error applied! address=0x13603f1c00 additional_latency=173500 cycles
[ERROR_CYCLE] Error added at CPU cycle 1435050702, next at 1438242552, pending count: 1
[DRAM_CYCLE_ERROR] Cycle-based error applied! address=0x19be816da0 additional_latency=173500 cycles
[ERROR_CYCLE] Error added at CPU cycle 1438242552, next at 1439973246, pending count: 1
[DRAM_CYCLE_ERROR] Cycle-based error applied! address=0x289866d00 additional_latency=173500 cycles
[ERROR_CYCLE] Error added at CPU cycle 1439973247, next at 1453079371, pending count: 1
[DRAM_CYCLE_ERROR] Cycle-based error applied! address=0x55d636880 additional_latency=173500 cycles
Heartbeat CPU 0 instructions: 510000047 cycles: 1440407060 heartbeat IPC: 0.5015 cumulative IPC: 0.3541 (Simulation time: 02 hr 18 min 56 sec)
[ERROR_CYCLE] Error added at CPU cycle 1453079372, next at 1460423027, pending count: 1
[DRAM_CYCLE_ERROR] Cycle-based error applied! address=0x99c757d0 additional_latency=173500 cycles
Heartbeat CPU 0 instructions: 520000048 cycles: 1453611114 heartbeat IPC: 0.7573 cumulative IPC: 0.3577 (Simulation time: 02 hr 20 min 09 sec)
[ERROR_CYCLE] Error added at CPU cycle 1460423028, next at 1467814764, pending count: 1
[DRAM_CYCLE_ERROR] Cycle-based error applied! address=0x99c757d0 additional_latency=173500 cycles
[ERROR_CYCLE] Error added at CPU cycle 1467814764, next at 1475620213, pending count: 1
[DRAM_CYCLE_ERROR] Cycle-based error applied! address=0x1a7ee2b3a0 additional_latency=173500 cycles
Heartbeat CPU 0 instructions: 530000052 cycles: 1470818963 heartbeat IPC: 0.5811 cumulative IPC: 0.3603 (Simulation time: 02 hr 21 min 45 sec)
[ERROR_CYCLE] Error added at CPU cycle 1475620214, next at 1480513243, pending count: 1
[DRAM_CYCLE_ERROR] Cycle-based error applied! address=0x135872c888 additional_latency=173500 cycles
[ERROR_CYCLE] Error added at CPU cycle 1480513244, next at 1511248733, pending count: 1
[DRAM_CYCLE_ERROR] Cycle-based error applied! address=0x6cff52900 additional_latency=173500 cycles
[ERROR_CYCLE] Error added at CPU cycle 1511248733, next at 1514446758, pending count: 1
[DRAM_CYCLE_ERROR] Cycle-based error applied! address=0x156a3ef08 additional_latency=173500 cycles
Heartbeat CPU 0 instructions: 540000053 cycles: 1514295314 heartbeat IPC: 0.23 cumulative IPC: 0.3566 (Simulation time: 02 hr 25 min 32 sec)
[ERROR_CYCLE] Error added at CPU cycle 1514446758, next at 1515078884, pending count: 1
[DRAM_CYCLE_ERROR] Cycle-based error applied! address=0x1fe9340810 additional_latency=173500 cycles
[ERROR_CYCLE] Error added at CPU cycle 1515078885, next at 1517294807, pending count: 1
[DRAM_CYCLE_ERROR] Cycle-based error applied! address=0xfe9dedf40 additional_latency=173500 cycles
[ERROR_CYCLE] Error added at CPU cycle 1517294807, next at 1519651159, pending count: 1
[DRAM_CYCLE_ERROR] Cycle-based error applied! address=0x9fe4387b8 additional_latency=173500 cycles
[ERROR_CYCLE] Error added at CPU cycle 1519651159, next at 1533218412, pending count: 1
[DRAM_CYCLE_ERROR] Cycle-based error applied! address=0x182ae9d028 additional_latency=173500 cycles
[ERROR_CYCLE] Error added at CPU cycle 1533218412, next at 1535994456, pending count: 1
[DRAM_CYCLE_ERROR] Cycle-based error applied! address=0x116d500240 additional_latency=173500 cycles
[ERROR_CYCLE] Error added at CPU cycle 1535994457, next at 1562717751, pending count: 1
[DRAM_CYCLE_ERROR] Cycle-based error applied! address=0xc829963e0 additional_latency=173500 cycles
[ERROR_CYCLE] Error added at CPU cycle 1562717751, next at 1566368072, pending count: 1
[DRAM_CYCLE_ERROR] Cycle-based error applied! address=0x1aacbab8e0 additional_latency=173500 cycles
[ERROR_CYCLE] Error added at CPU cycle 1566368073, next at 1571530525, pending count: 1
[DRAM_CYCLE_ERROR] Cycle-based error applied! address=0x10dec87cf0 additional_latency=173500 cycles
Heartbeat CPU 0 instructions: 550000054 cycles: 1569524958 heartbeat IPC: 0.1811 cumulative IPC: 0.3504 (Simulation time: 02 hr 30 min 11 sec)
[ERROR_CYCLE] Error added at CPU cycle 1571530526, next at 1580555846, pending count: 1
[DRAM_CYCLE_ERROR] Cycle-based error applied! address=0x41610cf90 additional_latency=173500 cycles
[ERROR_CYCLE] Error added at CPU cycle 1580555846, next at 1582872549, pending count: 1
[DRAM_CYCLE_ERROR] Cycle-based error applied! address=0x42bd3a510 additional_latency=173500 cycles
[ERROR_CYCLE] Error added at CPU cycle 1582872550, next at 1599922964, pending count: 1
[DRAM_CYCLE_ERROR] Cycle-based error applied! address=0x2bf5f218 additional_latency=173500 cycles
[ERROR_CYCLE] Error added at CPU cycle 1599922964, next at 1631974949, pending count: 1
[DRAM_CYCLE_ERROR] Cycle-based error applied! address=0x1e50aef010 additional_latency=173500 cycles
Heartbeat CPU 0 instructions: 560000054 cycles: 1623472249 heartbeat IPC: 0.1854 cumulative IPC: 0.3449 (Simulation time: 02 hr 34 min 35 sec)
[ERROR_CYCLE] Error added at CPU cycle 1631974950, next at 1633180686, pending count: 1
[DRAM_CYCLE_ERROR] Cycle-based error applied! address=0x1a2f517bc8 additional_latency=173500 cycles
[ERROR_CYCLE] Error added at CPU cycle 1633180686, next at 1638048642, pending count: 1
[DRAM_CYCLE_ERROR] Cycle-based error applied! address=0x1389d14b38 additional_latency=173500 cycles
[ERROR_CYCLE] Error added at CPU cycle 1638048642, next at 1645854556, pending count: 1
[DRAM_CYCLE_ERROR] Cycle-based error applied! address=0x2f5622a38 additional_latency=173500 cycles
[ERROR_CYCLE] Error added at CPU cycle 1645854557, next at 1648355040, pending count: 1
[DRAM_CYCLE_ERROR] Cycle-based error applied! address=0xdab781178 additional_latency=173500 cycles
[ERROR_CYCLE] Error added at CPU cycle 1648355040, next at 1665069057, pending count: 1
[DRAM_CYCLE_ERROR] Cycle-based error applied! address=0x1a65436cb8 additional_latency=173500 cycles
[ERROR_CYCLE] Error added at CPU cycle 1665069058, next at 1669208916, pending count: 1
[DRAM_CYCLE_ERROR] Cycle-based error applied! address=0x10aea7e228 additional_latency=173500 cycles
[ERROR_CYCLE] Error added at CPU cycle 1669208917, next at 1697675054, pending count: 1
[DRAM_CYCLE_ERROR] Cycle-based error applied! address=0xfe51013d8 additional_latency=173500 cycles
Heartbeat CPU 0 instructions: 570000057 cycles: 1676068345 heartbeat IPC: 0.1901 cumulative IPC: 0.3401 (Simulation time: 02 hr 39 min 34 sec)
[ERROR_CYCLE] Error added at CPU cycle 1697675055, next at 1701675293, pending count: 1
[DRAM_CYCLE_ERROR] Cycle-based error applied! address=0xe2cf49cf0 additional_latency=173500 cycles
[ERROR_CYCLE] Error added at CPU cycle 1701675294, next at 1708716282, pending count: 1
[DRAM_CYCLE_ERROR] Cycle-based error applied! address=0x11a1d2cf60 additional_latency=173500 cycles
[ERROR_CYCLE] Error added at CPU cycle 1708716282, next at 1709439797, pending count: 1
[DRAM_CYCLE_ERROR] Cycle-based error applied! address=0x1b66f40820 additional_latency=173500 cycles
[ERROR_CYCLE] Error added at CPU cycle 1709439798, next at 1711563017, pending count: 1
[DRAM_CYCLE_ERROR] Cycle-based error applied! address=0x1d635330c0 additional_latency=173500 cycles
[ERROR_CYCLE] Error added at CPU cycle 1711563017, next at 1715003487, pending count: 1
[DRAM_CYCLE_ERROR] Cycle-based error applied! address=0x34ffa38c0 additional_latency=173500 cycles
[ERROR_CYCLE] Error added at CPU cycle 1715003488, next at 1715066771, pending count: 1
[DRAM_CYCLE_ERROR] Cycle-based error applied! address=0x116a830dd8 additional_latency=173500 cycles
[ERROR_CYCLE] Error added at CPU cycle 1715066772, next at 1736135364, pending count: 1
[DRAM_CYCLE_ERROR] Cycle-based error applied! address=0x12bd541a88 additional_latency=173500 cycles
Heartbeat CPU 0 instructions: 580000060 cycles: 1727774645 heartbeat IPC: 0.1934 cumulative IPC: 0.3357 (Simulation time: 02 hr 44 min 23 sec)
[ERROR_CYCLE] Error added at CPU cycle 1736135365, next at 1736452711, pending count: 1
[DRAM_CYCLE_ERROR] Cycle-based error applied! address=0xc3a564638 additional_latency=173500 cycles
[ERROR_CYCLE] Error added at CPU cycle 1736452711, next at 1756027423, pending count: 1
[DRAM_CYCLE_ERROR] Cycle-based error applied! address=0x1f5c0f4f40 additional_latency=173500 cycles
[ERROR_CYCLE] Error added at CPU cycle 1756027423, next at 1763549234, pending count: 1
[DRAM_CYCLE_ERROR] Cycle-based error applied! address=0x1b5a9c83b8 additional_latency=173500 cycles
[ERROR_CYCLE] Error added at CPU cycle 1763549234, next at 1773768970, pending count: 1
[DRAM_CYCLE_ERROR] Cycle-based error applied! address=0x7e22d8c80 additional_latency=173500 cycles
[ERROR_CYCLE] Error added at CPU cycle 1773768971, next at 1778443844, pending count: 1
[DRAM_CYCLE_ERROR] Cycle-based error applied! address=0x130c4c14f0 additional_latency=173500 cycles
[ERROR_CYCLE] Error added at CPU cycle 1778443844, next at 1782835365, pending count: 1
[DRAM_CYCLE_ERROR] Cycle-based error applied! address=0x12867548a0 additional_latency=173500 cycles
Heartbeat CPU 0 instructions: 590000060 cycles: 1780359397 heartbeat IPC: 0.1902 cumulative IPC: 0.3314 (Simulation time: 02 hr 48 min 29 sec)
[ERROR_CYCLE] Error added at CPU cycle 1782835365, next at 1785615858, pending count: 1
[DRAM_CYCLE_ERROR] Cycle-based error applied! address=0x55859af78 additional_latency=173500 cycles
[ERROR_CYCLE] Error added at CPU cycle 1785615859, next at 1788412747, pending count: 1
[DRAM_CYCLE_ERROR] Cycle-based error applied! address=0x119f631c18 additional_latency=173500 cycles
[ERROR_CYCLE] Error added at CPU cycle 1788412747, next at 1790117615, pending count: 1
[DRAM_CYCLE_ERROR] Cycle-based error applied! address=0x9c1d95e8 additional_latency=173500 cycles
[ERROR_CYCLE] Error added at CPU cycle 1790117615, next at 1798464365, pending count: 1
[DRAM_CYCLE_ERROR] Cycle-based error applied! address=0x8ed597040 additional_latency=173500 cycles
[ERROR_CYCLE] Error added at CPU cycle 1798464365, next at 1814844775, pending count: 1
[DRAM_CYCLE_ERROR] Cycle-based error applied! address=0x74ae806a0 additional_latency=173500 cycles
[ERROR_CYCLE] Error added at CPU cycle 1814844776, next at 1830785667, pending count: 1
[DRAM_CYCLE_ERROR] Cycle-based error applied! address=0x8ea0e99f0 additional_latency=173500 cycles
[ERROR_CYCLE] Error added at CPU cycle 1830785668, next at 1835439145, pending count: 1
[DRAM_CYCLE_ERROR] Cycle-based error applied! address=0xdcba6a620 additional_latency=173500 cycles
Heartbeat CPU 0 instructions: 600000061 cycles: 1831921792 heartbeat IPC: 0.1939 cumulative IPC: 0.3275 (Simulation time: 02 hr 52 min 31 sec)
[ERROR_CYCLE] Error added at CPU cycle 1835439146, next at 1836059153, pending count: 1
[DRAM_CYCLE_ERROR] Cycle-based error applied! address=0x1f837b01c0 additional_latency=173500 cycles
[ERROR_CYCLE] Error added at CPU cycle 1836059154, next at 1837493634, pending count: 1
[DRAM_CYCLE_ERROR] Cycle-based error applied! address=0x1e0eb3e540 additional_latency=173500 cycles
[ERROR_CYCLE] Error added at CPU cycle 1837493635, next at 1844607626, pending count: 1
[DRAM_CYCLE_ERROR] Cycle-based error applied! address=0xd08a1a90 additional_latency=173500 cycles
[ERROR_CYCLE] Error added at CPU cycle 1844607626, next at 1854071328, pending count: 1
[DRAM_CYCLE_ERROR] Cycle-based error applied! address=0x1008694e38 additional_latency=173500 cycles
[ERROR_CYCLE] Error added at CPU cycle 1854071328, next at 1855472322, pending count: 1
[DRAM_CYCLE_ERROR] Cycle-based error applied! address=0xf7185def8 additional_latency=173500 cycles
[ERROR_CYCLE] Error added at CPU cycle 1855472323, next at 1857304410, pending count: 1
[DRAM_CYCLE_ERROR] Cycle-based error applied! address=0x4cf15c740 additional_latency=173500 cycles
[ERROR_CYCLE] Error added at CPU cycle 1857304410, next at 1862584605, pending count: 1
[DRAM_CYCLE_ERROR] Cycle-based error applied! address=0xc5d834c88 additional_latency=173500 cycles
[ERROR_CYCLE] Error added at CPU cycle 1862584605, next at 1864393960, pending count: 1
[DRAM_CYCLE_ERROR] Cycle-based error applied! address=0x1796d86f30 additional_latency=173500 cycles
[ERROR_CYCLE] Error added at CPU cycle 1864393960, next at 1864933537, pending count: 1
[DRAM_CYCLE_ERROR] Cycle-based error applied! address=0x9d6711678 additional_latency=173500 cycles
[ERROR_CYCLE] Error added at CPU cycle 1864933537, next at 1865851525, pending count: 1
[DRAM_CYCLE_ERROR] Cycle-based error applied! address=0xf3b2022f8 additional_latency=173500 cycles
[ERROR_CYCLE] Error added at CPU cycle 1865851526, next at 1867251092, pending count: 1
[DRAM_CYCLE_ERROR] Cycle-based error applied! address=0x27e844918 additional_latency=173500 cycles
[ERROR_CYCLE] Error added at CPU cycle 1867251092, next at 1900500575, pending count: 1
[DRAM_CYCLE_ERROR] Cycle-based error applied! address=0x167bfdcb80 additional_latency=173500 cycles
Heartbeat CPU 0 instructions: 610000062 cycles: 1883469211 heartbeat IPC: 0.194 cumulative IPC: 0.3239 (Simulation time: 02 hr 57 min 29 sec)
[ERROR_CYCLE] Error added at CPU cycle 1900500576, next at 1910563094, pending count: 1
[DRAM_CYCLE_ERROR] Cycle-based error applied! address=0x1e9220b1d0 additional_latency=173500 cycles
[ERROR_CYCLE] Error added at CPU cycle 1910563095, next at 1915408338, pending count: 1
[DRAM_CYCLE_ERROR] Cycle-based error applied! address=0x154b07e6a0 additional_latency=173500 cycles
[ERROR_CYCLE] Error added at CPU cycle 1915408338, next at 1935312457, pending count: 1
[DRAM_CYCLE_ERROR] Cycle-based error applied! address=0x122a627418 additional_latency=173500 cycles
Heartbeat CPU 0 instructions: 620000063 cycles: 1932497960 heartbeat IPC: 0.204 cumulative IPC: 0.3208 (Simulation time: 03 hr 02 min 10 sec)
[ERROR_CYCLE] Error added at CPU cycle 1935312457, next at 1939316428, pending count: 1
[DRAM_CYCLE_ERROR] Cycle-based error applied! address=0x46bebc100 additional_latency=173500 cycles
[ERROR_CYCLE] Error added at CPU cycle 1939316429, next at 1943440983, pending count: 1
[DRAM_CYCLE_ERROR] Cycle-based error applied! address=0x1e6aa4f30 additional_latency=173500 cycles
[ERROR_CYCLE] Error added at CPU cycle 1943440984, next at 1969741263, pending count: 1
[DRAM_CYCLE_ERROR] Cycle-based error applied! address=0x1a8e77d2c8 additional_latency=173500 cycles
[ERROR_CYCLE] Error added at CPU cycle 1969741263, next at 1976892412, pending count: 1
[DRAM_CYCLE_ERROR] Cycle-based error applied! address=0x9d7e3bad0 additional_latency=173500 cycles
[ERROR_CYCLE] Error added at CPU cycle 1976892413, next at 1985788570, pending count: 1
[DRAM_CYCLE_ERROR] Cycle-based error applied! address=0x16ccb96400 additional_latency=173500 cycles
Heartbeat CPU 0 instructions: 630000065 cycles: 1980840879 heartbeat IPC: 0.2069 cumulative IPC: 0.318 (Simulation time: 03 hr 06 min 16 sec)
[ERROR_CYCLE] Error added at CPU cycle 1985788571, next at 1987556565, pending count: 1
[DRAM_CYCLE_ERROR] Cycle-based error applied! address=0x16ba32b3b0 additional_latency=173500 cycles
[ERROR_CYCLE] Error added at CPU cycle 1987556566, next at 1990261281, pending count: 1
[DRAM_CYCLE_ERROR] Cycle-based error applied! address=0x1bfe40bd40 additional_latency=173500 cycles
[ERROR_CYCLE] Error added at CPU cycle 1990261282, next at 1993701914, pending count: 1
[DRAM_CYCLE_ERROR] Cycle-based error applied! address=0x15d9371b30 additional_latency=173500 cycles
[ERROR_CYCLE] Error added at CPU cycle 1993701914, next at 2004551432, pending count: 1
[DRAM_CYCLE_ERROR] Cycle-based error applied! address=0x12641afef8 additional_latency=173500 cycles
[ERROR_CYCLE] Error added at CPU cycle 2004551432, next at 2012423380, pending count: 1
[DRAM_CYCLE_ERROR] Cycle-based error applied! address=0x18b76b4260 additional_latency=173500 cycles
[ERROR_CYCLE] Error added at CPU cycle 2012423380, next at 2016554019, pending count: 1
[DRAM_CYCLE_ERROR] Cycle-based error applied! address=0x23c3e4648 additional_latency=173500 cycles
[ERROR_CYCLE] Error added at CPU cycle 2016554019, next at 2021582144, pending count: 1
[DRAM_CYCLE_ERROR] Cycle-based error applied! address=0x43d381580 additional_latency=173500 cycles
[ERROR_CYCLE] Error added at CPU cycle 2021582145, next at 2027830179, pending count: 1
[DRAM_CYCLE_ERROR] Cycle-based error applied! address=0x12a2665d20 additional_latency=173500 cycles
Heartbeat CPU 0 instructions: 640000065 cycles: 2027664391 heartbeat IPC: 0.2136 cumulative IPC: 0.3156 (Simulation time: 03 hr 10 min 54 sec)
[ERROR_CYCLE] Error added at CPU cycle 2027830180, next at 2031708010, pending count: 1
[DRAM_CYCLE_ERROR] Cycle-based error applied! address=0x14cfea0510 additional_latency=173500 cycles
[ERROR_CYCLE] Error added at CPU cycle 2031708011, next at 2033085878, pending count: 1
[DRAM_CYCLE_ERROR] Cycle-based error applied! address=0xc12b8c208 additional_latency=173500 cycles
[ERROR_CYCLE] Error added at CPU cycle 2033085879, next at 2050412514, pending count: 1
[DRAM_CYCLE_ERROR] Cycle-based error applied! address=0x2c006fe40 additional_latency=173500 cycles
[ERROR_CYCLE] Error added at CPU cycle 2050412514, next at 2059398746, pending count: 1
[DRAM_CYCLE_ERROR] Cycle-based error applied! address=0x1161a2cf40 additional_latency=173500 cycles
[ERROR_CYCLE] Error added at CPU cycle 2059398746, next at 2067629437, pending count: 1
[DRAM_CYCLE_ERROR] Cycle-based error applied! address=0xee34412e0 additional_latency=173500 cycles
[ERROR_CYCLE] Error added at CPU cycle 2067629437, next at 2106934259, pending count: 1
[DRAM_CYCLE_ERROR] Cycle-based error applied! address=0x1232d841a8 additional_latency=173500 cycles
Heartbeat CPU 0 instructions: 650000065 cycles: 2083159157 heartbeat IPC: 0.1802 cumulative IPC: 0.312 (Simulation time: 03 hr 16 min 06 sec)
[ERROR_CYCLE] Error added at CPU cycle 2106934259, next at 2110315627, pending count: 1
[DRAM_CYCLE_ERROR] Cycle-based error applied! address=0x1512296250 additional_latency=173500 cycles
[ERROR_CYCLE] Error added at CPU cycle 2110315627, next at 2118569518, pending count: 1
[DRAM_CYCLE_ERROR] Cycle-based error applied! address=0x4b9aedfb8 additional_latency=173500 cycles
[ERROR_CYCLE] Error added at CPU cycle 2118569518, next at 2119210001, pending count: 1
[DRAM_CYCLE_ERROR] Cycle-based error applied! address=0x1eb19528a0 additional_latency=173500 cycles
[ERROR_CYCLE] Error added at CPU cycle 2119210001, next at 2124520168, pending count: 1
[DRAM_CYCLE_ERROR] Cycle-based error applied! address=0x1b2489e038 additional_latency=173500 cycles
[ERROR_CYCLE] Error added at CPU cycle 2124520168, next at 2130820746, pending count: 1
[DRAM_CYCLE_ERROR] Cycle-based error applied! address=0x98be55638 additional_latency=173500 cycles
[ERROR_CYCLE] Error added at CPU cycle 2130820746, next at 2149422911, pending count: 1
[DRAM_CYCLE_ERROR] Cycle-based error applied! address=0x4c2bc7c88 additional_latency=173500 cycles
Heartbeat CPU 0 instructions: 660000066 cycles: 2144473141 heartbeat IPC: 0.1631 cumulative IPC: 0.3078 (Simulation time: 03 hr 21 min 31 sec)
[ERROR_CYCLE] Error added at CPU cycle 2149422912, next at 2165592258, pending count: 1
[DRAM_CYCLE_ERROR] Cycle-based error applied! address=0x7801fa500 additional_latency=173500 cycles
[ERROR_CYCLE] Error added at CPU cycle 2165592259, next at 2166000139, pending count: 1
[DRAM_CYCLE_ERROR] Cycle-based error applied! address=0x13f8978430 additional_latency=173500 cycles
[ERROR_CYCLE] Error added at CPU cycle 2166000139, next at 2169428774, pending count: 1
[DRAM_CYCLE_ERROR] Cycle-based error applied! address=0x3d0ea9238 additional_latency=173500 cycles
[ERROR_CYCLE] Error added at CPU cycle 2169428774, next at 2177935414, pending count: 1
[DRAM_CYCLE_ERROR] Cycle-based error applied! address=0x1470201818 additional_latency=173500 cycles
[ERROR_CYCLE] Error added at CPU cycle 2177935415, next at 2187353454, pending count: 1
[DRAM_CYCLE_ERROR] Cycle-based error applied! address=0x1c284e48d8 additional_latency=173500 cycles
[ERROR_CYCLE] Error added at CPU cycle 2187353454, next at 2210064718, pending count: 1
[DRAM_CYCLE_ERROR] Cycle-based error applied! address=0x17ec8f6ad0 additional_latency=173500 cycles
Heartbeat CPU 0 instructions: 670000070 cycles: 2208172981 heartbeat IPC: 0.157 cumulative IPC: 0.3034 (Simulation time: 03 hr 27 min 12 sec)
[ERROR_CYCLE] Error added at CPU cycle 2210064719, next at 2214888135, pending count: 1
[DRAM_CYCLE_ERROR] Cycle-based error applied! address=0x1f0f19ec20 additional_latency=173500 cycles
[ERROR_CYCLE] Error added at CPU cycle 2214888136, next at 2227682588, pending count: 1
[DRAM_CYCLE_ERROR] Cycle-based error applied! address=0x11ed973a80 additional_latency=173500 cycles
[ERROR_CYCLE] Error added at CPU cycle 2227682589, next at 2233464834, pending count: 1
[DRAM_CYCLE_ERROR] Cycle-based error applied! address=0x8b5ab91f8 additional_latency=173500 cycles
[ERROR_CYCLE] Error added at CPU cycle 2233464834, next at 2241434258, pending count: 1
[DRAM_CYCLE_ERROR] Cycle-based error applied! address=0x54b0b0fc0 additional_latency=173500 cycles
[ERROR_CYCLE] Error added at CPU cycle 2241434259, next at 2241811042, pending count: 1
[DRAM_CYCLE_ERROR] Cycle-based error applied! address=0x1d030b1500 additional_latency=173500 cycles
[ERROR_CYCLE] Error added at CPU cycle 2241811042, next at 2244262384, pending count: 1
[DRAM_CYCLE_ERROR] Cycle-based error applied! address=0x15e6f7ad80 additional_latency=173500 cycles
[ERROR_CYCLE] Error added at CPU cycle 2244262384, next at 2247145011, pending count: 1
[DRAM_CYCLE_ERROR] Cycle-based error applied! address=0xae15c9820 additional_latency=173500 cycles
[ERROR_CYCLE] Error added at CPU cycle 2247145011, next at 2253047404, pending count: 1
[DRAM_CYCLE_ERROR] Cycle-based error applied! address=0x1c6426818 additional_latency=173500 cycles
[ERROR_CYCLE] Error added at CPU cycle 2253047405, next at 2261281241, pending count: 1
[DRAM_CYCLE_ERROR] Cycle-based error applied! address=0x10f8b58dc0 additional_latency=173500 cycles
[ERROR_CYCLE] Error added at CPU cycle 2261281241, next at 2288732855, pending count: 1
[DRAM_CYCLE_ERROR] Cycle-based error applied! address=0x18f4059678 additional_latency=173500 cycles
Heartbeat CPU 0 instructions: 680000072 cycles: 2279368437 heartbeat IPC: 0.1405 cumulative IPC: 0.2983 (Simulation time: 03 hr 32 min 32 sec)
[ERROR_CYCLE] Error added at CPU cycle 2288732855, next at 2296178606, pending count: 1
[DRAM_CYCLE_ERROR] Cycle-based error applied! address=0xf7a4aea70 additional_latency=173500 cycles
[ERROR_CYCLE] Error added at CPU cycle 2296178606, next at 2307270106, pending count: 1
[DRAM_CYCLE_ERROR] Cycle-based error applied! address=0x1d7515b0 additional_latency=173500 cycles
[ERROR_CYCLE] Error added at CPU cycle 2307270106, next at 2314261925, pending count: 1
[DRAM_CYCLE_ERROR] Cycle-based error applied! address=0x189c6c80c0 additional_latency=173500 cycles
[ERROR_CYCLE] Error added at CPU cycle 2314261925, next at 2319922213, pending count: 1
[DRAM_CYCLE_ERROR] Cycle-based error applied! address=0x1fe8a749c0 additional_latency=173500 cycles
[ERROR_CYCLE] Error added at CPU cycle 2319922214, next at 2337341922, pending count: 1
[DRAM_CYCLE_ERROR] Cycle-based error applied! address=0x1935367468 additional_latency=173500 cycles
[ERROR_CYCLE] Error added at CPU cycle 2337341923, next at 2341021142, pending count: 1
[DRAM_CYCLE_ERROR] Cycle-based error applied! address=0x1ceccf4510 additional_latency=173500 cycles
Heartbeat CPU 0 instructions: 690000076 cycles: 2339023243 heartbeat IPC: 0.1676 cumulative IPC: 0.295 (Simulation time: 03 hr 37 min 28 sec)
[ERROR_CYCLE] Error added at CPU cycle 2341021143, next at 2353732863, pending count: 1
[DRAM_CYCLE_ERROR] Cycle-based error applied! address=0x16fbcdf900 additional_latency=173500 cycles
[ERROR_CYCLE] Error added at CPU cycle 2353732863, next at 2354242305, pending count: 1
[DRAM_CYCLE_ERROR] Cycle-based error applied! address=0x18f70d4d08 additional_latency=173500 cycles
[ERROR_CYCLE] Error added at CPU cycle 2354242305, next at 2366128568, pending count: 1
[DRAM_CYCLE_ERROR] Cycle-based error applied! address=0xb67d81990 additional_latency=173500 cycles
[ERROR_CYCLE] Error added at CPU cycle 2366128568, next at 2378498969, pending count: 1
[DRAM_CYCLE_ERROR] Cycle-based error applied! address=0x1b168118b8 additional_latency=173500 cycles
Heartbeat CPU 0 instructions: 700000078 cycles: 2373599413 heartbeat IPC: 0.2892 cumulative IPC: 0.2949 (Simulation time: 03 hr 40 min 54 sec)
[ERROR_CYCLE] Error added at CPU cycle 2378498969, next at 2389561859, pending count: 1
[DRAM_CYCLE_ERROR] Cycle-based error applied! address=0x1aa3e7a6b8 additional_latency=173500 cycles
[ERROR_CYCLE] Error added at CPU cycle 2389561860, next at 2419565806, pending count: 1
[DRAM_CYCLE_ERROR] Cycle-based error applied! address=0x1f03d42f98 additional_latency=173500 cycles
Heartbeat CPU 0 instructions: 710000082 cycles: 2391526600 heartbeat IPC: 0.5578 cumulative IPC: 0.2969 (Simulation time: 03 hr 42 min 49 sec)
Heartbeat CPU 0 instructions: 720000084 cycles: 2412594712 heartbeat IPC: 0.4747 cumulative IPC: 0.2984 (Simulation time: 03 hr 44 min 42 sec)
[ERROR_CYCLE] Error added at CPU cycle 2419565807, next at 2420105318, pending count: 1
[DRAM_CYCLE_ERROR] Cycle-based error applied! address=0x1439f78b18 additional_latency=173500 cycles
[ERROR_CYCLE] Error added at CPU cycle 2420105319, next at 2431250999, pending count: 1
[DRAM_CYCLE_ERROR] Cycle-based error applied! address=0x13ab946b98 additional_latency=173500 cycles
Heartbeat CPU 0 instructions: 730000087 cycles: 2429230812 heartbeat IPC: 0.6011 cumulative IPC: 0.3005 (Simulation time: 03 hr 46 min 14 sec)
[ERROR_CYCLE] Error added at CPU cycle 2431250999, next at 2433725303, pending count: 1
[DRAM_CYCLE_ERROR] Cycle-based error applied! address=0x3213bc5d8 additional_latency=173500 cycles
[ERROR_CYCLE] Error added at CPU cycle 2433725304, next at 2439322859, pending count: 1
[DRAM_CYCLE_ERROR] Cycle-based error applied! address=0x14867548e0 additional_latency=173500 cycles
[ERROR_CYCLE] Error added at CPU cycle 2439322860, next at 2457183998, pending count: 1
[DRAM_CYCLE_ERROR] Cycle-based error applied! address=0x1787c626b0 additional_latency=173500 cycles
Heartbeat CPU 0 instructions: 740000087 cycles: 2440481724 heartbeat IPC: 0.8888 cumulative IPC: 0.3032 (Simulation time: 03 hr 47 min 34 sec)
[ERROR_CYCLE] Error added at CPU cycle 2457183998, next at 2460351086, pending count: 1
[DRAM_CYCLE_ERROR] Cycle-based error applied! address=0x162bc5f390 additional_latency=173500 cycles
[ERROR_CYCLE] Error added at CPU cycle 2460351086, next at 2481283387, pending count: 1
[DRAM_CYCLE_ERROR] Cycle-based error applied! address=0xf08e94688 additional_latency=173500 cycles
Heartbeat CPU 0 instructions: 750000088 cycles: 2464205770 heartbeat IPC: 0.4215 cumulative IPC: 0.3044 (Simulation time: 03 hr 50 min 04 sec)
Heartbeat CPU 0 instructions: 760000089 cycles: 2475478297 heartbeat IPC: 0.8871 cumulative IPC: 0.307 (Simulation time: 03 hr 51 min 25 sec)
[ERROR_CYCLE] Error added at CPU cycle 2481283387, next at 2484187671, pending count: 1
[DRAM_CYCLE_ERROR] Cycle-based error applied! address=0x135872c888 additional_latency=173500 cycles
[ERROR_CYCLE] Error added at CPU cycle 2484187671, next at 2496585366, pending count: 1
[DRAM_CYCLE_ERROR] Cycle-based error applied! address=0x19fac95da0 additional_latency=173500 cycles
Heartbeat CPU 0 instructions: 770000091 cycles: 2490470823 heartbeat IPC: 0.667 cumulative IPC: 0.3092 (Simulation time: 03 hr 53 min 06 sec)
[ERROR_CYCLE] Error added at CPU cycle 2496585366, next at 2518974390, pending count: 1
[DRAM_CYCLE_ERROR] Cycle-based error applied! address=0x3e1830580 additional_latency=173500 cycles
Heartbeat CPU 0 instructions: 780000093 cycles: 2516486585 heartbeat IPC: 0.3844 cumulative IPC: 0.31 (Simulation time: 03 hr 55 min 33 sec)
[ERROR_CYCLE] Error added at CPU cycle 2518974390, next at 2519350462, pending count: 1
[DRAM_CYCLE_ERROR] Cycle-based error applied! address=0x133a7122a0 additional_latency=173500 cycles
[ERROR_CYCLE] Error added at CPU cycle 2519350462, next at 2529791563, pending count: 1
[DRAM_CYCLE_ERROR] Cycle-based error applied! address=0xc739f5a00 additional_latency=173500 cycles
[ERROR_CYCLE] Error added at CPU cycle 2529791563, next at 2535624350, pending count: 1
[DRAM_CYCLE_ERROR] Cycle-based error applied! address=0x17d7b59ed0 additional_latency=173500 cycles
[ERROR_CYCLE] Error added at CPU cycle 2535624351, next at 2537193033, pending count: 1
[DRAM_CYCLE_ERROR] Cycle-based error applied! address=0x145a21cd0 additional_latency=173500 cycles
[ERROR_CYCLE] Error added at CPU cycle 2537193033, next at 2539406753, pending count: 1
[DRAM_CYCLE_ERROR] Cycle-based error applied! address=0x1247bcce78 additional_latency=173500 cycles
[ERROR_CYCLE] Error added at CPU cycle 2539406754, next at 2545392493, pending count: 1
[DRAM_CYCLE_ERROR] Cycle-based error applied! address=0x1cbe6f3290 additional_latency=173500 cycles
Heartbeat CPU 0 instructions: 790000093 cycles: 2542734502 heartbeat IPC: 0.381 cumulative IPC: 0.3107 (Simulation time: 03 hr 58 min 08 sec)
[ERROR_CYCLE] Error added at CPU cycle 2545392493, next at 2547873819, pending count: 1
[DRAM_CYCLE_ERROR] Cycle-based error applied! address=0x5bf452938 additional_latency=173500 cycles
[ERROR_CYCLE] Error added at CPU cycle 2547873820, next at 2553808031, pending count: 1
[DRAM_CYCLE_ERROR] Cycle-based error applied! address=0x1081f5add0 additional_latency=173500 cycles
[ERROR_CYCLE] Error added at CPU cycle 2553808032, next at 2557993327, pending count: 1
[DRAM_CYCLE_ERROR] Cycle-based error applied! address=0x2b3370498 additional_latency=173500 cycles
[ERROR_CYCLE] Error added at CPU cycle 2557993328, next at 2559354305, pending count: 1
[DRAM_CYCLE_ERROR] Cycle-based error applied! address=0x19162b06a8 additional_latency=173500 cycles
[ERROR_CYCLE] Error added at CPU cycle 2559354305, next at 2565617397, pending count: 1
[DRAM_CYCLE_ERROR] Cycle-based error applied! address=0x174224bd30 additional_latency=173500 cycles
[ERROR_CYCLE] Error added at CPU cycle 2565617398, next at 2589075952, pending count: 1
[DRAM_CYCLE_ERROR] Cycle-based error applied! address=0x841fabc38 additional_latency=173500 cycles
Heartbeat CPU 0 instructions: 800000093 cycles: 2588151005 heartbeat IPC: 0.2202 cumulative IPC: 0.3091 (Simulation time: 04 hr 02 min 33 sec)
[ERROR_CYCLE] Error added at CPU cycle 2589075953, next at 2593877875, pending count: 1
[DRAM_CYCLE_ERROR] Cycle-based error applied! address=0x190b2e23b8 additional_latency=173500 cycles
[ERROR_CYCLE] Error added at CPU cycle 2593877876, next at 2606344063, pending count: 1
[DRAM_CYCLE_ERROR] Cycle-based error applied! address=0x651d42840 additional_latency=173500 cycles
[ERROR_CYCLE] Error added at CPU cycle 2606344063, next at 2610704056, pending count: 1
[DRAM_CYCLE_ERROR] Cycle-based error applied! address=0x1b9ed348c0 additional_latency=173500 cycles
[ERROR_CYCLE] Error added at CPU cycle 2610704056, next at 2630475245, pending count: 1
[DRAM_CYCLE_ERROR] Cycle-based error applied! address=0xa5d3b80e0 additional_latency=173500 cycles
Heartbeat CPU 0 instructions: 810000094 cycles: 2623303406 heartbeat IPC: 0.2845 cumulative IPC: 0.3088 (Simulation time: 04 hr 05 min 36 sec)
[ERROR_CYCLE] Error added at CPU cycle 2630475246, next at 2640791493, pending count: 1
[DRAM_CYCLE_ERROR] Cycle-based error applied! address=0x1040bfaff8 additional_latency=173500 cycles
[ERROR_CYCLE] Error added at CPU cycle 2640791494, next at 2644247825, pending count: 1
[DRAM_CYCLE_ERROR] Cycle-based error applied! address=0x171f958a68 additional_latency=173500 cycles
[ERROR_CYCLE] Error added at CPU cycle 2644247825, next at 2656939740, pending count: 1
[DRAM_CYCLE_ERROR] Cycle-based error applied! address=0xa7aa1df60 additional_latency=173500 cycles
Heartbeat CPU 0 instructions: 820000094 cycles: 2651463398 heartbeat IPC: 0.3551 cumulative IPC: 0.3093 (Simulation time: 04 hr 08 min 05 sec)
[ERROR_CYCLE] Error added at CPU cycle 2656939740, next at 2661483893, pending count: 1
[DRAM_CYCLE_ERROR] Cycle-based error applied! address=0x12709294c0 additional_latency=173500 cycles
[ERROR_CYCLE] Error added at CPU cycle 2661483893, next at 2674328280, pending count: 1
[DRAM_CYCLE_ERROR] Cycle-based error applied! address=0x117e3b8398 additional_latency=173500 cycles
Heartbeat CPU 0 instructions: 830000094 cycles: 2672103265 heartbeat IPC: 0.4845 cumulative IPC: 0.3106 (Simulation time: 04 hr 10 min 07 sec)
[ERROR_CYCLE] Error added at CPU cycle 2674328280, next at 2679170229, pending count: 1
[DRAM_CYCLE_ERROR] Cycle-based error applied! address=0x5cae9ff10 additional_latency=173500 cycles
[ERROR_CYCLE] Error added at CPU cycle 2679170229, next at 2680204502, pending count: 1
[DRAM_CYCLE_ERROR] Cycle-based error applied! address=0x71da64630 additional_latency=173500 cycles
[ERROR_CYCLE] Error added at CPU cycle 2680204502, next at 2680931504, pending count: 1
[DRAM_CYCLE_ERROR] Cycle-based error applied! address=0x1c0b0d1fe8 additional_latency=173500 cycles
[ERROR_CYCLE] Error added at CPU cycle 2680931505, next at 2683649452, pending count: 1
[DRAM_CYCLE_ERROR] Cycle-based error applied! address=0x146c459a30 additional_latency=173500 cycles
[ERROR_CYCLE] Error added at CPU cycle 2683649453, next at 2691489675, pending count: 1
[DRAM_CYCLE_ERROR] Cycle-based error applied! address=0x1e512d0f00 additional_latency=173500 cycles
[ERROR_CYCLE] Error added at CPU cycle 2691489675, next at 2695565770, pending count: 1
[DRAM_CYCLE_ERROR] Cycle-based error applied! address=0x47c9653d0 additional_latency=173500 cycles
[ERROR_CYCLE] Error added at CPU cycle 2695565771, next at 2722764317, pending count: 1
[DRAM_CYCLE_ERROR] Cycle-based error applied! address=0x5d6d2ef08 additional_latency=173500 cycles
Heartbeat CPU 0 instructions: 840000097 cycles: 2715658849 heartbeat IPC: 0.2296 cumulative IPC: 0.3093 (Simulation time: 04 hr 13 min 55 sec)
[ERROR_CYCLE] Error added at CPU cycle 2722764317, next at 2723650833, pending count: 1
[DRAM_CYCLE_ERROR] Cycle-based error applied! address=0x17de2a9c00 additional_latency=173500 cycles
[ERROR_CYCLE] Error added at CPU cycle 2723650833, next at 2729058022, pending count: 1
[DRAM_CYCLE_ERROR] Cycle-based error applied! address=0x1d108973c0 additional_latency=173500 cycles
[ERROR_CYCLE] Error added at CPU cycle 2729058022, next at 2732791294, pending count: 1
[DRAM_CYCLE_ERROR] Cycle-based error applied! address=0x11bf188310 additional_latency=173500 cycles
[ERROR_CYCLE] Error added at CPU cycle 2732791295, next at 2734013799, pending count: 1
[DRAM_CYCLE_ERROR] Cycle-based error applied! address=0x7630a38a8 additional_latency=173500 cycles
[ERROR_CYCLE] Error added at CPU cycle 2734013799, next at 2740931858, pending count: 1
[DRAM_CYCLE_ERROR] Cycle-based error applied! address=0xb31a64f50 additional_latency=173500 cycles
[ERROR_CYCLE] Error added at CPU cycle 2740931859, next at 2745659437, pending count: 1
[DRAM_CYCLE_ERROR] Cycle-based error applied! address=0x4b22c5ce8 additional_latency=173500 cycles
[ERROR_CYCLE] Error added at CPU cycle 2745659438, next at 2747981596, pending count: 1
[...]
[ERROR_CYCLE] Error added at CPU cycle 5355780371, next at 5358449466, pending count: 1
[DRAM_CYCLE_ERROR] Cycle-based error applied! address=0xb772169b0 additional_latency=173500 cycles
[ERROR_CYCLE] Error added at CPU cycle 5358449466, next at 5366416557, pending count: 1
[DRAM_CYCLE_ERROR] Cycle-based error applied! address=0xdf33f6358 additional_latency=173500 cycles
[ERROR_CYCLE] Error added at CPU cycle 5366416558, next at 5367369817, pending count: 1
[DRAM_CYCLE_ERROR] Cycle-based error applied! address=0x165f87ab60 additional_latency=173500 cycles
[ERROR_CYCLE] Error added at CPU cycle 5367369817, next at 5367888244, pending count: 1
[DRAM_CYCLE_ERROR] Cycle-based error applied! address=0x233658c00 additional_latency=173500 cycles
[ERROR_CYCLE] Error added at CPU cycle 5367888244, next at 5368933974, pending count: 1
[DRAM_CYCLE_ERROR] Cycle-based error applied! address=0x947859ac8 additional_latency=173500 cycles
[ERROR_CYCLE] Error added at CPU cycle 5368933974, next at 5370815236, pending count: 1
[DRAM_CYCLE_ERROR] Cycle-based error applied! address=0x54962b8d8 additional_latency=173500 cycles
[ERROR_CYCLE] Error added at CPU cycle 5370815237, next at 5392771863, pending count: 1
[DRAM_CYCLE_ERROR] Cycle-based error applied! address=0xa2d94f938 additional_latency=173500 cycles
Heartbeat CPU 0 instructions: 1800000249 cycles: 5385743030 heartbeat IPC: 0.2761 cumulative IPC: 0.3342 (Simulation time: 08 hr 41 min 10 sec)
[ERROR_CYCLE] Error added at CPU cycle 5392771864, next at 5424328695, pending count: 1
[DRAM_CYCLE_ERROR] Cycle-based error applied! address=0xb64d8e9a0 additional_latency=173500 cycles
Heartbeat CPU 0 instructions: 1810000250 cycles: 5399629132 heartbeat IPC: 0.7201 cumulative IPC: 0.3352 (Simulation time: 08 hr 42 min 50 sec)
[ERROR_CYCLE] Error added at CPU cycle 5424328695, next at 5447052050, pending count: 1
[DRAM_CYCLE_ERROR] Cycle-based error applied! address=0x73d1aaac0 additional_latency=173500 cycles
Heartbeat CPU 0 instructions: 1820000254 cycles: 5433335039 heartbeat IPC: 0.2967 cumulative IPC: 0.335 (Simulation time: 08 hr 46 min 30 sec)
[ERROR_CYCLE] Error added at CPU cycle 5447052051, next at 5448202294, pending count: 1
[DRAM_CYCLE_ERROR] Cycle-based error applied! address=0x1328e5aed0 additional_latency=173500 cycles
Heartbeat CPU 0 instructions: 1830000257 cycles: 5447313368 heartbeat IPC: 0.7154 cumulative IPC: 0.3359 (Simulation time: 08 hr 48 min 10 sec)
[ERROR_CYCLE] Error added at CPU cycle 5448202294, next at 5478298901, pending count: 1
[DRAM_CYCLE_ERROR] Cycle-based error applied! address=0x2803ef0c0 additional_latency=173500 cycles
Heartbeat CPU 0 instructions: 1840000258 cycles: 5456863991 heartbeat IPC: 1.047 cumulative IPC: 0.3372 (Simulation time: 08 hr 49 min 24 sec)
Heartbeat CPU 0 instructions: 1850000262 cycles: 5473747776 heartbeat IPC: 0.5923 cumulative IPC: 0.338 (Simulation time: 08 hr 51 min 21 sec)
[ERROR_CYCLE] Error added at CPU cycle 5478298901, next at 5488967470, pending count: 1
[DRAM_CYCLE_ERROR] Cycle-based error applied! address=0x250894860 additional_latency=173500 cycles
[ERROR_CYCLE] Error added at CPU cycle 5488967471, next at 5493848346, pending count: 1
[DRAM_CYCLE_ERROR] Cycle-based error applied! address=0x24d699478 additional_latency=173500 cycles
[ERROR_CYCLE] Error added at CPU cycle 5493848347, next at 5494684621, pending count: 1
[DRAM_CYCLE_ERROR] Cycle-based error applied! address=0x6427f9fe8 additional_latency=173500 cycles
[ERROR_CYCLE] Error added at CPU cycle 5494684622, next at 5495217819, pending count: 1
[DRAM_CYCLE_ERROR] Cycle-based error applied! address=0x1a49ce3ea8 additional_latency=173500 cycles
[ERROR_CYCLE] Error added at CPU cycle 5495217819, next at 5508397346, pending count: 1
[DRAM_CYCLE_ERROR] Cycle-based error applied! address=0x365d1aee8 additional_latency=173500 cycles
Heartbeat CPU 0 instructions: 1860000262 cycles: 5499679910 heartbeat IPC: 0.3856 cumulative IPC: 0.3382 (Simulation time: 08 hr 54 min 11 sec)
[ERROR_CYCLE] Error added at CPU cycle 5508397346, next at 5510294520, pending count: 1
[DRAM_CYCLE_ERROR] Cycle-based error applied! address=0x1089380738 additional_latency=173500 cycles
[ERROR_CYCLE] Error added at CPU cycle 5510294521, next at 5534864816, pending count: 1
[DRAM_CYCLE_ERROR] Cycle-based error applied! address=0xce017fe78 additional_latency=173500 cycles
Heartbeat CPU 0 instructions: 1870000262 cycles: 5526123230 heartbeat IPC: 0.3782 cumulative IPC: 0.3384 (Simulation time: 08 hr 57 min 05 sec)
[ERROR_CYCLE] Error added at CPU cycle 5534864816, next at 5578479641, pending count: 1
[DRAM_CYCLE_ERROR] Cycle-based error applied! address=0x10d01f31a0 additional_latency=173500 cycles
Heartbeat CPU 0 instructions: 1880000265 cycles: 5539168448 heartbeat IPC: 0.7666 cumulative IPC: 0.3394 (Simulation time: 08 hr 58 min 39 sec)
Heartbeat CPU 0 instructions: 1890000265 cycles: 5564590692 heartbeat IPC: 0.3934 cumulative IPC: 0.3396 (Simulation time: 09 hr 01 min 27 sec)
Heartbeat CPU 0 instructions: 1900000266 cycles: 5576290241 heartbeat IPC: 0.8547 cumulative IPC: 0.3407 (Simulation time: 09 hr 02 min 53 sec)
[ERROR_CYCLE] Error added at CPU cycle 5578479642, next at 5583762269, pending count: 1
[DRAM_CYCLE_ERROR] Cycle-based error applied! address=0x726df3050 additional_latency=173500 cycles
[ERROR_CYCLE] Error added at CPU cycle 5583762269, next at 5594700965, pending count: 1
[DRAM_CYCLE_ERROR] Cycle-based error applied! address=0x22e765b78 additional_latency=173500 cycles
Heartbeat CPU 0 instructions: 1910000266 cycles: 5590292944 heartbeat IPC: 0.7141 cumulative IPC: 0.3417 (Simulation time: 09 hr 04 min 32 sec)
[ERROR_CYCLE] Error added at CPU cycle 5594700966, next at 5609845163, pending count: 1
[DRAM_CYCLE_ERROR] Cycle-based error applied! address=0x1848ccae38 additional_latency=173500 cycles
Heartbeat CPU 0 instructions: 1920000266 cycles: 5602000335 heartbeat IPC: 0.8542 cumulative IPC: 0.3427 (Simulation time: 09 hr 05 min 59 sec)
[ERROR_CYCLE] Error added at CPU cycle 5609845163, next at 5625307705, pending count: 1
[DRAM_CYCLE_ERROR] Cycle-based error applied! address=0xc8de77a90 additional_latency=173500 cycles
[ERROR_CYCLE] Error added at CPU cycle 5625307705, next at 5630131237, pending count: 1
[DRAM_CYCLE_ERROR] Cycle-based error applied! address=0x99c757d0 additional_latency=173500 cycles
Heartbeat CPU 0 instructions: 1930000266 cycles: 5626911164 heartbeat IPC: 0.4014 cumulative IPC: 0.343 (Simulation time: 09 hr 08 min 44 sec)
[ERROR_CYCLE] Error added at CPU cycle 5630131237, next at 5633691021, pending count: 1
[DRAM_CYCLE_ERROR] Cycle-based error applied! address=0x5a1a27190 additional_latency=173500 cycles
[ERROR_CYCLE] Error added at CPU cycle 5633691022, next at 5645246612, pending count: 1
[DRAM_CYCLE_ERROR] Cycle-based error applied! address=0x17f5e0dc28 additional_latency=173500 cycles
Heartbeat CPU 0 instructions: 1940000267 cycles: 5641099086 heartbeat IPC: 0.7048 cumulative IPC: 0.3439 (Simulation time: 09 hr 10 min 26 sec)
[ERROR_CYCLE] Error added at CPU cycle 5645246612, next at 5658780233, pending count: 1
[DRAM_CYCLE_ERROR] Cycle-based error applied! address=0x64207ea38 additional_latency=173500 cycles
[ERROR_CYCLE] Error added at CPU cycle 5658780233, next at 5675903779, pending count: 1
[DRAM_CYCLE_ERROR] Cycle-based error applied! address=0x16f2e83668 additional_latency=173500 cycles
Heartbeat CPU 0 instructions: 1950000268 cycles: 5662240072 heartbeat IPC: 0.473 cumulative IPC: 0.3444 (Simulation time: 09 hr 12 min 50 sec)
[ERROR_CYCLE] Error added at CPU cycle 5675903780, next at 5677987004, pending count: 1
[DRAM_CYCLE_ERROR] Cycle-based error applied! address=0x16da349c90 additional_latency=173500 cycles
Heartbeat CPU 0 instructions: 1960000268 cycles: 5676915350 heartbeat IPC: 0.6814 cumulative IPC: 0.3453 (Simulation time: 09 hr 14 min 34 sec)
[ERROR_CYCLE] Error added at CPU cycle 5677987005, next at 5680468267, pending count: 1
[DRAM_CYCLE_ERROR] Cycle-based error applied! address=0x4f84dcef0 additional_latency=173500 cycles
[ERROR_CYCLE] Error added at CPU cycle 5680468267, next at 5707426427, pending count: 1
[DRAM_CYCLE_ERROR] Cycle-based error applied! address=0x1a7ee2b3a0 additional_latency=173500 cycles
[ERROR_CYCLE] Error added at CPU cycle 5707426428, next at 5708861478, pending count: 1
[DRAM_CYCLE_ERROR] Cycle-based error applied! address=0xa08467db8 additional_latency=173500 cycles
[ERROR_CYCLE] Error added at CPU cycle 5708861478, next at 5711454655, pending count: 1
[DRAM_CYCLE_ERROR] Cycle-based error applied! address=0x2117f00 additional_latency=173500 cycles
Heartbeat CPU 0 instructions: 1970000270 cycles: 5709739904 heartbeat IPC: 0.3047 cumulative IPC: 0.345 (Simulation time: 09 hr 17 min 50 sec)
[ERROR_CYCLE] Error added at CPU cycle 5711454656, next at 5716853052, pending count: 1
[DRAM_CYCLE_ERROR] Cycle-based error applied! address=0x663c1dce0 additional_latency=173500 cycles
[ERROR_CYCLE] Error added at CPU cycle 5716853053, next at 5736465651, pending count: 1
[DRAM_CYCLE_ERROR] Cycle-based error applied! address=0x171c803238 additional_latency=173500 cycles
[ERROR_CYCLE] Error added at CPU cycle 5736465651, next at 5741573713, pending count: 1
[DRAM_CYCLE_ERROR] Cycle-based error applied! address=0xc0f8197e8 additional_latency=173500 cycles
[ERROR_CYCLE] Error added at CPU cycle 5741573713, next at 5742686502, pending count: 1
[DRAM_CYCLE_ERROR] Cycle-based error applied! address=0x6c45d5c0 additional_latency=173500 cycles
[ERROR_CYCLE] Error added at CPU cycle 5742686503, next at 5753492505, pending count: 1
[DRAM_CYCLE_ERROR] Cycle-based error applied! address=0x15ec192d68 additional_latency=173500 cycles
[ERROR_CYCLE] Error added at CPU cycle 5753492506, next at 5756929185, pending count: 1
[DRAM_CYCLE_ERROR] Cycle-based error applied! address=0x1373ecb5c0 additional_latency=173500 cycles
[ERROR_CYCLE] Error added at CPU cycle 5756929185, next at 5759662932, pending count: 1
[DRAM_CYCLE_ERROR] Cycle-based error applied! address=0xfddaf60f8 additional_latency=173500 cycles
[ERROR_CYCLE] Error added at CPU cycle 5759662932, next at 5773903196, pending count: 1
[DRAM_CYCLE_ERROR] Cycle-based error applied! address=0xbd54620b8 additional_latency=173500 cycles
Heartbeat CPU 0 instructions: 1980000271 cycles: 5770925213 heartbeat IPC: 0.1634 cumulative IPC: 0.3431 (Simulation time: 09 hr 23 min 41 sec)
[ERROR_CYCLE] Error added at CPU cycle 5773903196, next at 5774938343, pending count: 1
[DRAM_CYCLE_ERROR] Cycle-based error applied! address=0x473b17cf8 additional_latency=173500 cycles
[ERROR_CYCLE] Error added at CPU cycle 5774938344, next at 5776165031, pending count: 1
[DRAM_CYCLE_ERROR] Cycle-based error applied! address=0x618bb0040 additional_latency=173500 cycles
[ERROR_CYCLE] Error added at CPU cycle 5776165031, next at 5794148278, pending count: 1
[DRAM_CYCLE_ERROR] Cycle-based error applied! address=0x126088858 additional_latency=173500 cycles
[ERROR_CYCLE] Error added at CPU cycle 5794148279, next at 5804235352, pending count: 1
[DRAM_CYCLE_ERROR] Cycle-based error applied! address=0xf4dc7c080 additional_latency=173500 cycles
[ERROR_CYCLE] Error added at CPU cycle 5804235352, next at 5805903364, pending count: 1
[DRAM_CYCLE_ERROR] Cycle-based error applied! address=0x144f550fb8 additional_latency=173500 cycles
[ERROR_CYCLE] Error added at CPU cycle 5805903364, next at 5807765797, pending count: 1
[DRAM_CYCLE_ERROR] Cycle-based error applied! address=0x1c2cf566c0 additional_latency=173500 cycles
[ERROR_CYCLE] Error added at CPU cycle 5807765798, next at 5826376344, pending count: 1
[DRAM_CYCLE_ERROR] Cycle-based error applied! address=0x196ca000f0 additional_latency=173500 cycles
[ERROR_CYCLE] Error added at CPU cycle 5826376345, next at 5833771326, pending count: 1
[DRAM_CYCLE_ERROR] Cycle-based error applied! address=0x58deca4a0 additional_latency=173500 cycles
Heartbeat CPU 0 instructions: 1990000271 cycles: 5832139240 heartbeat IPC: 0.1634 cumulative IPC: 0.3412 (Simulation time: 09 hr 29 min 33 sec)
[ERROR_CYCLE] Error added at CPU cycle 5833771327, next at 5849673083, pending count: 1
[DRAM_CYCLE_ERROR] Cycle-based error applied! address=0x12fed9eb40 additional_latency=173500 cycles
[ERROR_CYCLE] Error added at CPU cycle 5849673083, next at 5849744588, pending count: 1
[DRAM_CYCLE_ERROR] Cycle-based error applied! address=0x5a69e2978 additional_latency=173500 cycles
[ERROR_CYCLE] Error added at CPU cycle 5849744589, next at 5859082726, pending count: 1
[DRAM_CYCLE_ERROR] Cycle-based error applied! address=0x11bbb55890 additional_latency=173500 cycles
[ERROR_CYCLE] Error added at CPU cycle 5859082726, next at 5873384995, pending count: 1
[DRAM_CYCLE_ERROR] Cycle-based error applied! address=0x10f1fb5a08 additional_latency=173500 cycles
[ERROR_CYCLE] Error added at CPU cycle 5873384995, next at 5881455893, pending count: 1
[DRAM_CYCLE_ERROR] Cycle-based error applied! address=0x105c6bf490 additional_latency=173500 cycles
[ERROR_CYCLE] Error added at CPU cycle 5881455893, next at 5891401510, pending count: 1
[DRAM_CYCLE_ERROR] Cycle-based error applied! address=0x6bb789f08 additional_latency=173500 cycles

=== ERROR PAGE STATISTICS ===
Mode: CYCLE
Error Cycle Interval: 8000000 CPU cycles
Total Error Accesses: 736
==============================
Simulation finished CPU 0 instructions: 1999999938 cycles: 5890404685 cumulative IPC: 0.3395 (Simulation time: 09 hr 35 min 10 sec)
Simulation complete CPU 0 instructions: 1999999938 cycles: 5890404685 cumulative IPC: 0.3395 (Simulation time: 09 hr 35 min 10 sec)

ChampSim completed all CPUs

=== Simulation ===
CPU 0 runs test_traces/605.mcf_s-994B.champsimtrace.xz

Region of Interest Statistics

CPU 0 cumulative IPC: 0.3395 instructions: 1999999938 cycles: 5890404685
CPU 0 Branch Prediction Accuracy: 92.62% MPKI: 18.99 Average ROB Occupancy at Mispredict: 34.58
Branch type MPKI
BRANCH_DIRECT_JUMP: 0.123
BRANCH_INDIRECT: 0
BRANCH_CONDITIONAL: 18.86
BRANCH_DIRECT_CALL: 6.5e-06
BRANCH_INDIRECT_CALL: 0.0004185
BRANCH_RETURN: 1e-05

cpu0->cpu0_STLB TOTAL        ACCESS:   24265530 HIT:   11227910 MISS:   13037620 MSHR_MERGE:          0
cpu0->cpu0_STLB LOAD         ACCESS:   24265530 HIT:   11227910 MISS:   13037620 MSHR_MERGE:          0
cpu0->cpu0_STLB RFO          ACCESS:          0 HIT:          0 MISS:          0 MSHR_MERGE:          0
cpu0->cpu0_STLB PREFETCH     ACCESS:          0 HIT:          0 MISS:          0 MSHR_MERGE:          0
cpu0->cpu0_STLB WRITE        ACCESS:          0 HIT:          0 MISS:          0 MSHR_MERGE:          0
cpu0->cpu0_STLB TRANSLATION  ACCESS:          0 HIT:          0 MISS:          0 MSHR_MERGE:          0
cpu0->cpu0_STLB PREFETCH REQUESTED:          0 ISSUED:          0 USEFUL:          0 USELESS:          0
cpu0->cpu0_STLB AVERAGE MISS LATENCY: 241.6 cycles
cpu0->cpu0_L2C TOTAL        ACCESS:   81182089 HIT:   27435998 MISS:   53746091 MSHR_MERGE:          0
cpu0->cpu0_L2C LOAD         ACCESS:   75044095 HIT:   21364675 MISS:   53679420 MSHR_MERGE:          0
cpu0->cpu0_L2C RFO          ACCESS:     493000 HIT:     430833 MISS:      62167 MSHR_MERGE:          0
cpu0->cpu0_L2C PREFETCH     ACCESS:          0 HIT:          0 MISS:          0 MSHR_MERGE:          0
cpu0->cpu0_L2C WRITE        ACCESS:    5644994 HIT:    5640490 MISS:       4504 MSHR_MERGE:          0
cpu0->cpu0_L2C TRANSLATION  ACCESS:          0 HIT:          0 MISS:          0 MSHR_MERGE:          0
cpu0->cpu0_L2C PREFETCH REQUESTED:          0 ISSUED:          0 USEFUL:          0 USELESS:          0
cpu0->cpu0_L2C AVERAGE MISS LATENCY: 95.11 cycles
cpu0->cpu0_L1I TOTAL        ACCESS:    3227157 HIT:    3227065 MISS:         92 MSHR_MERGE:         26
cpu0->cpu0_L1I LOAD         ACCESS:    3227157 HIT:    3227065 MISS:         92 MSHR_MERGE:         26
cpu0->cpu0_L1I RFO          ACCESS:          0 HIT:          0 MISS:          0 MSHR_MERGE:          0
cpu0->cpu0_L1I PREFETCH     ACCESS:          0 HIT:          0 MISS:          0 MSHR_MERGE:          0
cpu0->cpu0_L1I WRITE        ACCESS:          0 HIT:          0 MISS:          0 MSHR_MERGE:          0
cpu0->cpu0_L1I TRANSLATION  ACCESS:          0 HIT:          0 MISS:          0 MSHR_MERGE:          0
cpu0->cpu0_L1I PREFETCH REQUESTED:          0 ISSUED:          0 USEFUL:          0 USELESS:          0
cpu0->cpu0_L1I AVERAGE MISS LATENCY: 123.5 cycles
cpu0->cpu0_L1D TOTAL        ACCESS:  806971787 HIT:  724730150 MISS:   82241637 MSHR_MERGE:    6703958
cpu0->cpu0_L1D LOAD         ACCESS:  606390110 HIT:  525533918 MISS:   80856192 MSHR_MERGE:    5812140
cpu0->cpu0_L1D RFO          ACCESS:          0 HIT:          0 MISS:          0 MSHR_MERGE:          0
cpu0->cpu0_L1D PREFETCH     ACCESS:          0 HIT:          0 MISS:          0 MSHR_MERGE:          0
cpu0->cpu0_L1D WRITE        ACCESS:  200581677 HIT:  199196232 MISS:    1385445 MSHR_MERGE:     891818
cpu0->cpu0_L1D TRANSLATION  ACCESS:          0 HIT:          0 MISS:          0 MSHR_MERGE:          0
cpu0->cpu0_L1D PREFETCH REQUESTED:          0 ISSUED:          0 USEFUL:          0 USELESS:          0
cpu0->cpu0_L1D AVERAGE MISS LATENCY: 76.58 cycles
cpu0->cpu0_ITLB TOTAL        ACCESS:    3076820 HIT:    3076813 MISS:          7 MSHR_MERGE:          1
cpu0->cpu0_ITLB LOAD         ACCESS:    3076820 HIT:    3076813 MISS:          7 MSHR_MERGE:          1
cpu0->cpu0_ITLB RFO          ACCESS:          0 HIT:          0 MISS:          0 MSHR_MERGE:          0
cpu0->cpu0_ITLB PREFETCH     ACCESS:          0 HIT:          0 MISS:          0 MSHR_MERGE:          0
cpu0->cpu0_ITLB WRITE        ACCESS:          0 HIT:          0 MISS:          0 MSHR_MERGE:          0
cpu0->cpu0_ITLB TRANSLATION  ACCESS:          0 HIT:          0 MISS:          0 MSHR_MERGE:          0
cpu0->cpu0_ITLB PREFETCH REQUESTED:          0 ISSUED:          0 USEFUL:          0 USELESS:          0
cpu0->cpu0_ITLB AVERAGE MISS LATENCY: 684.7 cycles
cpu0->cpu0_DTLB TOTAL        ACCESS:  721867082 HIT:  688502565 MISS:   33364517 MSHR_MERGE:    9098993
cpu0->cpu0_DTLB LOAD         ACCESS:  721867082 HIT:  688502565 MISS:   33364517 MSHR_MERGE:    9098993
cpu0->cpu0_DTLB RFO          ACCESS:          0 HIT:          0 MISS:          0 MSHR_MERGE:          0
cpu0->cpu0_DTLB PREFETCH     ACCESS:          0 HIT:          0 MISS:          0 MSHR_MERGE:          0
cpu0->cpu0_DTLB WRITE        ACCESS:          0 HIT:          0 MISS:          0 MSHR_MERGE:          0
cpu0->cpu0_DTLB TRANSLATION  ACCESS:          0 HIT:          0 MISS:          0 MSHR_MERGE:          0
cpu0->cpu0_DTLB PREFETCH REQUESTED:          0 ISSUED:          0 USEFUL:          0 USELESS:          0
cpu0->cpu0_DTLB AVERAGE MISS LATENCY: 135.4 cycles
cpu0->LLC TOTAL        ACCESS:   57709687 HIT:   16611649 MISS:   41098038 MSHR_MERGE:          0
cpu0->LLC LOAD         ACCESS:   53679419 HIT:   12601235 MISS:   41078184 MSHR_MERGE:          0
cpu0->LLC RFO          ACCESS:      62167 HIT:      43560 MISS:      18607 MSHR_MERGE:          0
cpu0->LLC PREFETCH     ACCESS:          0 HIT:          0 MISS:          0 MSHR_MERGE:          0
cpu0->LLC WRITE        ACCESS:    3968101 HIT:    3966854 MISS:       1247 MSHR_MERGE:          0
cpu0->LLC TRANSLATION  ACCESS:          0 HIT:          0 MISS:          0 MSHR_MERGE:          0
cpu0->LLC PREFETCH REQUESTED:          0 ISSUED:          0 USEFUL:          0 USELESS:          0
cpu0->LLC AVERAGE MISS LATENCY: 103.8 cycles

DRAM Statistics

Channel 0 RQ ROW_BUFFER_HIT:     494871
  ROW_BUFFER_MISS:   36292447
  AVG DBUS CONGESTED CYCLE: 9.412
Channel 0 WQ ROW_BUFFER_HIT:     378568
  ROW_BUFFER_MISS:    1202274
  FULL:          0
Channel 0 REFRESHES ISSUED:     490835

Channel 1 RQ ROW_BUFFER_HIT:     483927
  ROW_BUFFER_MISS:   36059192
  AVG DBUS CONGESTED CYCLE: 9.426
Channel 1 WQ ROW_BUFFER_HIT:     378881
  ROW_BUFFER_MISS:    1201977
  FULL:          0
Channel 1 REFRESHES ISSUED:     490835
