
*** ChampSim Multicore Out-of-Order Simulator ***
Warmup Instructions: 0
Simulation Instructions: 9223372036854775807
Number of CPUs: 1
Page size: 2097152

Off-chip DRAM Size: 64 GiB Channels: 2 Width: 32-bit Data Rate: 4807 MT/s
[ERROR_PAGE_MANAGER] Error latency: 1990500 
[ERROR_PAGE_MANAGER] Random seed: 54321 (fixed for preload reproducibility)
[ERROR_PAGE_MANAGER] Cycle-based error modeling enabled
[ERROR_PAGE_MANAGER] Errors per interval: 1
[ERROR_PAGE_MANAGER] Error cycle interval: 10000000 cycles

=== ERROR PAGE STATISTICS ===
Mode: CYCLE
Error Cycle Interval: 10000000 CPU cycles
Total Error Accesses: 0
==============================
Warmup finished CPU 0 instructions: 0 cycles: 1 cumulative IPC: 0 (Simulation time: 00 hr 00 min 00 sec)
Warmup complete CPU 0 instructions: 0 cycles: 1 cumulative IPC: 0 (Simulation time: 00 hr 00 min 00 sec)
[ERROR_CYCLE] Error added at CPU cycle 7127805, next at 9153305, pending count: 1
[DRAM_CYCLE_ERROR] Cycle-based error applied! address=0xaa9fd48c4 additional_latency=1990500 cycles
Heartbeat CPU 0 instructions: 10000003 cycles: 8703863 heartbeat IPC: 1.149 cumulative IPC: 1.149 (Simulation time: 00 hr 01 min 20 sec)
[ERROR_CYCLE] Error added at CPU cycle 9153306, next at 25696063, pending count: 1
[DRAM_CYCLE_ERROR] Cycle-based error applied! address=0x1d9413cc4 additional_latency=1990500 cycles
Heartbeat CPU 0 instructions: 20000006 cycles: 18922752 heartbeat IPC: 0.9786 cumulative IPC: 1.057 (Simulation time: 00 hr 02 min 40 sec)
[ERROR_CYCLE] Error added at CPU cycle 25696063, next at 53467688, pending count: 1
[DRAM_CYCLE_ERROR] Cycle-based error applied! address=0x1db895140 additional_latency=1990500 cycles
Heartbeat CPU 0 instructions: 30000006 cycles: 30631313 heartbeat IPC: 0.8541 cumulative IPC: 0.9794 (Simulation time: 00 hr 03 min 59 sec)
Heartbeat CPU 0 instructions: 40000008 cycles: 46235921 heartbeat IPC: 0.6408 cumulative IPC: 0.8651 (Simulation time: 00 hr 06 min 17 sec)
[ERROR_CYCLE] Error added at CPU cycle 53467689, next at 53768224, pending count: 1
[DRAM_CYCLE_ERROR] Cycle-based error applied! address=0x687c388 additional_latency=1990500 cycles
[ERROR_CYCLE] Error added at CPU cycle 53768224, next at 69138641, pending count: 1
[DRAM_CYCLE_ERROR] Cycle-based error applied! address=0x9370cf088 additional_latency=1990500 cycles
Heartbeat CPU 0 instructions: 50000009 cycles: 57229547 heartbeat IPC: 0.9096 cumulative IPC: 0.8737 (Simulation time: 00 hr 07 min 32 sec)
Heartbeat CPU 0 instructions: 60000012 cycles: 68577678 heartbeat IPC: 0.8812 cumulative IPC: 0.8749 (Simulation time: 00 hr 08 min 55 sec)
[ERROR_CYCLE] Error added at CPU cycle 69138642, next at 70928443, pending count: 1
[DRAM_CYCLE_ERROR] Cycle-based error applied! address=0x613e53e48 additional_latency=1990500 cycles
[ERROR_CYCLE] Error added at CPU cycle 70928444, next at 76617422, pending count: 1
[DRAM_CYCLE_ERROR] Cycle-based error applied! address=0xdafc90548 additional_latency=1990500 cycles
[ERROR_CYCLE] Error added at CPU cycle 76617422, next at 85156860, pending count: 1
[DRAM_CYCLE_ERROR] Cycle-based error applied! address=0xee7caf2a4 additional_latency=1990500 cycles
Heartbeat CPU 0 instructions: 70000016 cycles: 82559700 heartbeat IPC: 0.7152 cumulative IPC: 0.8479 (Simulation time: 00 hr 10 min 36 sec)
[ERROR_CYCLE] Error added at CPU cycle 85156860, next at 87603375, pending count: 1
[DRAM_CYCLE_ERROR] Cycle-based error applied! address=0x40c36c1c8 additional_latency=1990500 cycles
[ERROR_CYCLE] Error added at CPU cycle 87603376, next at 105362955, pending count: 1
[DRAM_CYCLE_ERROR] Cycle-based error applied! address=0x6807d08 additional_latency=1990500 cycles
Heartbeat CPU 0 instructions: 80000017 cycles: 94323344 heartbeat IPC: 0.8501 cumulative IPC: 0.8481 (Simulation time: 00 hr 11 min 41 sec)
[ERROR_CYCLE] Error added at CPU cycle 105362955, next at 108923137, pending count: 1
[DRAM_CYCLE_ERROR] Cycle-based error applied! address=0x8d632a3d8 additional_latency=1990500 cycles
Heartbeat CPU 0 instructions: 90000020 cycles: 106204200 heartbeat IPC: 0.8417 cumulative IPC: 0.8474 (Simulation time: 00 hr 13 min 18 sec)
[ERROR_CYCLE] Error added at CPU cycle 108923137, next at 113398998, pending count: 1
[DRAM_CYCLE_ERROR] Cycle-based error applied! address=0xdafd5a308 additional_latency=1990500 cycles
[ERROR_CYCLE] Error added at CPU cycle 113398999, next at 133751835, pending count: 1
[DRAM_CYCLE_ERROR] Cycle-based error applied! address=0xee7c7a904 additional_latency=1990500 cycles
Heartbeat CPU 0 instructions: 100000021 cycles: 122786377 heartbeat IPC: 0.6031 cumulative IPC: 0.8144 (Simulation time: 00 hr 15 min 37 sec)
Heartbeat CPU 0 instructions: 110000024 cycles: 128587263 heartbeat IPC: 1.724 cumulative IPC: 0.8555 (Simulation time: 00 hr 16 min 24 sec)
[ERROR_CYCLE] Error added at CPU cycle 133751835, next at 133874359, pending count: 1
[DRAM_CYCLE_ERROR] Cycle-based error applied! address=0x8d62a96bc additional_latency=1990500 cycles
[ERROR_CYCLE] Error added at CPU cycle 133874359, next at 145123863, pending count: 1
[DRAM_CYCLE_ERROR] Cycle-based error applied! address=0x3db32908 additional_latency=1990500 cycles
Heartbeat CPU 0 instructions: 120000026 cycles: 135666666 heartbeat IPC: 1.413 cumulative IPC: 0.8845 (Simulation time: 00 hr 17 min 30 sec)
Heartbeat CPU 0 instructions: 130000026 cycles: 141223003 heartbeat IPC: 1.8 cumulative IPC: 0.9205 (Simulation time: 00 hr 18 min 17 sec)
[ERROR_CYCLE] Error added at CPU cycle 145123863, next at 151687113, pending count: 1
[DRAM_CYCLE_ERROR] Cycle-based error applied! address=0x3db8f740 additional_latency=1990500 cycles
Heartbeat CPU 0 instructions: 140000028 cycles: 148634042 heartbeat IPC: 1.349 cumulative IPC: 0.9419 (Simulation time: 00 hr 19 min 07 sec)
[ERROR_CYCLE] Error added at CPU cycle 151687113, next at 189526482, pending count: 1
[DRAM_CYCLE_ERROR] Cycle-based error applied! address=0xee7c85380 additional_latency=1990500 cycles
Heartbeat CPU 0 instructions: 150000029 cycles: 154281698 heartbeat IPC: 1.771 cumulative IPC: 0.9722 (Simulation time: 00 hr 19 min 54 sec)
Heartbeat CPU 0 instructions: 160000032 cycles: 161140873 heartbeat IPC: 1.458 cumulative IPC: 0.9929 (Simulation time: 00 hr 20 min 48 sec)
Heartbeat CPU 0 instructions: 170000035 cycles: 168109315 heartbeat IPC: 1.435 cumulative IPC: 1.011 (Simulation time: 00 hr 21 min 49 sec)
Heartbeat CPU 0 instructions: 180000037 cycles: 173706849 heartbeat IPC: 1.787 cumulative IPC: 1.036 (Simulation time: 00 hr 22 min 47 sec)
Heartbeat CPU 0 instructions: 190000038 cycles: 181701171 heartbeat IPC: 1.251 cumulative IPC: 1.046 (Simulation time: 00 hr 24 min 03 sec)
Heartbeat CPU 0 instructions: 200000039 cycles: 188036574 heartbeat IPC: 1.578 cumulative IPC: 1.064 (Simulation time: 00 hr 24 min 49 sec)
[ERROR_CYCLE] Error added at CPU cycle 189526483, next at 191895927, pending count: 1
[DRAM_CYCLE_ERROR] Cycle-based error applied! address=0x40c361040 additional_latency=1990500 cycles
[ERROR_CYCLE] Error added at CPU cycle 191895927, next at 194297025, pending count: 1
[DRAM_CYCLE_ERROR] Cycle-based error applied! address=0x40c36fb80 additional_latency=1990500 cycles
[ERROR_CYCLE] Error added at CPU cycle 194297026, next at 223119032, pending count: 1
[DRAM_CYCLE_ERROR] Cycle-based error applied! address=0x40c37e8c0 additional_latency=1990500 cycles
Heartbeat CPU 0 instructions: 210000039 cycles: 194396811 heartbeat IPC: 1.572 cumulative IPC: 1.08 (Simulation time: 00 hr 25 min 41 sec)
Heartbeat CPU 0 instructions: 220000040 cycles: 200817158 heartbeat IPC: 1.558 cumulative IPC: 1.096 (Simulation time: 00 hr 26 min 45 sec)
Heartbeat CPU 0 instructions: 230000041 cycles: 212879514 heartbeat IPC: 0.829 cumulative IPC: 1.08 (Simulation time: 00 hr 28 min 26 sec)
[ERROR_CYCLE] Error added at CPU cycle 223119032, next at 227066706, pending count: 1
[DRAM_CYCLE_ERROR] Cycle-based error applied! address=0x1db9c2bc0 additional_latency=1990500 cycles
Heartbeat CPU 0 instructions: 240000041 cycles: 225058246 heartbeat IPC: 0.8211 cumulative IPC: 1.066 (Simulation time: 00 hr 30 min 13 sec)
[ERROR_CYCLE] Error added at CPU cycle 227066706, next at 269846489, pending count: 1
[DRAM_CYCLE_ERROR] Cycle-based error applied! address=0x3a3fd84e0 additional_latency=1990500 cycles
Heartbeat CPU 0 instructions: 250000041 cycles: 230727664 heartbeat IPC: 1.764 cumulative IPC: 1.084 (Simulation time: 00 hr 31 min 11 sec)
Heartbeat CPU 0 instructions: 260000045 cycles: 237012369 heartbeat IPC: 1.591 cumulative IPC: 1.097 (Simulation time: 00 hr 32 min 13 sec)
Heartbeat CPU 0 instructions: 270000045 cycles: 242940692 heartbeat IPC: 1.687 cumulative IPC: 1.111 (Simulation time: 00 hr 33 min 13 sec)
Heartbeat CPU 0 instructions: 280000049 cycles: 248411994 heartbeat IPC: 1.828 cumulative IPC: 1.127 (Simulation time: 00 hr 34 min 10 sec)
Heartbeat CPU 0 instructions: 290000052 cycles: 254561988 heartbeat IPC: 1.626 cumulative IPC: 1.139 (Simulation time: 00 hr 35 min 11 sec)
Heartbeat CPU 0 instructions: 300000056 cycles: 262031103 heartbeat IPC: 1.339 cumulative IPC: 1.145 (Simulation time: 00 hr 36 min 19 sec)
[ERROR_CYCLE] Error added at CPU cycle 269846490, next at 275597170, pending count: 1
[DRAM_CYCLE_ERROR] Cycle-based error applied! address=0x40c2441c4 additional_latency=1990500 cycles
Heartbeat CPU 0 instructions: 310000060 cycles: 273608151 heartbeat IPC: 0.8638 cumulative IPC: 1.133 (Simulation time: 00 hr 37 min 59 sec)
[ERROR_CYCLE] Error added at CPU cycle 275597171, next at 309231635, pending count: 1
[DRAM_CYCLE_ERROR] Cycle-based error applied! address=0xe18efc084 additional_latency=1990500 cycles
Heartbeat CPU 0 instructions: 320000061 cycles: 282187869 heartbeat IPC: 1.166 cumulative IPC: 1.134 (Simulation time: 00 hr 39 min 19 sec)
Heartbeat CPU 0 instructions: 330000065 cycles: 292669805 heartbeat IPC: 0.954 cumulative IPC: 1.128 (Simulation time: 00 hr 40 min 49 sec)
Heartbeat CPU 0 instructions: 340000069 cycles: 304508985 heartbeat IPC: 0.8447 cumulative IPC: 1.117 (Simulation time: 00 hr 42 min 28 sec)
[ERROR_CYCLE] Error added at CPU cycle 309231636, next at 312214761, pending count: 1
[DRAM_CYCLE_ERROR] Cycle-based error applied! address=0xaa9ff93d4 additional_latency=1990500 cycles
[ERROR_CYCLE] Error added at CPU cycle 312214762, next at 326484517, pending count: 1
[DRAM_CYCLE_ERROR] Cycle-based error applied! address=0xfcf40c9c4 additional_latency=1990500 cycles
Heartbeat CPU 0 instructions: 350000073 cycles: 320322437 heartbeat IPC: 0.6324 cumulative IPC: 1.093 (Simulation time: 00 hr 44 min 55 sec)
[ERROR_CYCLE] Error added at CPU cycle 326484517, next at 328619258, pending count: 1
[DRAM_CYCLE_ERROR] Cycle-based error applied! address=0xdafd60688 additional_latency=1990500 cycles
[ERROR_CYCLE] Error added at CPU cycle 328619258, next at 331945338, pending count: 1
[DRAM_CYCLE_ERROR] Cycle-based error applied! address=0x40c32e8a8 additional_latency=1990500 cycles
Heartbeat CPU 0 instructions: 360000074 cycles: 331682412 heartbeat IPC: 0.8803 cumulative IPC: 1.085 (Simulation time: 00 hr 46 min 31 sec)
[ERROR_CYCLE] Error added at CPU cycle 331945339, next at 346622017, pending count: 1
[DRAM_CYCLE_ERROR] Cycle-based error applied! address=0xbdf4399e8 additional_latency=1990500 cycles
Heartbeat CPU 0 instructions: 370000074 cycles: 343225866 heartbeat IPC: 0.8663 cumulative IPC: 1.078 (Simulation time: 00 hr 48 min 08 sec)
[ERROR_CYCLE] Error added at CPU cycle 346622017, next at 346704171, pending count: 1
[DRAM_CYCLE_ERROR] Cycle-based error applied! address=0x8d63d7388 additional_latency=1990500 cycles
[ERROR_CYCLE] Error added at CPU cycle 346704171, next at 351055557, pending count: 1
[DRAM_CYCLE_ERROR] Cycle-based error applied! address=0xac5a140 additional_latency=1990500 cycles
[ERROR_CYCLE] Error added at CPU cycle 351055557, next at 353715518, pending count: 1
[DRAM_CYCLE_ERROR] Cycle-based error applied! address=0x3a3f25d9c additional_latency=1990500 cycles
[ERROR_CYCLE] Error added at CPU cycle 353715518, next at 358578569, pending count: 1
[DRAM_CYCLE_ERROR] Cycle-based error applied! address=0x40c328f64 additional_latency=1990500 cycles
Heartbeat CPU 0 instructions: 380000075 cycles: 357451785 heartbeat IPC: 0.7029 cumulative IPC: 1.063 (Simulation time: 00 hr 50 min 10 sec)
[ERROR_CYCLE] Error added at CPU cycle 358578569, next at 359734081, pending count: 1
[DRAM_CYCLE_ERROR] Cycle-based error applied! address=0xfcf5a8dc8 additional_latency=1990500 cycles
[ERROR_CYCLE] Error added at CPU cycle 359734081, next at 364965560, pending count: 1
[DRAM_CYCLE_ERROR] Cycle-based error applied! address=0xdafd4c148 additional_latency=1990500 cycles
[ERROR_CYCLE] Error added at CPU cycle 364965560, next at 370163876, pending count: 1
[DRAM_CYCLE_ERROR] Cycle-based error applied! address=0x40c2bed08 additional_latency=1990500 cycles
Heartbeat CPU 0 instructions: 390000075 cycles: 369447967 heartbeat IPC: 0.8336 cumulative IPC: 1.056 (Simulation time: 00 hr 51 min 46 sec)
[ERROR_CYCLE] Error added at CPU cycle 370163876, next at 384861686, pending count: 1
[DRAM_CYCLE_ERROR] Cycle-based error applied! address=0x9370a6a1c additional_latency=1990500 cycles
Heartbeat CPU 0 instructions: 400000077 cycles: 381633476 heartbeat IPC: 0.8206 cumulative IPC: 1.048 (Simulation time: 00 hr 53 min 27 sec)
[ERROR_CYCLE] Error added at CPU cycle 384861686, next at 403305050, pending count: 1
[DRAM_CYCLE_ERROR] Cycle-based error applied! address=0xfcf40d5c8 additional_latency=1990500 cycles
Heartbeat CPU 0 instructions: 410000081 cycles: 395668883 heartbeat IPC: 0.7125 cumulative IPC: 1.036 (Simulation time: 00 hr 55 min 24 sec)
[ERROR_CYCLE] Error added at CPU cycle 403305051, next at 408299099, pending count: 1
[DRAM_CYCLE_ERROR] Cycle-based error applied! address=0x9100984a4 additional_latency=1990500 cycles
Heartbeat CPU 0 instructions: 420000081 cycles: 407384648 heartbeat IPC: 0.8536 cumulative IPC: 1.031 (Simulation time: 00 hr 57 min 00 sec)
[ERROR_CYCLE] Error added at CPU cycle 408299099, next at 414578861, pending count: 1
[DRAM_CYCLE_ERROR] Cycle-based error applied! address=0x613e14c08 additional_latency=1990500 cycles
[ERROR_CYCLE] Error added at CPU cycle 414578862, next at 415677269, pending count: 1
[DRAM_CYCLE_ERROR] Cycle-based error applied! address=0xac55ec0 additional_latency=1990500 cycles
[ERROR_CYCLE] Error added at CPU cycle 415677270, next at 417793974, pending count: 1
[DRAM_CYCLE_ERROR] Cycle-based error applied! address=0x94c369b88 additional_latency=1990500 cycles
[ERROR_CYCLE] Error added at CPU cycle 417793975, next at 428962166, pending count: 1
[DRAM_CYCLE_ERROR] Cycle-based error applied! address=0x94c384e88 additional_latency=1990500 cycles
Heartbeat CPU 0 instructions: 430000081 cycles: 421176796 heartbeat IPC: 0.7251 cumulative IPC: 1.021 (Simulation time: 00 hr 58 min 52 sec)
[ERROR_CYCLE] Error added at CPU cycle 428962167, next at 435398726, pending count: 1
[DRAM_CYCLE_ERROR] Cycle-based error applied! address=0xdafd6d7b8 additional_latency=1990500 cycles
Heartbeat CPU 0 instructions: 440000082 cycles: 434558835 heartbeat IPC: 0.7473 cumulative IPC: 1.013 (Simulation time: 01 hr 00 min 42 sec)
[ERROR_CYCLE] Error added at CPU cycle 435398727, next at 451570558, pending count: 1
[DRAM_CYCLE_ERROR] Cycle-based error applied! address=0xe18ea0888 additional_latency=1990500 cycles
Heartbeat CPU 0 instructions: 450000084 cycles: 446043979 heartbeat IPC: 0.8707 cumulative IPC: 1.009 (Simulation time: 01 hr 02 min 19 sec)
[ERROR_CYCLE] Error added at CPU cycle 451570559, next at 454416191, pending count: 1
[DRAM_CYCLE_ERROR] Cycle-based error applied! address=0x1d94042c8 additional_latency=1990500 cycles
[ERROR_CYCLE] Error added at CPU cycle 454416192, next at 467943289, pending count: 1
[DRAM_CYCLE_ERROR] Cycle-based error applied! address=0x9370c7b44 additional_latency=1990500 cycles
Heartbeat CPU 0 instructions: 460000086 cycles: 461025750 heartbeat IPC: 0.6675 cumulative IPC: 0.9978 (Simulation time: 01 hr 04 min 23 sec)
[ERROR_CYCLE] Error added at CPU cycle 467943289, next at 479150351, pending count: 1
[DRAM_CYCLE_ERROR] Cycle-based error applied! address=0x66864ef84 additional_latency=1990500 cycles
Heartbeat CPU 0 instructions: 470000088 cycles: 477636290 heartbeat IPC: 0.602 cumulative IPC: 0.984 (Simulation time: 01 hr 06 min 30 sec)
[ERROR_CYCLE] Error added at CPU cycle 479150352, next at 489818806, pending count: 1
[DRAM_CYCLE_ERROR] Cycle-based error applied! address=0xc454dfd40 additional_latency=1990500 cycles
Heartbeat CPU 0 instructions: 480000092 cycles: 483562818 heartbeat IPC: 1.687 cumulative IPC: 0.9926 (Simulation time: 01 hr 07 min 34 sec)
[ERROR_CYCLE] Error added at CPU cycle 489818807, next at 492199391, pending count: 1
[DRAM_CYCLE_ERROR] Cycle-based error applied! address=0xc4541d840 additional_latency=1990500 cycles
Heartbeat CPU 0 instructions: 490000093 cycles: 490642484 heartbeat IPC: 1.412 cumulative IPC: 0.9987 (Simulation time: 01 hr 08 min 46 sec)
[ERROR_CYCLE] Error added at CPU cycle 492199392, next at 501105066, pending count: 1
[DRAM_CYCLE_ERROR] Cycle-based error applied! address=0x47e2d2200 additional_latency=1990500 cycles
Heartbeat CPU 0 instructions: 500000095 cycles: 499401896 heartbeat IPC: 1.142 cumulative IPC: 1.001 (Simulation time: 01 hr 10 min 10 sec)
[ERROR_CYCLE] Error added at CPU cycle 501105067, next at 516413942, pending count: 1
[DRAM_CYCLE_ERROR] Cycle-based error applied! address=0xc45433a00 additional_latency=1990500 cycles
Heartbeat CPU 0 instructions: 510000095 cycles: 510252734 heartbeat IPC: 0.9216 cumulative IPC: 0.9995 (Simulation time: 01 hr 11 min 41 sec)
Heartbeat CPU 0 instructions: 520000098 cycles: 516263188 heartbeat IPC: 1.664 cumulative IPC: 1.007 (Simulation time: 01 hr 12 min 46 sec)
[ERROR_CYCLE] Error added at CPU cycle 516413943, next at 523258148, pending count: 1
[DRAM_CYCLE_ERROR] Cycle-based error applied! address=0x3a3f1a7c0 additional_latency=1990500 cycles
[ERROR_CYCLE] Error added at CPU cycle 523258148, next at 524320531, pending count: 1
[DRAM_CYCLE_ERROR] Cycle-based error applied! address=0xee7c77e04 additional_latency=1990500 cycles
Heartbeat CPU 0 instructions: 530000101 cycles: 523443822 heartbeat IPC: 1.393 cumulative IPC: 1.013 (Simulation time: 01 hr 13 min 59 sec)
[ERROR_CYCLE] Error added at CPU cycle 524320531, next at 545421303, pending count: 1
[DRAM_CYCLE_ERROR] Cycle-based error applied! address=0xc45564700 additional_latency=1990500 cycles
Heartbeat CPU 0 instructions: 540000102 cycles: 532968142 heartbeat IPC: 1.05 cumulative IPC: 1.013 (Simulation time: 01 hr 15 min 22 sec)
Heartbeat CPU 0 instructions: 550000103 cycles: 544133463 heartbeat IPC: 0.8956 cumulative IPC: 1.011 (Simulation time: 01 hr 16 min 54 sec)
[ERROR_CYCLE] Error added at CPU cycle 545421304, next at 555011553, pending count: 1
[DRAM_CYCLE_ERROR] Cycle-based error applied! address=0xc454e86c0 additional_latency=1990500 cycles
Heartbeat CPU 0 instructions: 560000103 cycles: 550225277 heartbeat IPC: 1.642 cumulative IPC: 1.018 (Simulation time: 01 hr 17 min 58 sec)
[ERROR_CYCLE] Error added at CPU cycle 555011553, next at 566707107, pending count: 1
[DRAM_CYCLE_ERROR] Cycle-based error applied! address=0x3db89d80 additional_latency=1990500 cycles
Heartbeat CPU 0 instructions: 570000103 cycles: 557457705 heartbeat IPC: 1.383 cumulative IPC: 1.022 (Simulation time: 01 hr 19 min 12 sec)
[ERROR_CYCLE] Error added at CPU cycle 566707107, next at 602334490, pending count: 1
[DRAM_CYCLE_ERROR] Cycle-based error applied! address=0x821e06140 additional_latency=1990500 cycles
Heartbeat CPU 0 instructions: 580000103 cycles: 567023476 heartbeat IPC: 1.045 cumulative IPC: 1.023 (Simulation time: 01 hr 20 min 36 sec)
Heartbeat CPU 0 instructions: 590000103 cycles: 577918662 heartbeat IPC: 0.9178 cumulative IPC: 1.021 (Simulation time: 01 hr 22 min 06 sec)
Heartbeat CPU 0 instructions: 600000105 cycles: 584047369 heartbeat IPC: 1.632 cumulative IPC: 1.027 (Simulation time: 01 hr 23 min 11 sec)
Heartbeat CPU 0 instructions: 610000108 cycles: 591306271 heartbeat IPC: 1.378 cumulative IPC: 1.032 (Simulation time: 01 hr 24 min 25 sec)
Heartbeat CPU 0 instructions: 620000112 cycles: 601201383 heartbeat IPC: 1.011 cumulative IPC: 1.031 (Simulation time: 01 hr 25 min 49 sec)
[ERROR_CYCLE] Error added at CPU cycle 602334490, next at 607801697, pending count: 1
[DRAM_CYCLE_ERROR] Cycle-based error applied! address=0xc45514640 additional_latency=1990500 cycles
[ERROR_CYCLE] Error added at CPU cycle 607801697, next at 608543542, pending count: 1
[DRAM_CYCLE_ERROR] Cycle-based error applied! address=0xc39ec4218 additional_latency=1990500 cycles
[ERROR_CYCLE] Error added at CPU cycle 608543543, next at 610655090, pending count: 1
[DRAM_CYCLE_ERROR] Cycle-based error applied! address=0x8b4694944 additional_latency=1990500 cycles
[ERROR_CYCLE] Error added at CPU cycle 610655091, next at 613219349, pending count: 1
[DRAM_CYCLE_ERROR] Cycle-based error applied! address=0x1db90ad54 additional_latency=1990500 cycles
Heartbeat CPU 0 instructions: 630000114 cycles: 612215892 heartbeat IPC: 0.9079 cumulative IPC: 1.029 (Simulation time: 01 hr 27 min 20 sec)
[ERROR_CYCLE] Error added at CPU cycle 613219350, next at 613730924, pending count: 1
[DRAM_CYCLE_ERROR] Cycle-based error applied! address=0xc45463880 additional_latency=1990500 cycles
[ERROR_CYCLE] Error added at CPU cycle 613730925, next at 615686536, pending count: 1
[DRAM_CYCLE_ERROR] Cycle-based error applied! address=0x1db948c00 additional_latency=1990500 cycles
[ERROR_CYCLE] Error added at CPU cycle 615686536, next at 623830395, pending count: 1
[DRAM_CYCLE_ERROR] Cycle-based error applied! address=0x1db970600 additional_latency=1990500 cycles
Heartbeat CPU 0 instructions: 640000115 cycles: 618360270 heartbeat IPC: 1.628 cumulative IPC: 1.035 (Simulation time: 01 hr 28 min 25 sec)
[ERROR_CYCLE] Error added at CPU cycle 623830395, next at 655504590, pending count: 1
[DRAM_CYCLE_ERROR] Cycle-based error applied! address=0x3db3da80 additional_latency=1990500 cycles
Heartbeat CPU 0 instructions: 650000116 cycles: 625615222 heartbeat IPC: 1.378 cumulative IPC: 1.039 (Simulation time: 01 hr 29 min 39 sec)
Heartbeat CPU 0 instructions: 660000117 cycles: 635538393 heartbeat IPC: 1.008 cumulative IPC: 1.038 (Simulation time: 01 hr 31 min 02 sec)
Heartbeat CPU 0 instructions: 670000118 cycles: 647154987 heartbeat IPC: 0.8608 cumulative IPC: 1.035 (Simulation time: 01 hr 32 min 37 sec)
Heartbeat CPU 0 instructions: 680000120 cycles: 653494488 heartbeat IPC: 1.577 cumulative IPC: 1.041 (Simulation time: 01 hr 33 min 29 sec)
[ERROR_CYCLE] Error added at CPU cycle 655504590, next at 685296427, pending count: 1
[DRAM_CYCLE_ERROR] Cycle-based error applied! address=0x40c35e100 additional_latency=1990500 cycles
Heartbeat CPU 0 instructions: 690000121 cycles: 659852809 heartbeat IPC: 1.573 cumulative IPC: 1.046 (Simulation time: 01 hr 34 min 18 sec)
Heartbeat CPU 0 instructions: 700000122 cycles: 666203060 heartbeat IPC: 1.575 cumulative IPC: 1.051 (Simulation time: 01 hr 35 min 22 sec)
Heartbeat CPU 0 instructions: 710000122 cycles: 673373742 heartbeat IPC: 1.395 cumulative IPC: 1.054 (Simulation time: 01 hr 36 min 34 sec)
Heartbeat CPU 0 instructions: 720000123 cycles: 680192692 heartbeat IPC: 1.467 cumulative IPC: 1.059 (Simulation time: 01 hr 37 min 45 sec)
[ERROR_CYCLE] Error added at CPU cycle 685296428, next at 692067362, pending count: 1
[DRAM_CYCLE_ERROR] Cycle-based error applied! address=0xad0b1b800 additional_latency=1990500 cycles
Heartbeat CPU 0 instructions: 730000123 cycles: 687153682 heartbeat IPC: 1.437 cumulative IPC: 1.062 (Simulation time: 01 hr 38 min 57 sec)
[ERROR_CYCLE] Error added at CPU cycle 692067362, next at 693560863, pending count: 1
[DRAM_CYCLE_ERROR] Cycle-based error applied! address=0x72acaef40 additional_latency=1990500 cycles
[ERROR_CYCLE] Error added at CPU cycle 693560864, next at 696567615, pending count: 1
[DRAM_CYCLE_ERROR] Cycle-based error applied! address=0x1c2b9b040 additional_latency=1990500 cycles
Heartbeat CPU 0 instructions: 740000127 cycles: 695005228 heartbeat IPC: 1.274 cumulative IPC: 1.065 (Simulation time: 01 hr 40 min 12 sec)
[ERROR_CYCLE] Error added at CPU cycle 696567615, next at 705122761, pending count: 1
[DRAM_CYCLE_ERROR] Cycle-based error applied! address=0x3db4f808 additional_latency=1990500 cycles
Heartbeat CPU 0 instructions: 750000127 cycles: 702692205 heartbeat IPC: 1.301 cumulative IPC: 1.067 (Simulation time: 01 hr 41 min 13 sec)
[ERROR_CYCLE] Error added at CPU cycle 705122762, next at 747545945, pending count: 1
[DRAM_CYCLE_ERROR] Cycle-based error applied! address=0xc39f79070 additional_latency=1990500 cycles
Heartbeat CPU 0 instructions: 760000130 cycles: 710484751 heartbeat IPC: 1.283 cumulative IPC: 1.07 (Simulation time: 01 hr 42 min 15 sec)
Heartbeat CPU 0 instructions: 770000130 cycles: 718246975 heartbeat IPC: 1.288 cumulative IPC: 1.072 (Simulation time: 01 hr 43 min 16 sec)
Heartbeat CPU 0 instructions: 780000130 cycles: 726017875 heartbeat IPC: 1.287 cumulative IPC: 1.074 (Simulation time: 01 hr 44 min 17 sec)
Heartbeat CPU 0 instructions: 790000130 cycles: 733888521 heartbeat IPC: 1.271 cumulative IPC: 1.076 (Simulation time: 01 hr 45 min 19 sec)
Heartbeat CPU 0 instructions: 800000131 cycles: 741632856 heartbeat IPC: 1.291 cumulative IPC: 1.079 (Simulation time: 01 hr 46 min 21 sec)
[ERROR_CYCLE] Error added at CPU cycle 747545946, next at 748669179, pending count: 1
[ERROR_CYCLE] Error added at CPU cycle 748669179, next at 755019492, pending count: 2
[DRAM_CYCLE_ERROR] Cycle-based error applied! address=0xc39f79b44 additional_latency=1990500 cycles
[DRAM_CYCLE_ERROR] Cycle-based error applied! address=0xc39fa9454 additional_latency=1990500 cycles
Heartbeat CPU 0 instructions: 810000131 cycles: 749462395 heartbeat IPC: 1.277 cumulative IPC: 1.081 (Simulation time: 01 hr 47 min 23 sec)
[ERROR_CYCLE] Error added at CPU cycle 755019492, next at 755497083, pending count: 1
[ERROR_CYCLE] Error added at CPU cycle 755497084, next at 758773095, pending count: 2
[DRAM_CYCLE_ERROR] Cycle-based error applied! address=0x47e35b828 additional_latency=1990500 cycles
[DRAM_CYCLE_ERROR] Cycle-based error applied! address=0x8b46a1aa8 additional_latency=1990500 cycles
Heartbeat CPU 0 instructions: 820000135 cycles: 757390359 heartbeat IPC: 1.261 cumulative IPC: 1.083 (Simulation time: 01 hr 48 min 25 sec)
[ERROR_CYCLE] Error added at CPU cycle 758773095, next at 767932446, pending count: 1
[DRAM_CYCLE_ERROR] Cycle-based error applied! address=0xc39f79de0 additional_latency=1990500 cycles
Heartbeat CPU 0 instructions: 830000138 cycles: 765049163 heartbeat IPC: 1.306 cumulative IPC: 1.085 (Simulation time: 01 hr 49 min 26 sec)
[ERROR_CYCLE] Error added at CPU cycle 767932447, next at 768052303, pending count: 1
[ERROR_CYCLE] Error added at CPU cycle 768052303, next at 768100071, pending count: 2
[ERROR_CYCLE] Error added at CPU cycle 768100072, next at 768264987, pending count: 3
[ERROR_CYCLE] Error added at CPU cycle 768264987, next at 773476830, pending count: 4
[DRAM_CYCLE_ERROR] Cycle-based error applied! address=0xc39f7a078 additional_latency=1990500 cycles
[DRAM_CYCLE_ERROR] Cycle-based error applied! address=0xc39f7a080 additional_latency=1990500 cycles
[DRAM_CYCLE_ERROR] Cycle-based error applied! address=0xc39fa9990 additional_latency=1990500 cycles
[DRAM_CYCLE_ERROR] Cycle-based error applied! address=0x8b4729980 additional_latency=1990500 cycles
Heartbeat CPU 0 instructions: 840000139 cycles: 773118696 heartbeat IPC: 1.239 cumulative IPC: 1.087 (Simulation time: 01 hr 50 min 29 sec)
[ERROR_CYCLE] Error added at CPU cycle 773476830, next at 775408797, pending count: 1
[ERROR_CYCLE] Error added at CPU cycle 775408797, next at 776477567, pending count: 2
[DRAM_CYCLE_ERROR] Cycle-based error applied! address=0xc39f7a1c4 additional_latency=1990500 cycles
[DRAM_CYCLE_ERROR] Cycle-based error applied! address=0x1c2b9a1c8 additional_latency=1990500 cycles
[ERROR_CYCLE] Error added at CPU cycle 776477568, next at 782055313, pending count: 1
[DRAM_CYCLE_ERROR] Cycle-based error applied! address=0x7d76cdba8 additional_latency=1990500 cycles
Heartbeat CPU 0 instructions: 850000141 cycles: 780856760 heartbeat IPC: 1.292 cumulative IPC: 1.089 (Simulation time: 01 hr 51 min 31 sec)
[ERROR_CYCLE] Error added at CPU cycle 782055314, next at 793366198, pending count: 1
[DRAM_CYCLE_ERROR] Cycle-based error applied! address=0x8b460a128 additional_latency=1990500 cycles
Heartbeat CPU 0 instructions: 860000141 cycles: 788928178 heartbeat IPC: 1.239 cumulative IPC: 1.09 (Simulation time: 01 hr 52 min 34 sec)
[ERROR_CYCLE] Error added at CPU cycle 793366198, next at 800738627, pending count: 1
[DRAM_CYCLE_ERROR] Cycle-based error applied! address=0x8b46b1be8 additional_latency=1990500 cycles
Heartbeat CPU 0 instructions: 870000142 cycles: 796703254 heartbeat IPC: 1.286 cumulative IPC: 1.092 (Simulation time: 01 hr 53 min 36 sec)
[ERROR_CYCLE] Error added at CPU cycle 800738628, next at 804703481, pending count: 1
[DRAM_CYCLE_ERROR] Cycle-based error applied! address=0x7d76d6ea8 additional_latency=1990500 cycles
Heartbeat CPU 0 instructions: 880000145 cycles: 804686719 heartbeat IPC: 1.253 cumulative IPC: 1.094 (Simulation time: 01 hr 54 min 39 sec)
[ERROR_CYCLE] Error added at CPU cycle 804703481, next at 812634114, pending count: 1
[DRAM_CYCLE_ERROR] Cycle-based error applied! address=0x47e3702e8 additional_latency=1990500 cycles
[ERROR_CYCLE] Error added at CPU cycle 812634115, next at 825252033, pending count: 1
[DRAM_CYCLE_ERROR] Cycle-based error applied! address=0x1c2bfc000 additional_latency=1990500 cycles
Heartbeat CPU 0 instructions: 890000145 cycles: 812744429 heartbeat IPC: 1.241 cumulative IPC: 1.095 (Simulation time: 01 hr 55 min 42 sec)
Heartbeat CPU 0 instructions: 900000145 cycles: 820475009 heartbeat IPC: 1.294 cumulative IPC: 1.097 (Simulation time: 01 hr 56 min 44 sec)
[ERROR_CYCLE] Error added at CPU cycle 825252034, next at 830437472, pending count: 1
[DRAM_CYCLE_ERROR] Cycle-based error applied! address=0xc39f7ada4 additional_latency=1990500 cycles
Heartbeat CPU 0 instructions: 910000145 cycles: 828811654 heartbeat IPC: 1.2 cumulative IPC: 1.098 (Simulation time: 01 hr 57 min 49 sec)
[ERROR_CYCLE] Error added at CPU cycle 830437472, next at 838935145, pending count: 1
[DRAM_CYCLE_ERROR] Cycle-based error applied! address=0xc39f7aef0 additional_latency=1990500 cycles
Heartbeat CPU 0 instructions: 920000148 cycles: 836726984 heartbeat IPC: 1.263 cumulative IPC: 1.1 (Simulation time: 01 hr 58 min 52 sec)
[ERROR_CYCLE] Error added at CPU cycle 838935145, next at 861804158, pending count: 1
[DRAM_CYCLE_ERROR] Cycle-based error applied! address=0x47e37df68 additional_latency=1990500 cycles
Heartbeat CPU 0 instructions: 930000152 cycles: 844712427 heartbeat IPC: 1.252 cumulative IPC: 1.101 (Simulation time: 01 hr 59 min 55 sec)
Heartbeat CPU 0 instructions: 940000153 cycles: 852780687 heartbeat IPC: 1.239 cumulative IPC: 1.102 (Simulation time: 02 hr 00 min 58 sec)
Heartbeat CPU 0 instructions: 950000153 cycles: 860618958 heartbeat IPC: 1.276 cumulative IPC: 1.104 (Simulation time: 02 hr 02 min 00 sec)
[ERROR_CYCLE] Error added at CPU cycle 861804158, next at 864139244, pending count: 1
[DRAM_CYCLE_ERROR] Cycle-based error applied! address=0x8b4770628 additional_latency=1990500 cycles
[ERROR_CYCLE] Error added at CPU cycle 864139244, next at 883044804, pending count: 1
[DRAM_CYCLE_ERROR] Cycle-based error applied! address=0x94c211f80 additional_latency=1990500 cycles
Heartbeat CPU 0 instructions: 960000154 cycles: 868783562 heartbeat IPC: 1.225 cumulative IPC: 1.105 (Simulation time: 02 hr 03 min 04 sec)
Heartbeat CPU 0 instructions: 970000155 cycles: 876585820 heartbeat IPC: 1.282 cumulative IPC: 1.107 (Simulation time: 02 hr 04 min 06 sec)
[ERROR_CYCLE] Error added at CPU cycle 883044804, next at 885467139, pending count: 1
[DRAM_CYCLE_ERROR] Cycle-based error applied! address=0xc39f7bacc additional_latency=1990500 cycles
Heartbeat CPU 0 instructions: 980000156 cycles: 884836899 heartbeat IPC: 1.212 cumulative IPC: 1.108 (Simulation time: 02 hr 05 min 09 sec)
[ERROR_CYCLE] Error added at CPU cycle 885467140, next at 887176065, pending count: 1
[DRAM_CYCLE_ERROR] Cycle-based error applied! address=0x7d76f95e8 additional_latency=1990500 cycles
[ERROR_CYCLE] Error added at CPU cycle 887176065, next at 891433294, pending count: 1
[DRAM_CYCLE_ERROR] Cycle-based error applied! address=0xc39f7bc1c additional_latency=1990500 cycles
[ERROR_CYCLE] Error added at CPU cycle 891433294, next at 910142062, pending count: 1
[DRAM_CYCLE_ERROR] Cycle-based error applied! address=0x94c21da00 additional_latency=1990500 cycles
Heartbeat CPU 0 instructions: 990000156 cycles: 892593224 heartbeat IPC: 1.289 cumulative IPC: 1.109 (Simulation time: 02 hr 06 min 11 sec)
Heartbeat CPU 0 instructions: 1000000156 cycles: 900826303 heartbeat IPC: 1.215 cumulative IPC: 1.11 (Simulation time: 02 hr 07 min 15 sec)
Heartbeat CPU 0 instructions: 1010000159 cycles: 908515302 heartbeat IPC: 1.301 cumulative IPC: 1.112 (Simulation time: 02 hr 08 min 16 sec)
[ERROR_CYCLE] Error added at CPU cycle 910142062, next at 912455925, pending count: 1
[DRAM_CYCLE_ERROR] Cycle-based error applied! address=0x8b463ee68 additional_latency=1990500 cycles
[ERROR_CYCLE] Error added at CPU cycle 912455925, next at 920452495, pending count: 1
[DRAM_CYCLE_ERROR] Cycle-based error applied! address=0xc39f7c2a0 additional_latency=1990500 cycles
Heartbeat CPU 0 instructions: 1020000162 cycles: 916665029 heartbeat IPC: 1.227 cumulative IPC: 1.113 (Simulation time: 02 hr 09 min 20 sec)
[ERROR_CYCLE] Error added at CPU cycle 920452495, next at 925358975, pending count: 1
[DRAM_CYCLE_ERROR] Cycle-based error applied! address=0x47e3a06a8 additional_latency=1990500 cycles
Heartbeat CPU 0 instructions: 1030000163 cycles: 924551515 heartbeat IPC: 1.268 cumulative IPC: 1.114 (Simulation time: 02 hr 10 min 22 sec)
[ERROR_CYCLE] Error added at CPU cycle 925358976, next at 928208581, pending count: 1
[DRAM_CYCLE_ERROR] Cycle-based error applied! address=0x47e3a2b68 additional_latency=1990500 cycles
[ERROR_CYCLE] Error added at CPU cycle 928208581, next at 935551244, pending count: 1
[DRAM_CYCLE_ERROR] Cycle-based error applied! address=0x8b476d900 additional_latency=1990500 cycles
Heartbeat CPU 0 instructions: 1040000163 cycles: 932749362 heartbeat IPC: 1.22 cumulative IPC: 1.115 (Simulation time: 02 hr 11 min 26 sec)
[ERROR_CYCLE] Error added at CPU cycle 935551244, next at 940277711, pending count: 1
[DRAM_CYCLE_ERROR] Cycle-based error applied! address=0x47e3a74e8 additional_latency=1990500 cycles
[ERROR_CYCLE] Error added at CPU cycle 940277711, next at 941361915, pending count: 1
Heartbeat CPU 0 instructions: 1050000164 cycles: 940741437 heartbeat IPC: 1.251 cumulative IPC: 1.116 (Simulation time: 02 hr 12 min 29 sec)
[ERROR_CYCLE] Error added at CPU cycle 941361915, next at 944131710, pending count: 2
[DRAM_CYCLE_ERROR] Cycle-based error applied! address=0x7d7712a28 additional_latency=1990500 cycles
[DRAM_CYCLE_ERROR] Cycle-based error applied! address=0x8b46efc28 additional_latency=1990500 cycles
[ERROR_CYCLE] Error added at CPU cycle 944131710, next at 965831250, pending count: 1
[DRAM_CYCLE_ERROR] Cycle-based error applied! address=0xc39f7ca60 additional_latency=1990500 cycles
Heartbeat CPU 0 instructions: 1060000168 cycles: 948495874 heartbeat IPC: 1.29 cumulative IPC: 1.118 (Simulation time: 02 hr 13 min 31 sec)
Heartbeat CPU 0 instructions: 1070000171 cycles: 956634186 heartbeat IPC: 1.229 cumulative IPC: 1.119 (Simulation time: 02 hr 14 min 34 sec)
Heartbeat CPU 0 instructions: 1080000171 cycles: 964557455 heartbeat IPC: 1.262 cumulative IPC: 1.12 (Simulation time: 02 hr 15 min 37 sec)
[ERROR_CYCLE] Error added at CPU cycle 965831250, next at 978230112, pending count: 1
[DRAM_CYCLE_ERROR] Cycle-based error applied! address=0x7d771e1e8 additional_latency=1990500 cycles
Heartbeat CPU 0 instructions: 1090000171 cycles: 972522489 heartbeat IPC: 1.255 cumulative IPC: 1.121 (Simulation time: 02 hr 16 min 31 sec)
[ERROR_CYCLE] Error added at CPU cycle 978230113, next at 995345989, pending count: 1
Heartbeat CPU 0 instructions: 1100000172 cycles: 980323741 heartbeat IPC: 1.282 cumulative IPC: 1.122 (Simulation time: 02 hr 17 min 30 sec)
[DRAM_CYCLE_ERROR] Cycle-based error applied! address=0xc39f7d384 additional_latency=1990500 cycles
Heartbeat CPU 0 instructions: 1110000172 cycles: 988280806 heartbeat IPC: 1.257 cumulative IPC: 1.123 (Simulation time: 02 hr 18 min 18 sec)
[ERROR_CYCLE] Error added at CPU cycle 995345989, next at 1001484614, pending count: 1
[DRAM_CYCLE_ERROR] Cycle-based error applied! address=0xc39f7d748 additional_latency=1990500 cycles
Heartbeat CPU 0 instructions: 1120000175 cycles: 995929993 heartbeat IPC: 1.307 cumulative IPC: 1.125 (Simulation time: 02 hr 19 min 12 sec)
[ERROR_CYCLE] Error added at CPU cycle 1001484615, next at 1010972056, pending count: 1
[DRAM_CYCLE_ERROR] Cycle-based error applied! address=0x1e6d87918 additional_latency=1990500 cycles
Heartbeat CPU 0 instructions: 1130000177 cycles: 1004358430 heartbeat IPC: 1.186 cumulative IPC: 1.125 (Simulation time: 02 hr 20 min 14 sec)
[ERROR_CYCLE] Error added at CPU cycle 1010972057, next at 1013450836, pending count: 1
[DRAM_CYCLE_ERROR] Cycle-based error applied! address=0x40c338880 additional_latency=1990500 cycles
Heartbeat CPU 0 instructions: 1140000177 cycles: 1012187589 heartbeat IPC: 1.277 cumulative IPC: 1.126 (Simulation time: 02 hr 21 min 09 sec)
[ERROR_CYCLE] Error added at CPU cycle 1013450836, next at 1027850374, pending count: 1
[DRAM_CYCLE_ERROR] Cycle-based error applied! address=0x40c348500 additional_latency=1990500 cycles
Heartbeat CPU 0 instructions: 1150000177 cycles: 1018552438 heartbeat IPC: 1.571 cumulative IPC: 1.129 (Simulation time: 02 hr 22 min 07 sec)
Heartbeat CPU 0 instructions: 1160000177 cycles: 1024930718 heartbeat IPC: 1.568 cumulative IPC: 1.132 (Simulation time: 02 hr 23 min 11 sec)
[ERROR_CYCLE] Error added at CPU cycle 1027850375, next at 1040360188, pending count: 1
[DRAM_CYCLE_ERROR] Cycle-based error applied! address=0x40c3a3740 additional_latency=1990500 cycles
Heartbeat CPU 0 instructions: 1170000178 cycles: 1034700030 heartbeat IPC: 1.024 cumulative IPC: 1.131 (Simulation time: 02 hr 24 min 43 sec)
[ERROR_CYCLE] Error added at CPU cycle 1040360189, next at 1048241966, pending count: 1
[DRAM_CYCLE_ERROR] Cycle-based error applied! address=0x8b46fbfc4 additional_latency=1990500 cycles
[ERROR_CYCLE] Error added at CPU cycle 1048241966, next at 1057607729, pending count: 1
[DRAM_CYCLE_ERROR] Cycle-based error applied! address=0xe18f35c04 additional_latency=1990500 cycles
Heartbeat CPU 0 instructions: 1180000178 cycles: 1050320838 heartbeat IPC: 0.6402 cumulative IPC: 1.123 (Simulation time: 02 hr 26 min 21 sec)
[ERROR_CYCLE] Error added at CPU cycle 1057607729, next at 1078039556, pending count: 1
[DRAM_CYCLE_ERROR] Cycle-based error applied! address=0x7e5eccf84 additional_latency=1990500 cycles
Heartbeat CPU 0 instructions: 1190000178 cycles: 1059560814 heartbeat IPC: 1.082 cumulative IPC: 1.123 (Simulation time: 02 hr 27 min 56 sec)
Heartbeat CPU 0 instructions: 1200000178 cycles: 1066688037 heartbeat IPC: 1.403 cumulative IPC: 1.125 (Simulation time: 02 hr 29 min 07 sec)
Heartbeat CPU 0 instructions: 1210000178 cycles: 1073825450 heartbeat IPC: 1.401 cumulative IPC: 1.127 (Simulation time: 02 hr 30 min 06 sec)
[ERROR_CYCLE] Error added at CPU cycle 1078039557, next at 1093227895, pending count: 1
[DRAM_CYCLE_ERROR] Cycle-based error applied! address=0x9370c65c0 additional_latency=1990500 cycles
Heartbeat CPU 0 instructions: 1220000179 cycles: 1080954843 heartbeat IPC: 1.403 cumulative IPC: 1.129 (Simulation time: 02 hr 31 min 10 sec)
[ERROR_CYCLE] Error added at CPU cycle 1093227895, next at 1095375545, pending count: 1
[DRAM_CYCLE_ERROR] Cycle-based error applied! address=0x935d1ca40 additional_latency=1990500 cycles
[ERROR_CYCLE] Error added at CPU cycle 1095375545, next at 1101804530, pending count: 1
[DRAM_CYCLE_ERROR] Cycle-based error applied! address=0x9ae639b84 additional_latency=1990500 cycles
Heartbeat CPU 0 instructions: 1230000181 cycles: 1096479177 heartbeat IPC: 0.6442 cumulative IPC: 1.122 (Simulation time: 02 hr 32 min 51 sec)
[ERROR_CYCLE] Error added at CPU cycle 1101804530, next at 1107079687, pending count: 1
[DRAM_CYCLE_ERROR] Cycle-based error applied! address=0x5d49fc2d4 additional_latency=1990500 cycles
[ERROR_CYCLE] Error added at CPU cycle 1107079687, next at 1115318803, pending count: 1
[DRAM_CYCLE_ERROR] Cycle-based error applied! address=0x8ba819684 additional_latency=1990500 cycles
Heartbeat CPU 0 instructions: 1240000181 cycles: 1107416733 heartbeat IPC: 0.9143 cumulative IPC: 1.12 (Simulation time: 02 hr 34 min 03 sec)
Heartbeat CPU 0 instructions: 1250000185 cycles: 1115208093 heartbeat IPC: 1.283 cumulative IPC: 1.121 (Simulation time: 02 hr 35 min 04 sec)
[ERROR_CYCLE] Error added at CPU cycle 1115318803, next at 1135008200, pending count: 1
[DRAM_CYCLE_ERROR] Cycle-based error applied! address=0xc4553ab94 additional_latency=1990500 cycles
Heartbeat CPU 0 instructions: 1260000185 cycles: 1122963433 heartbeat IPC: 1.289 cumulative IPC: 1.122 (Simulation time: 02 hr 36 min 03 sec)
Heartbeat CPU 0 instructions: 1270000185 cycles: 1130713372 heartbeat IPC: 1.29 cumulative IPC: 1.123 (Simulation time: 02 hr 37 min 04 sec)
[ERROR_CYCLE] Error added at CPU cycle 1135008201, next at 1140982700, pending count: 1
[DRAM_CYCLE_ERROR] Cycle-based error applied! address=0xfddc8e00 additional_latency=1990500 cycles
Heartbeat CPU 0 instructions: 1280000185 cycles: 1138469148 heartbeat IPC: 1.289 cumulative IPC: 1.124 (Simulation time: 02 hr 38 min 04 sec)
[ERROR_CYCLE] Error added at CPU cycle 1140982700, next at 1154083331, pending count: 1
[DRAM_CYCLE_ERROR] Cycle-based error applied! address=0xc4553b000 additional_latency=1990500 cycles
Heartbeat CPU 0 instructions: 1290000185 cycles: 1146217603 heartbeat IPC: 1.291 cumulative IPC: 1.125 (Simulation time: 02 hr 39 min 04 sec)
Heartbeat CPU 0 instructions: 1300000186 cycles: 1153963257 heartbeat IPC: 1.291 cumulative IPC: 1.127 (Simulation time: 02 hr 40 min 04 sec)
[ERROR_CYCLE] Error added at CPU cycle 1154083332, next at 1155066855, pending count: 1
[DRAM_CYCLE_ERROR] Cycle-based error applied! address=0x3e844a300 additional_latency=1990500 cycles
[ERROR_CYCLE] Error added at CPU cycle 1155066856, next at 1164180982, pending count: 1
[DRAM_CYCLE_ERROR] Cycle-based error applied! address=0xfddc9180 additional_latency=1990500 cycles
Heartbeat CPU 0 instructions: 1310000188 cycles: 1161701170 heartbeat IPC: 1.292 cumulative IPC: 1.128 (Simulation time: 02 hr 40 min 59 sec)
[ERROR_CYCLE] Error added at CPU cycle 1164180982, next at 1170052729, pending count: 1
[DRAM_CYCLE_ERROR] Cycle-based error applied! address=0xc4553b400 additional_latency=1990500 cycles
Heartbeat CPU 0 instructions: 1320000191 cycles: 1169420164 heartbeat IPC: 1.296 cumulative IPC: 1.129 (Simulation time: 02 hr 41 min 46 sec)
[ERROR_CYCLE] Error added at CPU cycle 1170052730, next at 1201159550, pending count: 1
[DRAM_CYCLE_ERROR] Cycle-based error applied! address=0x3e844a5c0 additional_latency=1990500 cycles
Heartbeat CPU 0 instructions: 1330000194 cycles: 1177123119 heartbeat IPC: 1.298 cumulative IPC: 1.13 (Simulation time: 02 hr 42 min 46 sec)
Heartbeat CPU 0 instructions: 1340000195 cycles: 1184813508 heartbeat IPC: 1.3 cumulative IPC: 1.131 (Simulation time: 02 hr 43 min 46 sec)
Heartbeat CPU 0 instructions: 1350000198 cycles: 1192487824 heartbeat IPC: 1.303 cumulative IPC: 1.132 (Simulation time: 02 hr 44 min 46 sec)
Heartbeat CPU 0 instructions: 1360000198 cycles: 1200146865 heartbeat IPC: 1.306 cumulative IPC: 1.133 (Simulation time: 02 hr 45 min 47 sec)
[ERROR_CYCLE] Error added at CPU cycle 1201159551, next at 1219803754, pending count: 1
[DRAM_CYCLE_ERROR] Cycle-based error applied! address=0x3e844ab40 additional_latency=1990500 cycles
Heartbeat CPU 0 instructions: 1370000200 cycles: 1207818406 heartbeat IPC: 1.304 cumulative IPC: 1.134 (Simulation time: 02 hr 46 min 47 sec)
Heartbeat CPU 0 instructions: 1380000201 cycles: 1215481803 heartbeat IPC: 1.305 cumulative IPC: 1.135 (Simulation time: 02 hr 47 min 47 sec)
[ERROR_CYCLE] Error added at CPU cycle 1219803754, next at 1222032553, pending count: 1
[DRAM_CYCLE_ERROR] Cycle-based error applied! address=0x3e844aec0 additional_latency=1990500 cycles
[ERROR_CYCLE] Error added at CPU cycle 1222032554, next at 1224789878, pending count: 1
[DRAM_CYCLE_ERROR] Cycle-based error applied! address=0x3e844af00 additional_latency=1990500 cycles
Heartbeat CPU 0 instructions: 1390000201 cycles: 1223148975 heartbeat IPC: 1.304 cumulative IPC: 1.136 (Simulation time: 02 hr 48 min 46 sec)
[ERROR_CYCLE] Error added at CPU cycle 1224789879, next at 1231478862, pending count: 1
[DRAM_CYCLE_ERROR] Cycle-based error applied! address=0x3e844af80 additional_latency=1990500 cycles
Heartbeat CPU 0 instructions: 1400000205 cycles: 1230818826 heartbeat IPC: 1.304 cumulative IPC: 1.137 (Simulation time: 02 hr 49 min 46 sec)
[ERROR_CYCLE] Error added at CPU cycle 1231478862, next at 1231912145, pending count: 1
[DRAM_CYCLE_ERROR] Cycle-based error applied! address=0xc4553c000 additional_latency=1990500 cycles
[ERROR_CYCLE] Error added at CPU cycle 1231912145, next at 1236268432, pending count: 1
[DRAM_CYCLE_ERROR] Cycle-based error applied! address=0x3e844b0c0 additional_latency=1990500 cycles
[ERROR_CYCLE] Error added at CPU cycle 1236268432, next at 1250618753, pending count: 1
[DRAM_CYCLE_ERROR] Cycle-based error applied! address=0xfddca000 additional_latency=1990500 cycles
Heartbeat CPU 0 instructions: 1410000206 cycles: 1238502064 heartbeat IPC: 1.302 cumulative IPC: 1.138 (Simulation time: 02 hr 50 min 46 sec)
Heartbeat CPU 0 instructions: 1420000206 cycles: 1246185029 heartbeat IPC: 1.302 cumulative IPC: 1.139 (Simulation time: 02 hr 51 min 46 sec)
[ERROR_CYCLE] Error added at CPU cycle 1250618753, next at 1293864347, pending count: 1
[DRAM_CYCLE_ERROR] Cycle-based error applied! address=0xc4553c380 additional_latency=1990500 cycles
Heartbeat CPU 0 instructions: 1430000210 cycles: 1253875056 heartbeat IPC: 1.3 cumulative IPC: 1.14 (Simulation time: 02 hr 52 min 46 sec)
Heartbeat CPU 0 instructions: 1440000213 cycles: 1261560278 heartbeat IPC: 1.301 cumulative IPC: 1.141 (Simulation time: 02 hr 53 min 46 sec)
Heartbeat CPU 0 instructions: 1450000214 cycles: 1269236355 heartbeat IPC: 1.303 cumulative IPC: 1.142 (Simulation time: 02 hr 54 min 46 sec)
Heartbeat CPU 0 instructions: 1460000214 cycles: 1276914037 heartbeat IPC: 1.302 cumulative IPC: 1.143 (Simulation time: 02 hr 55 min 46 sec)
Heartbeat CPU 0 instructions: 1470000214 cycles: 1284593864 heartbeat IPC: 1.302 cumulative IPC: 1.144 (Simulation time: 02 hr 56 min 47 sec)
Heartbeat CPU 0 instructions: 1480000214 cycles: 1292276924 heartbeat IPC: 1.302 cumulative IPC: 1.145 (Simulation time: 02 hr 57 min 47 sec)
[ERROR_CYCLE] Error added at CPU cycle 1293864347, next at 1304881196, pending count: 1
[DRAM_CYCLE_ERROR] Cycle-based error applied! address=0x3e844bbc0 additional_latency=1990500 cycles
Heartbeat CPU 0 instructions: 1490000216 cycles: 1299963260 heartbeat IPC: 1.301 cumulative IPC: 1.146 (Simulation time: 02 hr 58 min 47 sec)
[ERROR_CYCLE] Error added at CPU cycle 1304881197, next at 1314838771, pending count: 1
[DRAM_CYCLE_ERROR] Cycle-based error applied! address=0xc4553cd00 additional_latency=1990500 cycles
Heartbeat CPU 0 instructions: 1500000217 cycles: 1307652770 heartbeat IPC: 1.3 cumulative IPC: 1.147 (Simulation time: 02 hr 59 min 47 sec)
[ERROR_CYCLE] Error added at CPU cycle 1314838771, next at 1321326019, pending count: 1
[DRAM_CYCLE_ERROR] Cycle-based error applied! address=0x3e844bf40 additional_latency=1990500 cycles
Heartbeat CPU 0 instructions: 1510000220 cycles: 1315338399 heartbeat IPC: 1.301 cumulative IPC: 1.148 (Simulation time: 03 hr 00 min 47 sec)
[ERROR_CYCLE] Error added at CPU cycle 1321326020, next at 1334779567, pending count: 1
[DRAM_CYCLE_ERROR] Cycle-based error applied! address=0x3e844c080 additional_latency=1990500 cycles
Heartbeat CPU 0 instructions: 1520000220 cycles: 1323014465 heartbeat IPC: 1.303 cumulative IPC: 1.149 (Simulation time: 03 hr 01 min 48 sec)
Heartbeat CPU 0 instructions: 1530000221 cycles: 1330696768 heartbeat IPC: 1.302 cumulative IPC: 1.15 (Simulation time: 03 hr 02 min 49 sec)
[ERROR_CYCLE] Error added at CPU cycle 1334779568, next at 1341662842, pending count: 1
[DRAM_CYCLE_ERROR] Cycle-based error applied! address=0xfddcb140 additional_latency=1990500 cycles
Heartbeat CPU 0 instructions: 1540000221 cycles: 1338378965 heartbeat IPC: 1.302 cumulative IPC: 1.151 (Simulation time: 03 hr 03 min 49 sec)
[ERROR_CYCLE] Error added at CPU cycle 1341662842, next at 1341958013, pending count: 1
[DRAM_CYCLE_ERROR] Cycle-based error applied! address=0x3e844c400 additional_latency=1990500 cycles
[ERROR_CYCLE] Error added at CPU cycle 1341958014, next at 1347444921, pending count: 1
[DRAM_CYCLE_ERROR] Cycle-based error applied! address=0xfddcb280 additional_latency=1990500 cycles
Heartbeat CPU 0 instructions: 1550000222 cycles: 1346053687 heartbeat IPC: 1.303 cumulative IPC: 1.152 (Simulation time: 03 hr 04 min 50 sec)
[ERROR_CYCLE] Error added at CPU cycle 1347444921, next at 1348889686, pending count: 1
[DRAM_CYCLE_ERROR] Cycle-based error applied! address=0xc4553d480 additional_latency=1990500 cycles
[ERROR_CYCLE] Error added at CPU cycle 1348889686, next at 1370368934, pending count: 1
[DRAM_CYCLE_ERROR] Cycle-based error applied! address=0xfddcb3c0 additional_latency=1990500 cycles
Heartbeat CPU 0 instructions: 1560000222 cycles: 1353698488 heartbeat IPC: 1.308 cumulative IPC: 1.152 (Simulation time: 03 hr 05 min 50 sec)
Heartbeat CPU 0 instructions: 1570000222 cycles: 1361333023 heartbeat IPC: 1.31 cumulative IPC: 1.153 (Simulation time: 03 hr 06 min 50 sec)
Heartbeat CPU 0 instructions: 1580000222 cycles: 1368981765 heartbeat IPC: 1.307 cumulative IPC: 1.154 (Simulation time: 03 hr 07 min 50 sec)
[ERROR_CYCLE] Error added at CPU cycle 1370368934, next at 1377657432, pending count: 1
[DRAM_CYCLE_ERROR] Cycle-based error applied! address=0xc4553d880 additional_latency=1990500 cycles
Heartbeat CPU 0 instructions: 1590000225 cycles: 1376635306 heartbeat IPC: 1.307 cumulative IPC: 1.155 (Simulation time: 03 hr 08 min 50 sec)
[ERROR_CYCLE] Error added at CPU cycle 1377657432, next at 1418042020, pending count: 1
[DRAM_CYCLE_ERROR] Cycle-based error applied! address=0x3e844ca80 additional_latency=1990500 cycles
Heartbeat CPU 0 instructions: 1600000229 cycles: 1384275330 heartbeat IPC: 1.309 cumulative IPC: 1.156 (Simulation time: 03 hr 09 min 49 sec)
Heartbeat CPU 0 instructions: 1610000233 cycles: 1391919830 heartbeat IPC: 1.308 cumulative IPC: 1.157 (Simulation time: 03 hr 10 min 46 sec)
Heartbeat CPU 0 instructions: 1620000233 cycles: 1399555448 heartbeat IPC: 1.31 cumulative IPC: 1.158 (Simulation time: 03 hr 11 min 45 sec)
Heartbeat CPU 0 instructions: 1630000235 cycles: 1407200423 heartbeat IPC: 1.308 cumulative IPC: 1.158 (Simulation time: 03 hr 12 min 44 sec)
Heartbeat CPU 0 instructions: 1640000237 cycles: 1414846639 heartbeat IPC: 1.308 cumulative IPC: 1.159 (Simulation time: 03 hr 13 min 44 sec)
[ERROR_CYCLE] Error added at CPU cycle 1418042020, next at 1428774744, pending count: 1
[DRAM_CYCLE_ERROR] Cycle-based error applied! address=0x3e844d180 additional_latency=1990500 cycles
Heartbeat CPU 0 instructions: 1650000238 cycles: 1422497561 heartbeat IPC: 1.307 cumulative IPC: 1.16 (Simulation time: 03 hr 14 min 44 sec)
[ERROR_CYCLE] Error added at CPU cycle 1428774745, next at 1430659638, pending count: 1
[DRAM_CYCLE_ERROR] Cycle-based error applied! address=0x3e844d380 additional_latency=1990500 cycles
Heartbeat CPU 0 instructions: 1660000238 cycles: 1430157655 heartbeat IPC: 1.305 cumulative IPC: 1.161 (Simulation time: 03 hr 15 min 28 sec)
[ERROR_CYCLE] Error added at CPU cycle 1430659639, next at 1434805602, pending count: 1
[DRAM_CYCLE_ERROR] Cycle-based error applied! address=0x3e844d3c0 additional_latency=1990500 cycles
[ERROR_CYCLE] Error added at CPU cycle 1434805602, next at 1439910027, pending count: 1
[DRAM_CYCLE_ERROR] Cycle-based error applied! address=0xc4553e3c0 additional_latency=1990500 cycles
Heartbeat CPU 0 instructions: 1670000242 cycles: 1437828607 heartbeat IPC: 1.304 cumulative IPC: 1.161 (Simulation time: 03 hr 16 min 09 sec)
[ERROR_CYCLE] Error added at CPU cycle 1439910028, next at 1455265502, pending count: 1
[DRAM_CYCLE_ERROR] Cycle-based error applied! address=0xfddcc3c0 additional_latency=1990500 cycles
Heartbeat CPU 0 instructions: 1680000242 cycles: 1445511532 heartbeat IPC: 1.302 cumulative IPC: 1.162 (Simulation time: 03 hr 16 min 48 sec)
Heartbeat CPU 0 instructions: 1690000242 cycles: 1453192767 heartbeat IPC: 1.302 cumulative IPC: 1.163 (Simulation time: 03 hr 17 min 38 sec)
[ERROR_CYCLE] Error added at CPU cycle 1455265502, next at 1456081149, pending count: 1
[DRAM_CYCLE_ERROR] Cycle-based error applied! address=0x3e844d800 additional_latency=1990500 cycles
[ERROR_CYCLE] Error added at CPU cycle 1456081149, next at 1459633187, pending count: 1
[DRAM_CYCLE_ERROR] Cycle-based error applied! address=0xc4553e780 additional_latency=1990500 cycles
[ERROR_CYCLE] Error added at CPU cycle 1459633187, next at 1470585164, pending count: 1
[DRAM_CYCLE_ERROR] Cycle-based error applied! address=0x3e844d8c0 additional_latency=1990500 cycles
Heartbeat CPU 0 instructions: 1700000242 cycles: 1460870737 heartbeat IPC: 1.302 cumulative IPC: 1.164 (Simulation time: 03 hr 18 min 37 sec)
Heartbeat CPU 0 instructions: 1710000242 cycles: 1468546150 heartbeat IPC: 1.303 cumulative IPC: 1.164 (Simulation time: 03 hr 19 min 25 sec)
[ERROR_CYCLE] Error added at CPU cycle 1470585164, next at 1472949657, pending count: 1
[DRAM_CYCLE_ERROR] Cycle-based error applied! address=0xc4553ea00 additional_latency=1990500 cycles
[ERROR_CYCLE] Error added at CPU cycle 1472949657, next at 1483173147, pending count: 1
[DRAM_CYCLE_ERROR] Cycle-based error applied! address=0x3e844db00 additional_latency=1990500 cycles
Heartbeat CPU 0 instructions: 1720000243 cycles: 1476226399 heartbeat IPC: 1.302 cumulative IPC: 1.165 (Simulation time: 03 hr 20 min 07 sec)
[ERROR_CYCLE] Error added at CPU cycle 1483173148, next at 1484511175, pending count: 1
[DRAM_CYCLE_ERROR] Cycle-based error applied! address=0xfddccb40 additional_latency=1990500 cycles
Heartbeat CPU 0 instructions: 1730000244 cycles: 1483909181 heartbeat IPC: 1.302 cumulative IPC: 1.166 (Simulation time: 03 hr 20 min 47 sec)
[ERROR_CYCLE] Error added at CPU cycle 1484511175, next at 1492326095, pending count: 1
[DRAM_CYCLE_ERROR] Cycle-based error applied! address=0xfddccb80 additional_latency=1990500 cycles
Heartbeat CPU 0 instructions: 1740000244 cycles: 1491592479 heartbeat IPC: 1.302 cumulative IPC: 1.167 (Simulation time: 03 hr 21 min 26 sec)
[ERROR_CYCLE] Error added at CPU cycle 1492326095, next at 1498403147, pending count: 1
[DRAM_CYCLE_ERROR] Cycle-based error applied! address=0xc4553edc0 additional_latency=1990500 cycles
[ERROR_CYCLE] Error added at CPU cycle 1498403147, next at 1500174205, pending count: 1
[DRAM_CYCLE_ERROR] Cycle-based error applied! address=0x3e844df80 additional_latency=1990500 cycles
Heartbeat CPU 0 instructions: 1750000247 cycles: 1499269904 heartbeat IPC: 1.303 cumulative IPC: 1.167 (Simulation time: 03 hr 22 min 06 sec)
[ERROR_CYCLE] Error added at CPU cycle 1500174206, next at 1504681962, pending count: 1
[DRAM_CYCLE_ERROR] Cycle-based error applied! address=0x3e844dfc0 additional_latency=1990500 cycles
[ERROR_CYCLE] Error added at CPU cycle 1504681962, next at 1508176422, pending count: 1
[DRAM_CYCLE_ERROR] Cycle-based error applied! address=0xfddccf00 additional_latency=1990500 cycles
Heartbeat CPU 0 instructions: 1760000248 cycles: 1506952411 heartbeat IPC: 1.302 cumulative IPC: 1.168 (Simulation time: 03 hr 22 min 46 sec)
[ERROR_CYCLE] Error added at CPU cycle 1508176422, next at 1510980618, pending count: 1
[DRAM_CYCLE_ERROR] Cycle-based error applied! address=0xc4553f080 additional_latency=1990500 cycles
[ERROR_CYCLE] Error added at CPU cycle 1510980618, next at 1540506590, pending count: 1
[DRAM_CYCLE_ERROR] Cycle-based error applied! address=0xfddcd000 additional_latency=1990500 cycles
Heartbeat CPU 0 instructions: 1770000248 cycles: 1514643997 heartbeat IPC: 1.3 cumulative IPC: 1.169 (Simulation time: 03 hr 23 min 31 sec)
Heartbeat CPU 0 instructions: 1780000248 cycles: 1522319484 heartbeat IPC: 1.303 cumulative IPC: 1.169 (Simulation time: 03 hr 24 min 30 sec)
Heartbeat CPU 0 instructions: 1790000249 cycles: 1530004181 heartbeat IPC: 1.301 cumulative IPC: 1.17 (Simulation time: 03 hr 25 min 23 sec)
Heartbeat CPU 0 instructions: 1800000251 cycles: 1537677256 heartbeat IPC: 1.303 cumulative IPC: 1.171 (Simulation time: 03 hr 26 min 23 sec)
[ERROR_CYCLE] Error added at CPU cycle 1540506591, next at 1545633908, pending count: 1
[DRAM_CYCLE_ERROR] Cycle-based error applied! address=0x3e844e6c0 additional_latency=1990500 cycles
Heartbeat CPU 0 instructions: 1810000252 cycles: 1545351211 heartbeat IPC: 1.303 cumulative IPC: 1.171 (Simulation time: 03 hr 27 min 22 sec)
[ERROR_CYCLE] Error added at CPU cycle 1545633909, next at 1555382131, pending count: 1
[DRAM_CYCLE_ERROR] Cycle-based error applied! address=0xc4553f700 additional_latency=1990500 cycles
Heartbeat CPU 0 instructions: 1820000253 cycles: 1553032102 heartbeat IPC: 1.302 cumulative IPC: 1.172 (Simulation time: 03 hr 28 min 22 sec)
[ERROR_CYCLE] Error added at CPU cycle 1555382132, next at 1559379921, pending count: 1
[DRAM_CYCLE_ERROR] Cycle-based error applied! address=0x3e844e940 additional_latency=1990500 cycles
[ERROR_CYCLE] Error added at CPU cycle 1559379922, next at 1568250473, pending count: 1
[DRAM_CYCLE_ERROR] Cycle-based error applied! address=0xfcf5676c0 additional_latency=1990500 cycles
Heartbeat CPU 0 instructions: 1830000253 cycles: 1560128197 heartbeat IPC: 1.409 cumulative IPC: 1.173 (Simulation time: 03 hr 29 min 22 sec)
Heartbeat CPU 0 instructions: 1840000256 cycles: 1566247107 heartbeat IPC: 1.634 cumulative IPC: 1.175 (Simulation time: 03 hr 30 min 18 sec)
[ERROR_CYCLE] Error added at CPU cycle 1568250473, next at 1568397086, pending count: 1
[DRAM_CYCLE_ERROR] Cycle-based error applied! address=0x206baaac0 additional_latency=1990500 cycles
[ERROR_CYCLE] Error added at CPU cycle 1568397086, next at 1571204618, pending count: 1
[DRAM_CYCLE_ERROR] Cycle-based error applied! address=0x1e6d748c0 additional_latency=1990500 cycles
[ERROR_CYCLE] Error added at CPU cycle 1571204618, next at 1572401785, pending count: 1
[DRAM_CYCLE_ERROR] Cycle-based error applied! address=0x206bab080 additional_latency=1990500 cycles
[ERROR_CYCLE] Error added at CPU cycle 1572401785, next at 1585569552, pending count: 1
[DRAM_CYCLE_ERROR] Cycle-based error applied! address=0x206ab9fc0 additional_latency=1990500 cycles
Heartbeat CPU 0 instructions: 1850000259 cycles: 1572551177 heartbeat IPC: 1.586 cumulative IPC: 1.176 (Simulation time: 03 hr 31 min 16 sec)
Heartbeat CPU 0 instructions: 1860000260 cycles: 1578920374 heartbeat IPC: 1.57 cumulative IPC: 1.178 (Simulation time: 03 hr 32 min 14 sec)
Heartbeat CPU 0 instructions: 1870000261 cycles: 1585325833 heartbeat IPC: 1.561 cumulative IPC: 1.18 (Simulation time: 03 hr 33 min 02 sec)
[ERROR_CYCLE] Error added at CPU cycle 1585569553, next at 1586429627, pending count: 1
[DRAM_CYCLE_ERROR] Cycle-based error applied! address=0x935d1c0c0 additional_latency=1990500 cycles
[ERROR_CYCLE] Error added at CPU cycle 1586429628, next at 1598198580, pending count: 1
[DRAM_CYCLE_ERROR] Cycle-based error applied! address=0x206abb900 additional_latency=1990500 cycles
Heartbeat CPU 0 instructions: 1880000262 cycles: 1591856947 heartbeat IPC: 1.531 cumulative IPC: 1.181 (Simulation time: 03 hr 33 min 48 sec)
[ERROR_CYCLE] Error added at CPU cycle 1598198580, next at 1609933064, pending count: 1
Heartbeat CPU 0 instructions: 1890000262 cycles: 1598352913 heartbeat IPC: 1.539 cumulative IPC: 1.182 (Simulation time: 03 hr 34 min 50 sec)
[DRAM_CYCLE_ERROR] Cycle-based error applied! address=0x3dbe9ac0 additional_latency=1990500 cycles
Heartbeat CPU 0 instructions: 1900000263 cycles: 1603668028 heartbeat IPC: 1.881 cumulative IPC: 1.185 (Simulation time: 03 hr 35 min 43 sec)
Heartbeat CPU 0 instructions: 1910000263 cycles: 1608915869 heartbeat IPC: 1.906 cumulative IPC: 1.187 (Simulation time: 03 hr 36 min 34 sec)
[ERROR_CYCLE] Error added at CPU cycle 1609933064, next at 1625877684, pending count: 1
[DRAM_CYCLE_ERROR] Cycle-based error applied! address=0x1e5146840 additional_latency=1990500 cycles
Heartbeat CPU 0 instructions: 1920000264 cycles: 1614307868 heartbeat IPC: 1.855 cumulative IPC: 1.189 (Simulation time: 03 hr 37 min 26 sec)
Heartbeat CPU 0 instructions: 1930000266 cycles: 1619609000 heartbeat IPC: 1.886 cumulative IPC: 1.192 (Simulation time: 03 hr 38 min 18 sec)
Heartbeat CPU 0 instructions: 1940000269 cycles: 1624867043 heartbeat IPC: 1.902 cumulative IPC: 1.194 (Simulation time: 03 hr 39 min 10 sec)
[ERROR_CYCLE] Error added at CPU cycle 1625877685, next at 1636789861, pending count: 1
[DRAM_CYCLE_ERROR] Cycle-based error applied! address=0xc45429fc0 additional_latency=1990500 cycles
Heartbeat CPU 0 instructions: 1950000269 cycles: 1630230233 heartbeat IPC: 1.865 cumulative IPC: 1.196 (Simulation time: 03 hr 40 min 02 sec)
Heartbeat CPU 0 instructions: 1960000270 cycles: 1635538911 heartbeat IPC: 1.884 cumulative IPC: 1.198 (Simulation time: 03 hr 40 min 55 sec)
[ERROR_CYCLE] Error added at CPU cycle 1636789862, next at 1644796500, pending count: 1
[DRAM_CYCLE_ERROR] Cycle-based error applied! address=0xc454a490c additional_latency=1990500 cycles
Heartbeat CPU 0 instructions: 1970000274 cycles: 1640838125 heartbeat IPC: 1.887 cumulative IPC: 1.201 (Simulation time: 03 hr 41 min 47 sec)
[ERROR_CYCLE] Error added at CPU cycle 1644796501, next at 1651860450, pending count: 1
[DRAM_CYCLE_ERROR] Cycle-based error applied! address=0x28dfff214 additional_latency=1990500 cycles
Heartbeat CPU 0 instructions: 1980000277 cycles: 1646100676 heartbeat IPC: 1.9 cumulative IPC: 1.203 (Simulation time: 03 hr 42 min 39 sec)
Heartbeat CPU 0 instructions: 1990000280 cycles: 1651331183 heartbeat IPC: 1.912 cumulative IPC: 1.205 (Simulation time: 03 hr 43 min 31 sec)
[ERROR_CYCLE] Error added at CPU cycle 1651860451, next at 1653809977, pending count: 1
[DRAM_CYCLE_ERROR] Cycle-based error applied! address=0xc45467c54 additional_latency=1990500 cycles
[ERROR_CYCLE] Error added at CPU cycle 1653809978, next at 1657379418, pending count: 1
[DRAM_CYCLE_ERROR] Cycle-based error applied! address=0x2edfcc40 additional_latency=1990500 cycles
[ERROR_CYCLE] Error added at CPU cycle 1657379418, next at 1658264083, pending count: 1
[DRAM_CYCLE_ERROR] Cycle-based error applied! address=0x1e85edb40 additional_latency=1990500 cycles
[ERROR_CYCLE] Error added at CPU cycle 1658264083, next at 1665882359, pending count: 1
[DRAM_CYCLE_ERROR] Cycle-based error applied! address=0x1d1a78b40 additional_latency=1990500 cycles

=== ERROR PAGE STATISTICS ===
Mode: CYCLE
Error Cycle Interval: 10000000 CPU cycles
Total Error Accesses: 185
==============================
Simulation finished CPU 0 instructions: 1999999905 cycles: 1659676296 cumulative IPC: 1.205 (Simulation time: 03 hr 44 min 41 sec)
Simulation complete CPU 0 instructions: 1999999905 cycles: 1659676296 cumulative IPC: 1.205 (Simulation time: 03 hr 44 min 41 sec)

ChampSim completed all CPUs

=== Simulation ===
CPU 0 runs test_traces/621.wrf_s-6673B.champsimtrace.xz

Region of Interest Statistics

CPU 0 cumulative IPC: 1.205 instructions: 1999999905 cycles: 1659676296
CPU 0 Branch Prediction Accuracy: 93.25% MPKI: 6.743 Average ROB Occupancy at Mispredict: 67.09
Branch type MPKI
BRANCH_DIRECT_JUMP: 0.00112
BRANCH_INDIRECT: 6.95e-05
BRANCH_CONDITIONAL: 5.98
BRANCH_DIRECT_CALL: 0.002089
BRANCH_INDIRECT_CALL: 2e-06
BRANCH_RETURN: 0.7595

cpu0->cpu0_STLB TOTAL        ACCESS:        124 HIT:         45 MISS:         79 MSHR_MERGE:          0
cpu0->cpu0_STLB LOAD         ACCESS:        124 HIT:         45 MISS:         79 MSHR_MERGE:          0
cpu0->cpu0_STLB RFO          ACCESS:          0 HIT:          0 MISS:          0 MSHR_MERGE:          0
cpu0->cpu0_STLB PREFETCH     ACCESS:          0 HIT:          0 MISS:          0 MSHR_MERGE:          0
cpu0->cpu0_STLB WRITE        ACCESS:          0 HIT:          0 MISS:          0 MSHR_MERGE:          0
cpu0->cpu0_STLB TRANSLATION  ACCESS:          0 HIT:          0 MISS:          0 MSHR_MERGE:          0
cpu0->cpu0_STLB PREFETCH REQUESTED:          0 ISSUED:          0 USEFUL:          0 USELESS:          0
cpu0->cpu0_STLB AVERAGE MISS LATENCY: 9383 cycles
cpu0->cpu0_L2C TOTAL        ACCESS:   24599104 HIT:   13032659 MISS:   11566445 MSHR_MERGE:          0
cpu0->cpu0_L2C LOAD         ACCESS:   13805776 HIT:    4693187 MISS:    9112589 MSHR_MERGE:          0
cpu0->cpu0_L2C RFO          ACCESS:    3870353 HIT:    1420496 MISS:    2449857 MSHR_MERGE:          0
cpu0->cpu0_L2C PREFETCH     ACCESS:          0 HIT:          0 MISS:          0 MSHR_MERGE:          0
cpu0->cpu0_L2C WRITE        ACCESS:    6922975 HIT:    6918976 MISS:       3999 MSHR_MERGE:          0
cpu0->cpu0_L2C TRANSLATION  ACCESS:          0 HIT:          0 MISS:          0 MSHR_MERGE:          0
cpu0->cpu0_L2C PREFETCH REQUESTED:          0 ISSUED:          0 USEFUL:          0 USELESS:          0
cpu0->cpu0_L2C AVERAGE MISS LATENCY: 112.1 cycles
cpu0->cpu0_L1I TOTAL        ACCESS:  172487539 HIT:  171361189 MISS:    1126350 MSHR_MERGE:     424051
cpu0->cpu0_L1I LOAD         ACCESS:  172487539 HIT:  171361189 MISS:    1126350 MSHR_MERGE:     424051
cpu0->cpu0_L1I RFO          ACCESS:          0 HIT:          0 MISS:          0 MSHR_MERGE:          0
cpu0->cpu0_L1I PREFETCH     ACCESS:          0 HIT:          0 MISS:          0 MSHR_MERGE:          0
cpu0->cpu0_L1I WRITE        ACCESS:          0 HIT:          0 MISS:          0 MSHR_MERGE:          0
cpu0->cpu0_L1I TRANSLATION  ACCESS:          0 HIT:          0 MISS:          0 MSHR_MERGE:          0
cpu0->cpu0_L1I PREFETCH REQUESTED:          0 ISSUED:          0 USEFUL:          0 USELESS:          0
cpu0->cpu0_L1I AVERAGE MISS LATENCY: 13.77 cycles
cpu0->cpu0_L1D TOTAL        ACCESS:  525692992 HIT:  487954365 MISS:   37738627 MSHR_MERGE:   20764590
cpu0->cpu0_L1D LOAD         ACCESS:  412525715 HIT:  388559865 MISS:   23965850 MSHR_MERGE:   10862293
cpu0->cpu0_L1D RFO          ACCESS:          0 HIT:          0 MISS:          0 MSHR_MERGE:          0
cpu0->cpu0_L1D PREFETCH     ACCESS:          0 HIT:          0 MISS:          0 MSHR_MERGE:          0
cpu0->cpu0_L1D WRITE        ACCESS:  113167277 HIT:   99394500 MISS:   13772777 MSHR_MERGE:    9902297
cpu0->cpu0_L1D TRANSLATION  ACCESS:          0 HIT:          0 MISS:          0 MSHR_MERGE:          0
cpu0->cpu0_L1D PREFETCH REQUESTED:          0 ISSUED:          0 USEFUL:          0 USELESS:          0
cpu0->cpu0_L1D AVERAGE MISS LATENCY: 84.96 cycles
cpu0->cpu0_ITLB TOTAL        ACCESS:  147579630 HIT:  147579601 MISS:         29 MSHR_MERGE:         20
cpu0->cpu0_ITLB LOAD         ACCESS:  147579630 HIT:  147579601 MISS:         29 MSHR_MERGE:         20
cpu0->cpu0_ITLB RFO          ACCESS:          0 HIT:          0 MISS:          0 MSHR_MERGE:          0
cpu0->cpu0_ITLB PREFETCH     ACCESS:          0 HIT:          0 MISS:          0 MSHR_MERGE:          0
cpu0->cpu0_ITLB WRITE        ACCESS:          0 HIT:          0 MISS:          0 MSHR_MERGE:          0
cpu0->cpu0_ITLB TRANSLATION  ACCESS:          0 HIT:          0 MISS:          0 MSHR_MERGE:          0
cpu0->cpu0_ITLB PREFETCH REQUESTED:          0 ISSUED:          0 USEFUL:          0 USELESS:          0
cpu0->cpu0_ITLB AVERAGE MISS LATENCY: 8631 cycles
cpu0->cpu0_DTLB TOTAL        ACCESS:  450952743 HIT:  450952379 MISS:        364 MSHR_MERGE:        249
cpu0->cpu0_DTLB LOAD         ACCESS:  450952743 HIT:  450952379 MISS:        364 MSHR_MERGE:        249
cpu0->cpu0_DTLB RFO          ACCESS:          0 HIT:          0 MISS:          0 MSHR_MERGE:          0
cpu0->cpu0_DTLB PREFETCH     ACCESS:          0 HIT:          0 MISS:          0 MSHR_MERGE:          0
cpu0->cpu0_DTLB WRITE        ACCESS:          0 HIT:          0 MISS:          0 MSHR_MERGE:          0
cpu0->cpu0_DTLB TRANSLATION  ACCESS:          0 HIT:          0 MISS:          0 MSHR_MERGE:          0
cpu0->cpu0_DTLB PREFETCH REQUESTED:          0 ISSUED:          0 USEFUL:          0 USELESS:          0
cpu0->cpu0_DTLB AVERAGE MISS LATENCY: 5776 cycles
cpu0->LLC TOTAL        ACCESS:   16402695 HIT:    6357223 MISS:   10045472 MSHR_MERGE:          0
cpu0->LLC LOAD         ACCESS:    9112589 HIT:    1198512 MISS:    7914077 MSHR_MERGE:          0
cpu0->LLC RFO          ACCESS:    2449857 HIT:     330214 MISS:    2119643 MSHR_MERGE:          0
cpu0->LLC PREFETCH     ACCESS:          0 HIT:          0 MISS:          0 MSHR_MERGE:          0
cpu0->LLC WRITE        ACCESS:    4840249 HIT:    4828497 MISS:      11752 MSHR_MERGE:          0
cpu0->LLC TRANSLATION  ACCESS:          0 HIT:          0 MISS:          0 MSHR_MERGE:          0
cpu0->LLC PREFETCH REQUESTED:          0 ISSUED:          0 USEFUL:          0 USELESS:          0
cpu0->LLC AVERAGE MISS LATENCY: 110.8 cycles

DRAM Statistics

Channel 0 RQ ROW_BUFFER_HIT:     274571
  ROW_BUFFER_MISS:    4742186
  AVG DBUS CONGESTED CYCLE: 10.73
Channel 0 WQ ROW_BUFFER_HIT:     576822
  ROW_BUFFER_MISS:    1430508
  FULL:        198
Channel 0 REFRESHES ISSUED:     138297

Channel 1 RQ ROW_BUFFER_HIT:     274116
  ROW_BUFFER_MISS:    4742800
  AVG DBUS CONGESTED CYCLE: 10.73
Channel 1 WQ ROW_BUFFER_HIT:     578936
  ROW_BUFFER_MISS:    1427998
  FULL:        237
Channel 1 REFRESHES ISSUED:     138297
