[VMEM] WARNING: physical memory size is smaller than virtual memory size.

*** ChampSim Multicore Out-of-Order Simulator ***
Warmup Instructions: 0
Simulation Instructions: 9223372036854775807
Number of CPUs: 1
Page size: 4096

Off-chip DRAM Size: 32 GiB Channels: 2 Width: 32-bit Data Rate: 4807 MT/s
[ERROR_PAGE_MANAGER] Error latency: 173500 
[ERROR_PAGE_MANAGER] Random seed: 54321 (fixed for preload reproducibility)
[ERROR_PAGE_MANAGER] Cycle-based error modeling enabled
[ERROR_PAGE_MANAGER] Errors per interval: 1
[ERROR_PAGE_MANAGER] Error cycle interval: 200000000000 cycles

=== ERROR PAGE STATISTICS ===
Mode: CYCLE
Error Cycle Interval: 200000000000 CPU cycles
Total Error Accesses: 0
==============================
Warmup finished CPU 0 instructions: 0 cycles: 1 cumulative IPC: 0 (Simulation time: 00 hr 00 min 01 sec)
Warmup complete CPU 0 instructions: 0 cycles: 1 cumulative IPC: 0 (Simulation time: 00 hr 00 min 01 sec)
Heartbeat CPU 0 instructions: 10000001 cycles: 15855523 heartbeat IPC: 0.6307 cumulative IPC: 0.6307 (Simulation time: 00 hr 02 min 09 sec)
Heartbeat CPU 0 instructions: 20000004 cycles: 31664391 heartbeat IPC: 0.6326 cumulative IPC: 0.6316 (Simulation time: 00 hr 04 min 06 sec)
Heartbeat CPU 0 instructions: 30000005 cycles: 47452987 heartbeat IPC: 0.6334 cumulative IPC: 0.6322 (Simulation time: 00 hr 06 min 06 sec)
Heartbeat CPU 0 instructions: 40000008 cycles: 63254407 heartbeat IPC: 0.6329 cumulative IPC: 0.6324 (Simulation time: 00 hr 08 min 27 sec)
Heartbeat CPU 0 instructions: 50000010 cycles: 79043485 heartbeat IPC: 0.6333 cumulative IPC: 0.6326 (Simulation time: 00 hr 10 min 44 sec)
Heartbeat CPU 0 instructions: 60000010 cycles: 94831504 heartbeat IPC: 0.6334 cumulative IPC: 0.6327 (Simulation time: 00 hr 12 min 53 sec)
Heartbeat CPU 0 instructions: 70000011 cycles: 110606188 heartbeat IPC: 0.6339 cumulative IPC: 0.6329 (Simulation time: 00 hr 15 min 10 sec)
Heartbeat CPU 0 instructions: 80000015 cycles: 126348005 heartbeat IPC: 0.6353 cumulative IPC: 0.6332 (Simulation time: 00 hr 17 min 34 sec)
Heartbeat CPU 0 instructions: 90000016 cycles: 142142248 heartbeat IPC: 0.6331 cumulative IPC: 0.6332 (Simulation time: 00 hr 19 min 59 sec)
Heartbeat CPU 0 instructions: 100000016 cycles: 157925850 heartbeat IPC: 0.6336 cumulative IPC: 0.6332 (Simulation time: 00 hr 22 min 23 sec)
Heartbeat CPU 0 instructions: 110000017 cycles: 173681571 heartbeat IPC: 0.6347 cumulative IPC: 0.6333 (Simulation time: 00 hr 24 min 48 sec)
Heartbeat CPU 0 instructions: 120000017 cycles: 189476072 heartbeat IPC: 0.6331 cumulative IPC: 0.6333 (Simulation time: 00 hr 27 min 05 sec)
Heartbeat CPU 0 instructions: 130000019 cycles: 205263952 heartbeat IPC: 0.6334 cumulative IPC: 0.6333 (Simulation time: 00 hr 29 min 21 sec)
Heartbeat CPU 0 instructions: 140000021 cycles: 221023543 heartbeat IPC: 0.6345 cumulative IPC: 0.6334 (Simulation time: 00 hr 31 min 37 sec)
Heartbeat CPU 0 instructions: 150000025 cycles: 236816276 heartbeat IPC: 0.6332 cumulative IPC: 0.6334 (Simulation time: 00 hr 33 min 56 sec)
Heartbeat CPU 0 instructions: 160000025 cycles: 252587199 heartbeat IPC: 0.6341 cumulative IPC: 0.6334 (Simulation time: 00 hr 36 min 13 sec)
Heartbeat CPU 0 instructions: 170000026 cycles: 268351792 heartbeat IPC: 0.6343 cumulative IPC: 0.6335 (Simulation time: 00 hr 38 min 33 sec)
Heartbeat CPU 0 instructions: 180000027 cycles: 284114152 heartbeat IPC: 0.6344 cumulative IPC: 0.6335 (Simulation time: 00 hr 40 min 41 sec)
Heartbeat CPU 0 instructions: 190000028 cycles: 299903348 heartbeat IPC: 0.6333 cumulative IPC: 0.6335 (Simulation time: 00 hr 43 min 00 sec)
Heartbeat CPU 0 instructions: 200000030 cycles: 315658143 heartbeat IPC: 0.6347 cumulative IPC: 0.6336 (Simulation time: 00 hr 44 min 57 sec)
Heartbeat CPU 0 instructions: 210000032 cycles: 331433570 heartbeat IPC: 0.6339 cumulative IPC: 0.6336 (Simulation time: 00 hr 46 min 50 sec)
Heartbeat CPU 0 instructions: 220000034 cycles: 347194306 heartbeat IPC: 0.6345 cumulative IPC: 0.6337 (Simulation time: 00 hr 48 min 51 sec)
Heartbeat CPU 0 instructions: 230000034 cycles: 362961192 heartbeat IPC: 0.6342 cumulative IPC: 0.6337 (Simulation time: 00 hr 51 min 12 sec)
Heartbeat CPU 0 instructions: 240000034 cycles: 378734454 heartbeat IPC: 0.634 cumulative IPC: 0.6337 (Simulation time: 00 hr 53 min 34 sec)
Heartbeat CPU 0 instructions: 250000038 cycles: 394506144 heartbeat IPC: 0.634 cumulative IPC: 0.6337 (Simulation time: 00 hr 55 min 54 sec)
Heartbeat CPU 0 instructions: 260000040 cycles: 410292763 heartbeat IPC: 0.6334 cumulative IPC: 0.6337 (Simulation time: 00 hr 58 min 16 sec)
Heartbeat CPU 0 instructions: 270000041 cycles: 426072829 heartbeat IPC: 0.6337 cumulative IPC: 0.6337 (Simulation time: 01 hr 00 min 37 sec)
Heartbeat CPU 0 instructions: 280000041 cycles: 457676466 heartbeat IPC: 0.3164 cumulative IPC: 0.6118 (Simulation time: 01 hr 05 min 23 sec)
Heartbeat CPU 0 instructions: 290000043 cycles: 489154203 heartbeat IPC: 0.3177 cumulative IPC: 0.5929 (Simulation time: 01 hr 10 min 15 sec)
Heartbeat CPU 0 instructions: 300000045 cycles: 505554494 heartbeat IPC: 0.6097 cumulative IPC: 0.5934 (Simulation time: 01 hr 12 min 38 sec)
Heartbeat CPU 0 instructions: 310000049 cycles: 521265518 heartbeat IPC: 0.6365 cumulative IPC: 0.5947 (Simulation time: 01 hr 14 min 58 sec)
Heartbeat CPU 0 instructions: 320000049 cycles: 536968145 heartbeat IPC: 0.6368 cumulative IPC: 0.5959 (Simulation time: 01 hr 17 min 18 sec)
Heartbeat CPU 0 instructions: 330000049 cycles: 551814793 heartbeat IPC: 0.6736 cumulative IPC: 0.598 (Simulation time: 01 hr 19 min 32 sec)
Heartbeat CPU 0 instructions: 340000051 cycles: 564807421 heartbeat IPC: 0.7697 cumulative IPC: 0.602 (Simulation time: 01 hr 21 min 32 sec)
Heartbeat CPU 0 instructions: 350000052 cycles: 577816891 heartbeat IPC: 0.7687 cumulative IPC: 0.6057 (Simulation time: 01 hr 23 min 32 sec)
Heartbeat CPU 0 instructions: 360000053 cycles: 590815463 heartbeat IPC: 0.7693 cumulative IPC: 0.6093 (Simulation time: 01 hr 25 min 34 sec)
Heartbeat CPU 0 instructions: 370000054 cycles: 603827248 heartbeat IPC: 0.7685 cumulative IPC: 0.6128 (Simulation time: 01 hr 27 min 35 sec)
Heartbeat CPU 0 instructions: 380000058 cycles: 616812049 heartbeat IPC: 0.7701 cumulative IPC: 0.6161 (Simulation time: 01 hr 29 min 36 sec)
Heartbeat CPU 0 instructions: 390000059 cycles: 629810936 heartbeat IPC: 0.7693 cumulative IPC: 0.6192 (Simulation time: 01 hr 31 min 37 sec)
Heartbeat CPU 0 instructions: 400000059 cycles: 642800732 heartbeat IPC: 0.7698 cumulative IPC: 0.6223 (Simulation time: 01 hr 33 min 37 sec)
Heartbeat CPU 0 instructions: 410000061 cycles: 655787207 heartbeat IPC: 0.77 cumulative IPC: 0.6252 (Simulation time: 01 hr 35 min 38 sec)
Heartbeat CPU 0 instructions: 420000062 cycles: 668774315 heartbeat IPC: 0.77 cumulative IPC: 0.628 (Simulation time: 01 hr 37 min 39 sec)
Heartbeat CPU 0 instructions: 430000062 cycles: 681758970 heartbeat IPC: 0.7701 cumulative IPC: 0.6307 (Simulation time: 01 hr 39 min 40 sec)
Heartbeat CPU 0 instructions: 440000063 cycles: 694753467 heartbeat IPC: 0.7696 cumulative IPC: 0.6333 (Simulation time: 01 hr 41 min 40 sec)
Heartbeat CPU 0 instructions: 450000064 cycles: 707741176 heartbeat IPC: 0.77 cumulative IPC: 0.6358 (Simulation time: 01 hr 43 min 41 sec)
Heartbeat CPU 0 instructions: 460000067 cycles: 720725463 heartbeat IPC: 0.7702 cumulative IPC: 0.6382 (Simulation time: 01 hr 45 min 42 sec)
Heartbeat CPU 0 instructions: 470000069 cycles: 733713609 heartbeat IPC: 0.7699 cumulative IPC: 0.6406 (Simulation time: 01 hr 47 min 42 sec)
Heartbeat CPU 0 instructions: 480000069 cycles: 746702633 heartbeat IPC: 0.7699 cumulative IPC: 0.6428 (Simulation time: 01 hr 49 min 43 sec)
Heartbeat CPU 0 instructions: 490000071 cycles: 759709480 heartbeat IPC: 0.7688 cumulative IPC: 0.645 (Simulation time: 01 hr 51 min 44 sec)
Heartbeat CPU 0 instructions: 500000074 cycles: 772702785 heartbeat IPC: 0.7696 cumulative IPC: 0.6471 (Simulation time: 01 hr 53 min 45 sec)
Heartbeat CPU 0 instructions: 510000078 cycles: 785694616 heartbeat IPC: 0.7697 cumulative IPC: 0.6491 (Simulation time: 01 hr 55 min 32 sec)
Heartbeat CPU 0 instructions: 520000082 cycles: 798678281 heartbeat IPC: 0.7702 cumulative IPC: 0.6511 (Simulation time: 01 hr 57 min 09 sec)
Heartbeat CPU 0 instructions: 530000082 cycles: 811681378 heartbeat IPC: 0.769 cumulative IPC: 0.653 (Simulation time: 01 hr 59 min 05 sec)
Heartbeat CPU 0 instructions: 540000083 cycles: 824669965 heartbeat IPC: 0.7699 cumulative IPC: 0.6548 (Simulation time: 02 hr 01 min 08 sec)
Heartbeat CPU 0 instructions: 550000084 cycles: 837662292 heartbeat IPC: 0.7697 cumulative IPC: 0.6566 (Simulation time: 02 hr 03 min 12 sec)
Heartbeat CPU 0 instructions: 560000086 cycles: 850642057 heartbeat IPC: 0.7704 cumulative IPC: 0.6583 (Simulation time: 02 hr 05 min 13 sec)
Heartbeat CPU 0 instructions: 570000086 cycles: 863650760 heartbeat IPC: 0.7687 cumulative IPC: 0.66 (Simulation time: 02 hr 06 min 58 sec)
Heartbeat CPU 0 instructions: 580000086 cycles: 876670952 heartbeat IPC: 0.768 cumulative IPC: 0.6616 (Simulation time: 02 hr 08 min 48 sec)
Heartbeat CPU 0 instructions: 590000088 cycles: 889668202 heartbeat IPC: 0.7694 cumulative IPC: 0.6632 (Simulation time: 02 hr 10 min 51 sec)
Heartbeat CPU 0 instructions: 600000089 cycles: 902650761 heartbeat IPC: 0.7703 cumulative IPC: 0.6647 (Simulation time: 02 hr 12 min 54 sec)
Heartbeat CPU 0 instructions: 610000089 cycles: 915227253 heartbeat IPC: 0.7951 cumulative IPC: 0.6665 (Simulation time: 02 hr 14 min 52 sec)
Heartbeat CPU 0 instructions: 620000092 cycles: 926797388 heartbeat IPC: 0.8643 cumulative IPC: 0.669 (Simulation time: 02 hr 16 min 17 sec)
Heartbeat CPU 0 instructions: 630000096 cycles: 938385860 heartbeat IPC: 0.8629 cumulative IPC: 0.6714 (Simulation time: 02 hr 18 min 05 sec)
Heartbeat CPU 0 instructions: 640000096 cycles: 949957314 heartbeat IPC: 0.8642 cumulative IPC: 0.6737 (Simulation time: 02 hr 19 min 54 sec)
Heartbeat CPU 0 instructions: 650000096 cycles: 961542302 heartbeat IPC: 0.8632 cumulative IPC: 0.676 (Simulation time: 02 hr 21 min 23 sec)
Heartbeat CPU 0 instructions: 660000097 cycles: 973127530 heartbeat IPC: 0.8632 cumulative IPC: 0.6782 (Simulation time: 02 hr 23 min 08 sec)
Heartbeat CPU 0 instructions: 670000097 cycles: 984722084 heartbeat IPC: 0.8625 cumulative IPC: 0.6804 (Simulation time: 02 hr 24 min 48 sec)
Heartbeat CPU 0 instructions: 680000100 cycles: 996441319 heartbeat IPC: 0.8533 cumulative IPC: 0.6824 (Simulation time: 02 hr 26 min 38 sec)
Heartbeat CPU 0 instructions: 690000100 cycles: 1008398192 heartbeat IPC: 0.8363 cumulative IPC: 0.6843 (Simulation time: 02 hr 28 min 16 sec)
Heartbeat CPU 0 instructions: 700000104 cycles: 1019664624 heartbeat IPC: 0.8876 cumulative IPC: 0.6865 (Simulation time: 02 hr 30 min 08 sec)
Heartbeat CPU 0 instructions: 710000104 cycles: 1030942935 heartbeat IPC: 0.8867 cumulative IPC: 0.6887 (Simulation time: 02 hr 31 min 47 sec)
Heartbeat CPU 0 instructions: 720000106 cycles: 1042208551 heartbeat IPC: 0.8877 cumulative IPC: 0.6908 (Simulation time: 02 hr 33 min 24 sec)
Heartbeat CPU 0 instructions: 730000106 cycles: 1053473760 heartbeat IPC: 0.8877 cumulative IPC: 0.6929 (Simulation time: 02 hr 35 min 09 sec)
Heartbeat CPU 0 instructions: 740000108 cycles: 1064734363 heartbeat IPC: 0.8881 cumulative IPC: 0.695 (Simulation time: 02 hr 37 min 00 sec)
Heartbeat CPU 0 instructions: 750000108 cycles: 1076021120 heartbeat IPC: 0.886 cumulative IPC: 0.697 (Simulation time: 02 hr 38 min 51 sec)
Heartbeat CPU 0 instructions: 760000112 cycles: 1087287399 heartbeat IPC: 0.8876 cumulative IPC: 0.699 (Simulation time: 02 hr 40 min 36 sec)
Heartbeat CPU 0 instructions: 770000116 cycles: 1098689254 heartbeat IPC: 0.8771 cumulative IPC: 0.7008 (Simulation time: 02 hr 42 min 02 sec)
Heartbeat CPU 0 instructions: 780000116 cycles: 1111315129 heartbeat IPC: 0.792 cumulative IPC: 0.7019 (Simulation time: 02 hr 44 min 05 sec)
Heartbeat CPU 0 instructions: 790000118 cycles: 1123990067 heartbeat IPC: 0.789 cumulative IPC: 0.7029 (Simulation time: 02 hr 46 min 01 sec)
Heartbeat CPU 0 instructions: 800000119 cycles: 1136563887 heartbeat IPC: 0.7953 cumulative IPC: 0.7039 (Simulation time: 02 hr 47 min 59 sec)
Heartbeat CPU 0 instructions: 810000121 cycles: 1149126214 heartbeat IPC: 0.796 cumulative IPC: 0.7049 (Simulation time: 02 hr 49 min 56 sec)
Heartbeat CPU 0 instructions: 820000124 cycles: 1161287809 heartbeat IPC: 0.8223 cumulative IPC: 0.7061 (Simulation time: 02 hr 51 min 52 sec)
Heartbeat CPU 0 instructions: 830000125 cycles: 1173372351 heartbeat IPC: 0.8275 cumulative IPC: 0.7074 (Simulation time: 02 hr 53 min 30 sec)
Heartbeat CPU 0 instructions: 840000127 cycles: 1185473348 heartbeat IPC: 0.8264 cumulative IPC: 0.7086 (Simulation time: 02 hr 55 min 16 sec)
Heartbeat CPU 0 instructions: 850000127 cycles: 1197561458 heartbeat IPC: 0.8273 cumulative IPC: 0.7098 (Simulation time: 02 hr 57 min 06 sec)
Heartbeat CPU 0 instructions: 860000127 cycles: 1209903007 heartbeat IPC: 0.8103 cumulative IPC: 0.7108 (Simulation time: 02 hr 58 min 46 sec)
Heartbeat CPU 0 instructions: 870000128 cycles: 1222458901 heartbeat IPC: 0.7964 cumulative IPC: 0.7117 (Simulation time: 03 hr 00 min 41 sec)
Heartbeat CPU 0 instructions: 880000128 cycles: 1234997478 heartbeat IPC: 0.7975 cumulative IPC: 0.7126 (Simulation time: 03 hr 02 min 07 sec)
Heartbeat CPU 0 instructions: 890000128 cycles: 1247551628 heartbeat IPC: 0.7965 cumulative IPC: 0.7134 (Simulation time: 03 hr 04 min 07 sec)
Heartbeat CPU 0 instructions: 900000130 cycles: 1259995488 heartbeat IPC: 0.8036 cumulative IPC: 0.7143 (Simulation time: 03 hr 06 min 09 sec)
Heartbeat CPU 0 instructions: 910000131 cycles: 1272187161 heartbeat IPC: 0.8202 cumulative IPC: 0.7153 (Simulation time: 03 hr 08 min 10 sec)
Heartbeat CPU 0 instructions: 920000131 cycles: 1284370786 heartbeat IPC: 0.8208 cumulative IPC: 0.7163 (Simulation time: 03 hr 10 min 09 sec)
Heartbeat CPU 0 instructions: 930000131 cycles: 1296451417 heartbeat IPC: 0.8278 cumulative IPC: 0.7173 (Simulation time: 03 hr 11 min 49 sec)
Heartbeat CPU 0 instructions: 940000133 cycles: 1308542639 heartbeat IPC: 0.827 cumulative IPC: 0.7184 (Simulation time: 03 hr 13 min 44 sec)
Heartbeat CPU 0 instructions: 950000133 cycles: 1321189554 heartbeat IPC: 0.7907 cumulative IPC: 0.719 (Simulation time: 03 hr 15 min 35 sec)
Heartbeat CPU 0 instructions: 960000135 cycles: 1333843435 heartbeat IPC: 0.7903 cumulative IPC: 0.7197 (Simulation time: 03 hr 17 min 37 sec)
Heartbeat CPU 0 instructions: 970000139 cycles: 1346430063 heartbeat IPC: 0.7945 cumulative IPC: 0.7204 (Simulation time: 03 hr 19 min 13 sec)
Heartbeat CPU 0 instructions: 980000143 cycles: 1359004295 heartbeat IPC: 0.7953 cumulative IPC: 0.7211 (Simulation time: 03 hr 21 min 04 sec)
Heartbeat CPU 0 instructions: 990000147 cycles: 1371206748 heartbeat IPC: 0.8195 cumulative IPC: 0.722 (Simulation time: 03 hr 23 min 02 sec)
Heartbeat CPU 0 instructions: 1000000150 cycles: 1383310847 heartbeat IPC: 0.8262 cumulative IPC: 0.7229 (Simulation time: 03 hr 24 min 59 sec)
Heartbeat CPU 0 instructions: 1010000150 cycles: 1395442456 heartbeat IPC: 0.8243 cumulative IPC: 0.7238 (Simulation time: 03 hr 26 min 56 sec)
Heartbeat CPU 0 instructions: 1020000152 cycles: 1407552010 heartbeat IPC: 0.8258 cumulative IPC: 0.7247 (Simulation time: 03 hr 28 min 53 sec)
Heartbeat CPU 0 instructions: 1030000152 cycles: 1421579956 heartbeat IPC: 0.7129 cumulative IPC: 0.7245 (Simulation time: 03 hr 30 min 46 sec)
Heartbeat CPU 0 instructions: 1040000152 cycles: 1434191542 heartbeat IPC: 0.7929 cumulative IPC: 0.7251 (Simulation time: 03 hr 32 min 46 sec)
Heartbeat CPU 0 instructions: 1050000155 cycles: 1446420036 heartbeat IPC: 0.8178 cumulative IPC: 0.7259 (Simulation time: 03 hr 34 min 23 sec)
Heartbeat CPU 0 instructions: 1060000158 cycles: 1458679590 heartbeat IPC: 0.8157 cumulative IPC: 0.7267 (Simulation time: 03 hr 36 min 04 sec)
Heartbeat CPU 0 instructions: 1070000162 cycles: 1470941892 heartbeat IPC: 0.8155 cumulative IPC: 0.7274 (Simulation time: 03 hr 37 min 57 sec)
Heartbeat CPU 0 instructions: 1080000166 cycles: 1483027704 heartbeat IPC: 0.8274 cumulative IPC: 0.7282 (Simulation time: 03 hr 39 min 51 sec)
Heartbeat CPU 0 instructions: 1090000166 cycles: 1494960725 heartbeat IPC: 0.838 cumulative IPC: 0.7291 (Simulation time: 03 hr 41 min 47 sec)
Heartbeat CPU 0 instructions: 1100000166 cycles: 1506866101 heartbeat IPC: 0.84 cumulative IPC: 0.73 (Simulation time: 03 hr 43 min 46 sec)
Heartbeat CPU 0 instructions: 1110000168 cycles: 1518681919 heartbeat IPC: 0.8463 cumulative IPC: 0.7309 (Simulation time: 03 hr 45 min 37 sec)
Heartbeat CPU 0 instructions: 1120000170 cycles: 1530526064 heartbeat IPC: 0.8443 cumulative IPC: 0.7318 (Simulation time: 03 hr 47 min 26 sec)
Heartbeat CPU 0 instructions: 1130000170 cycles: 1542834739 heartbeat IPC: 0.8124 cumulative IPC: 0.7324 (Simulation time: 03 hr 49 min 25 sec)
Heartbeat CPU 0 instructions: 1140000174 cycles: 1555139464 heartbeat IPC: 0.8127 cumulative IPC: 0.7331 (Simulation time: 03 hr 51 min 23 sec)
Heartbeat CPU 0 instructions: 1150000178 cycles: 1567426083 heartbeat IPC: 0.8139 cumulative IPC: 0.7337 (Simulation time: 03 hr 53 min 12 sec)
Heartbeat CPU 0 instructions: 1160000178 cycles: 1579668024 heartbeat IPC: 0.8169 cumulative IPC: 0.7343 (Simulation time: 03 hr 54 min 43 sec)
Heartbeat CPU 0 instructions: 1170000179 cycles: 1591607015 heartbeat IPC: 0.8376 cumulative IPC: 0.7351 (Simulation time: 03 hr 56 min 09 sec)
Heartbeat CPU 0 instructions: 1180000179 cycles: 1603409653 heartbeat IPC: 0.8473 cumulative IPC: 0.7359 (Simulation time: 03 hr 57 min 59 sec)
Heartbeat CPU 0 instructions: 1190000180 cycles: 1615252226 heartbeat IPC: 0.8444 cumulative IPC: 0.7367 (Simulation time: 03 hr 59 min 57 sec)
Heartbeat CPU 0 instructions: 1200000181 cycles: 1627084817 heartbeat IPC: 0.8451 cumulative IPC: 0.7375 (Simulation time: 04 hr 01 min 50 sec)
Heartbeat CPU 0 instructions: 1210000183 cycles: 1639043573 heartbeat IPC: 0.8362 cumulative IPC: 0.7382 (Simulation time: 04 hr 03 min 42 sec)
Heartbeat CPU 0 instructions: 1220000183 cycles: 1651272186 heartbeat IPC: 0.8178 cumulative IPC: 0.7388 (Simulation time: 04 hr 05 min 42 sec)
Heartbeat CPU 0 instructions: 1230000183 cycles: 1663502651 heartbeat IPC: 0.8176 cumulative IPC: 0.7394 (Simulation time: 04 hr 07 min 43 sec)
Heartbeat CPU 0 instructions: 1240000183 cycles: 1675753152 heartbeat IPC: 0.8163 cumulative IPC: 0.74 (Simulation time: 04 hr 09 min 44 sec)
Heartbeat CPU 0 instructions: 1250000185 cycles: 1688008564 heartbeat IPC: 0.816 cumulative IPC: 0.7405 (Simulation time: 04 hr 11 min 46 sec)
Heartbeat CPU 0 instructions: 1260000186 cycles: 1699985249 heartbeat IPC: 0.835 cumulative IPC: 0.7412 (Simulation time: 04 hr 13 min 45 sec)
Heartbeat CPU 0 instructions: 1270000189 cycles: 1711918206 heartbeat IPC: 0.838 cumulative IPC: 0.7419 (Simulation time: 04 hr 15 min 34 sec)
Heartbeat CPU 0 instructions: 1280000189 cycles: 1723743517 heartbeat IPC: 0.8456 cumulative IPC: 0.7426 (Simulation time: 04 hr 17 min 10 sec)
Heartbeat CPU 0 instructions: 1290000192 cycles: 1735531537 heartbeat IPC: 0.8483 cumulative IPC: 0.7433 (Simulation time: 04 hr 18 min 55 sec)
Heartbeat CPU 0 instructions: 1300000192 cycles: 1795661262 heartbeat IPC: 0.1663 cumulative IPC: 0.724 (Simulation time: 04 hr 26 min 33 sec)
Heartbeat CPU 0 instructions: 1310000196 cycles: 1808602645 heartbeat IPC: 0.7727 cumulative IPC: 0.7243 (Simulation time: 04 hr 28 min 31 sec)
Heartbeat CPU 0 instructions: 1320000200 cycles: 1820824351 heartbeat IPC: 0.8182 cumulative IPC: 0.7249 (Simulation time: 04 hr 30 min 25 sec)
Heartbeat CPU 0 instructions: 1330000204 cycles: 1833039679 heartbeat IPC: 0.8186 cumulative IPC: 0.7256 (Simulation time: 04 hr 32 min 19 sec)
Heartbeat CPU 0 instructions: 1340000204 cycles: 1845260811 heartbeat IPC: 0.8183 cumulative IPC: 0.7262 (Simulation time: 04 hr 34 min 12 sec)
Heartbeat CPU 0 instructions: 1350000205 cycles: 1857507586 heartbeat IPC: 0.8165 cumulative IPC: 0.7268 (Simulation time: 04 hr 36 min 04 sec)
Heartbeat CPU 0 instructions: 1360000207 cycles: 1869533563 heartbeat IPC: 0.8315 cumulative IPC: 0.7275 (Simulation time: 04 hr 37 min 42 sec)
Heartbeat CPU 0 instructions: 1370000207 cycles: 1881366891 heartbeat IPC: 0.8451 cumulative IPC: 0.7282 (Simulation time: 04 hr 38 min 58 sec)
Heartbeat CPU 0 instructions: 1380000208 cycles: 1893497903 heartbeat IPC: 0.8243 cumulative IPC: 0.7288 (Simulation time: 04 hr 40 min 16 sec)
Heartbeat CPU 0 instructions: 1390000210 cycles: 1905660839 heartbeat IPC: 0.8222 cumulative IPC: 0.7294 (Simulation time: 04 hr 42 min 10 sec)
Heartbeat CPU 0 instructions: 1400000211 cycles: 1917761284 heartbeat IPC: 0.8264 cumulative IPC: 0.73 (Simulation time: 04 hr 44 min 03 sec)
Heartbeat CPU 0 instructions: 1410000211 cycles: 1930196232 heartbeat IPC: 0.8042 cumulative IPC: 0.7305 (Simulation time: 04 hr 45 min 51 sec)
Heartbeat CPU 0 instructions: 1420000212 cycles: 1942899406 heartbeat IPC: 0.7872 cumulative IPC: 0.7309 (Simulation time: 04 hr 47 min 15 sec)
Heartbeat CPU 0 instructions: 1430000214 cycles: 1955473087 heartbeat IPC: 0.7953 cumulative IPC: 0.7313 (Simulation time: 04 hr 48 min 44 sec)
Heartbeat CPU 0 instructions: 1440000214 cycles: 1967965819 heartbeat IPC: 0.8005 cumulative IPC: 0.7317 (Simulation time: 04 hr 50 min 39 sec)
Heartbeat CPU 0 instructions: 1450000215 cycles: 1980184072 heartbeat IPC: 0.8184 cumulative IPC: 0.7323 (Simulation time: 04 hr 52 min 33 sec)
Heartbeat CPU 0 instructions: 1460000217 cycles: 1992392314 heartbeat IPC: 0.8191 cumulative IPC: 0.7328 (Simulation time: 04 hr 54 min 08 sec)
Heartbeat CPU 0 instructions: 1470000217 cycles: 2004587670 heartbeat IPC: 0.82 cumulative IPC: 0.7333 (Simulation time: 04 hr 55 min 42 sec)
Heartbeat CPU 0 instructions: 1480000218 cycles: 2016832326 heartbeat IPC: 0.8167 cumulative IPC: 0.7338 (Simulation time: 04 hr 57 min 16 sec)
Heartbeat CPU 0 instructions: 1490000220 cycles: 2029003391 heartbeat IPC: 0.8216 cumulative IPC: 0.7344 (Simulation time: 04 hr 58 min 45 sec)
Heartbeat CPU 0 instructions: 1500000224 cycles: 2040836233 heartbeat IPC: 0.8451 cumulative IPC: 0.735 (Simulation time: 05 hr 00 min 14 sec)
Heartbeat CPU 0 instructions: 1510000226 cycles: 2052842030 heartbeat IPC: 0.8329 cumulative IPC: 0.7356 (Simulation time: 05 hr 01 min 42 sec)
Heartbeat CPU 0 instructions: 1520000228 cycles: 2065027895 heartbeat IPC: 0.8206 cumulative IPC: 0.7361 (Simulation time: 05 hr 03 min 19 sec)
Heartbeat CPU 0 instructions: 1530000228 cycles: 2077135269 heartbeat IPC: 0.8259 cumulative IPC: 0.7366 (Simulation time: 05 hr 04 min 51 sec)
Heartbeat CPU 0 instructions: 1540000231 cycles: 2089296967 heartbeat IPC: 0.8223 cumulative IPC: 0.7371 (Simulation time: 05 hr 06 min 42 sec)
Heartbeat CPU 0 instructions: 1550000233 cycles: 2102012009 heartbeat IPC: 0.7865 cumulative IPC: 0.7374 (Simulation time: 05 hr 08 min 36 sec)
Heartbeat CPU 0 instructions: 1560000237 cycles: 2114634488 heartbeat IPC: 0.7922 cumulative IPC: 0.7377 (Simulation time: 05 hr 10 min 31 sec)
Heartbeat CPU 0 instructions: 1570000238 cycles: 2127180727 heartbeat IPC: 0.7971 cumulative IPC: 0.7381 (Simulation time: 05 hr 12 min 20 sec)
Heartbeat CPU 0 instructions: 1580000241 cycles: 2139461581 heartbeat IPC: 0.8143 cumulative IPC: 0.7385 (Simulation time: 05 hr 14 min 06 sec)
Heartbeat CPU 0 instructions: 1590000244 cycles: 2151677391 heartbeat IPC: 0.8186 cumulative IPC: 0.739 (Simulation time: 05 hr 15 min 40 sec)
Heartbeat CPU 0 instructions: 1600000245 cycles: 2163889596 heartbeat IPC: 0.8189 cumulative IPC: 0.7394 (Simulation time: 05 hr 17 min 14 sec)
Heartbeat CPU 0 instructions: 1610000247 cycles: 2176115564 heartbeat IPC: 0.8179 cumulative IPC: 0.7399 (Simulation time: 05 hr 18 min 54 sec)
Heartbeat CPU 0 instructions: 1620000249 cycles: 2188368920 heartbeat IPC: 0.8161 cumulative IPC: 0.7403 (Simulation time: 05 hr 20 min 48 sec)
Heartbeat CPU 0 instructions: 1630000253 cycles: 2200278956 heartbeat IPC: 0.8396 cumulative IPC: 0.7408 (Simulation time: 05 hr 22 min 40 sec)
Heartbeat CPU 0 instructions: 1640000254 cycles: 2212148704 heartbeat IPC: 0.8425 cumulative IPC: 0.7414 (Simulation time: 05 hr 24 min 31 sec)
Heartbeat CPU 0 instructions: 1650000254 cycles: 2224343715 heartbeat IPC: 0.82 cumulative IPC: 0.7418 (Simulation time: 05 hr 26 min 24 sec)
Heartbeat CPU 0 instructions: 1660000257 cycles: 2236501960 heartbeat IPC: 0.8225 cumulative IPC: 0.7422 (Simulation time: 05 hr 28 min 02 sec)
Heartbeat CPU 0 instructions: 1670000258 cycles: 2248614308 heartbeat IPC: 0.8256 cumulative IPC: 0.7427 (Simulation time: 05 hr 29 min 41 sec)
Heartbeat CPU 0 instructions: 1680000259 cycles: 2261182554 heartbeat IPC: 0.7957 cumulative IPC: 0.743 (Simulation time: 05 hr 31 min 35 sec)
Heartbeat CPU 0 instructions: 1690000259 cycles: 2273868744 heartbeat IPC: 0.7883 cumulative IPC: 0.7432 (Simulation time: 05 hr 33 min 32 sec)
Heartbeat CPU 0 instructions: 1700000259 cycles: 2286397073 heartbeat IPC: 0.7982 cumulative IPC: 0.7435 (Simulation time: 05 hr 35 min 29 sec)
Heartbeat CPU 0 instructions: 1710000261 cycles: 2298809326 heartbeat IPC: 0.8057 cumulative IPC: 0.7439 (Simulation time: 05 hr 37 min 25 sec)
Heartbeat CPU 0 instructions: 1720000264 cycles: 2311023156 heartbeat IPC: 0.8187 cumulative IPC: 0.7443 (Simulation time: 05 hr 39 min 20 sec)
Heartbeat CPU 0 instructions: 1730000264 cycles: 2323232944 heartbeat IPC: 0.819 cumulative IPC: 0.7447 (Simulation time: 05 hr 41 min 14 sec)
Heartbeat CPU 0 instructions: 1740000265 cycles: 2335458138 heartbeat IPC: 0.818 cumulative IPC: 0.745 (Simulation time: 05 hr 43 min 08 sec)
Heartbeat CPU 0 instructions: 1750000266 cycles: 2347709578 heartbeat IPC: 0.8162 cumulative IPC: 0.7454 (Simulation time: 05 hr 45 min 03 sec)
Heartbeat CPU 0 instructions: 1760000266 cycles: 2359798709 heartbeat IPC: 0.8272 cumulative IPC: 0.7458 (Simulation time: 05 hr 46 min 48 sec)
Heartbeat CPU 0 instructions: 1770000270 cycles: 2371624964 heartbeat IPC: 0.8456 cumulative IPC: 0.7463 (Simulation time: 05 hr 48 min 36 sec)
Heartbeat CPU 0 instructions: 1780000274 cycles: 2383710845 heartbeat IPC: 0.8274 cumulative IPC: 0.7467 (Simulation time: 05 hr 50 min 25 sec)
Heartbeat CPU 0 instructions: 1790000274 cycles: 2395901657 heartbeat IPC: 0.8203 cumulative IPC: 0.7471 (Simulation time: 05 hr 52 min 19 sec)
Heartbeat CPU 0 instructions: 1800000278 cycles: 2407998729 heartbeat IPC: 0.8266 cumulative IPC: 0.7475 (Simulation time: 05 hr 54 min 12 sec)
Heartbeat CPU 0 instructions: 1810000282 cycles: 2420338139 heartbeat IPC: 0.8104 cumulative IPC: 0.7478 (Simulation time: 05 hr 56 min 07 sec)
Heartbeat CPU 0 instructions: 1820000284 cycles: 2433063911 heartbeat IPC: 0.7858 cumulative IPC: 0.748 (Simulation time: 05 hr 57 min 55 sec)
Heartbeat CPU 0 instructions: 1830000288 cycles: 2445654076 heartbeat IPC: 0.7943 cumulative IPC: 0.7483 (Simulation time: 05 hr 59 min 52 sec)
Heartbeat CPU 0 instructions: 1840000289 cycles: 2458187334 heartbeat IPC: 0.7979 cumulative IPC: 0.7485 (Simulation time: 06 hr 01 min 26 sec)
Heartbeat CPU 0 instructions: 1850000292 cycles: 2470420954 heartbeat IPC: 0.8174 cumulative IPC: 0.7489 (Simulation time: 06 hr 02 min 57 sec)
Heartbeat CPU 0 instructions: 1860000296 cycles: 2482646708 heartbeat IPC: 0.8179 cumulative IPC: 0.7492 (Simulation time: 06 hr 04 min 43 sec)
Heartbeat CPU 0 instructions: 1870000296 cycles: 2494860711 heartbeat IPC: 0.8187 cumulative IPC: 0.7495 (Simulation time: 06 hr 06 min 37 sec)
Heartbeat CPU 0 instructions: 1880000300 cycles: 2507099313 heartbeat IPC: 0.8171 cumulative IPC: 0.7499 (Simulation time: 06 hr 08 min 29 sec)
Heartbeat CPU 0 instructions: 1890000300 cycles: 2519340876 heartbeat IPC: 0.8169 cumulative IPC: 0.7502 (Simulation time: 06 hr 10 min 05 sec)
Heartbeat CPU 0 instructions: 1900000304 cycles: 2531173488 heartbeat IPC: 0.8451 cumulative IPC: 0.7506 (Simulation time: 06 hr 11 min 23 sec)
Heartbeat CPU 0 instructions: 1910000308 cycles: 2543136582 heartbeat IPC: 0.8359 cumulative IPC: 0.751 (Simulation time: 06 hr 12 min 40 sec)
Heartbeat CPU 0 instructions: 1920000309 cycles: 2555320037 heartbeat IPC: 0.8208 cumulative IPC: 0.7514 (Simulation time: 06 hr 14 min 10 sec)
Heartbeat CPU 0 instructions: 1930000312 cycles: 2567465099 heartbeat IPC: 0.8234 cumulative IPC: 0.7517 (Simulation time: 06 hr 15 min 53 sec)
Heartbeat CPU 0 instructions: 1940000312 cycles: 2579565515 heartbeat IPC: 0.8264 cumulative IPC: 0.7521 (Simulation time: 06 hr 17 min 44 sec)
Heartbeat CPU 0 instructions: 1950000316 cycles: 2592269070 heartbeat IPC: 0.7872 cumulative IPC: 0.7522 (Simulation time: 06 hr 19 min 34 sec)
Heartbeat CPU 0 instructions: 1960000316 cycles: 2604924005 heartbeat IPC: 0.7902 cumulative IPC: 0.7524 (Simulation time: 06 hr 21 min 10 sec)
Heartbeat CPU 0 instructions: 1970000319 cycles: 2617465235 heartbeat IPC: 0.7974 cumulative IPC: 0.7526 (Simulation time: 06 hr 22 min 25 sec)
Heartbeat CPU 0 instructions: 1980000319 cycles: 2629811458 heartbeat IPC: 0.81 cumulative IPC: 0.7529 (Simulation time: 06 hr 23 min 56 sec)
Heartbeat CPU 0 instructions: 1990000319 cycles: 2642040076 heartbeat IPC: 0.8178 cumulative IPC: 0.7532 (Simulation time: 06 hr 25 min 36 sec)

=== ERROR PAGE STATISTICS ===
Mode: CYCLE
Error Cycle Interval: 200000000000 CPU cycles
Total Error Accesses: 0
==============================
Simulation finished CPU 0 instructions: 1999999509 cycles: 2654257893 cumulative IPC: 0.7535 (Simulation time: 06 hr 27 min 29 sec)
Simulation complete CPU 0 instructions: 1999999509 cycles: 2654257893 cumulative IPC: 0.7535 (Simulation time: 06 hr 27 min 29 sec)

ChampSim completed all CPUs

=== Simulation ===
CPU 0 runs test_traces/649.fotonik3d_s-10881B.champsimtrace.xz

Region of Interest Statistics

CPU 0 cumulative IPC: 0.7535 instructions: 1999999509 cycles: 2654257893
CPU 0 Branch Prediction Accuracy: 97.24% MPKI: 0.2738 Average ROB Occupancy at Mispredict: 264.7
Branch type MPKI
BRANCH_DIRECT_JUMP: 5.5e-06
BRANCH_INDIRECT: 0
BRANCH_CONDITIONAL: 0.2738
BRANCH_DIRECT_CALL: 5e-07
BRANCH_INDIRECT_CALL: 0
BRANCH_RETURN: 5e-07

cpu0->cpu0_STLB TOTAL        ACCESS:    6979467 HIT:    3617659 MISS:    3361808 MSHR_MERGE:          0
cpu0->cpu0_STLB LOAD         ACCESS:    6979467 HIT:    3617659 MISS:    3361808 MSHR_MERGE:          0
cpu0->cpu0_STLB RFO          ACCESS:          0 HIT:          0 MISS:          0 MSHR_MERGE:          0
cpu0->cpu0_STLB PREFETCH     ACCESS:          0 HIT:          0 MISS:          0 MSHR_MERGE:          0
cpu0->cpu0_STLB WRITE        ACCESS:          0 HIT:          0 MISS:          0 MSHR_MERGE:          0
cpu0->cpu0_STLB TRANSLATION  ACCESS:          0 HIT:          0 MISS:          0 MSHR_MERGE:          0
cpu0->cpu0_STLB PREFETCH REQUESTED:          0 ISSUED:          0 USEFUL:          0 USELESS:          0
cpu0->cpu0_STLB AVERAGE MISS LATENCY: 335.8 cycles
cpu0->cpu0_L2C TOTAL        ACCESS:   51671907 HIT:   16860675 MISS:   34811232 MSHR_MERGE:          0
cpu0->cpu0_L2C LOAD         ACCESS:   36315951 HIT:    1505269 MISS:   34810682 MSHR_MERGE:          0
cpu0->cpu0_L2C RFO          ACCESS:       2023 HIT:       1980 MISS:         43 MSHR_MERGE:          0
cpu0->cpu0_L2C PREFETCH     ACCESS:          0 HIT:          0 MISS:          0 MSHR_MERGE:          0
cpu0->cpu0_L2C WRITE        ACCESS:   15353933 HIT:   15353426 MISS:        507 MSHR_MERGE:          0
cpu0->cpu0_L2C TRANSLATION  ACCESS:          0 HIT:          0 MISS:          0 MSHR_MERGE:          0
cpu0->cpu0_L2C PREFETCH REQUESTED:          0 ISSUED:          0 USEFUL:          0 USELESS:          0
cpu0->cpu0_L2C AVERAGE MISS LATENCY: 112.6 cycles
cpu0->cpu0_L1I TOTAL        ACCESS:  500895138 HIT:  500894193 MISS:        945 MSHR_MERGE:        406
cpu0->cpu0_L1I LOAD         ACCESS:  500895138 HIT:  500894193 MISS:        945 MSHR_MERGE:        406
cpu0->cpu0_L1I RFO          ACCESS:          0 HIT:          0 MISS:          0 MSHR_MERGE:          0
cpu0->cpu0_L1I PREFETCH     ACCESS:          0 HIT:          0 MISS:          0 MSHR_MERGE:          0
cpu0->cpu0_L1I WRITE        ACCESS:          0 HIT:          0 MISS:          0 MSHR_MERGE:          0
cpu0->cpu0_L1I TRANSLATION  ACCESS:          0 HIT:          0 MISS:          0 MSHR_MERGE:          0
cpu0->cpu0_L1I PREFETCH REQUESTED:          0 ISSUED:          0 USEFUL:          0 USELESS:          0
cpu0->cpu0_L1I AVERAGE MISS LATENCY: 132.5 cycles
cpu0->cpu0_L1D TOTAL        ACCESS:  960376515 HIT:  915384751 MISS:   44991764 MSHR_MERGE:    8674315
cpu0->cpu0_L1D LOAD         ACCESS:  842739073 HIT:  797750905 MISS:   44988168 MSHR_MERGE:    8672755
cpu0->cpu0_L1D RFO          ACCESS:          0 HIT:          0 MISS:          0 MSHR_MERGE:          0
cpu0->cpu0_L1D PREFETCH     ACCESS:          0 HIT:          0 MISS:          0 MSHR_MERGE:          0
cpu0->cpu0_L1D WRITE        ACCESS:  117637442 HIT:  117633846 MISS:       3596 MSHR_MERGE:       1560
cpu0->cpu0_L1D TRANSLATION  ACCESS:          0 HIT:          0 MISS:          0 MSHR_MERGE:          0
cpu0->cpu0_L1D PREFETCH REQUESTED:          0 ISSUED:          0 USEFUL:          0 USELESS:          0
cpu0->cpu0_L1D AVERAGE MISS LATENCY: 116.9 cycles
cpu0->cpu0_ITLB TOTAL        ACCESS:  433908400 HIT:  433908340 MISS:         60 MSHR_MERGE:         48
cpu0->cpu0_ITLB LOAD         ACCESS:  433908400 HIT:  433908340 MISS:         60 MSHR_MERGE:         48
cpu0->cpu0_ITLB RFO          ACCESS:          0 HIT:          0 MISS:          0 MSHR_MERGE:          0
cpu0->cpu0_ITLB PREFETCH     ACCESS:          0 HIT:          0 MISS:          0 MSHR_MERGE:          0
cpu0->cpu0_ITLB WRITE        ACCESS:          0 HIT:          0 MISS:          0 MSHR_MERGE:          0
cpu0->cpu0_ITLB TRANSLATION  ACCESS:          0 HIT:          0 MISS:          0 MSHR_MERGE:          0
cpu0->cpu0_ITLB PREFETCH REQUESTED:          0 ISSUED:          0 USEFUL:          0 USELESS:          0
cpu0->cpu0_ITLB AVERAGE MISS LATENCY: 709.7 cycles
cpu0->cpu0_DTLB TOTAL        ACCESS:  901386553 HIT:  892463238 MISS:    8923315 MSHR_MERGE:    1943860
cpu0->cpu0_DTLB LOAD         ACCESS:  901386553 HIT:  892463238 MISS:    8923315 MSHR_MERGE:    1943860
cpu0->cpu0_DTLB RFO          ACCESS:          0 HIT:          0 MISS:          0 MSHR_MERGE:          0
cpu0->cpu0_DTLB PREFETCH     ACCESS:          0 HIT:          0 MISS:          0 MSHR_MERGE:          0
cpu0->cpu0_DTLB WRITE        ACCESS:          0 HIT:          0 MISS:          0 MSHR_MERGE:          0
cpu0->cpu0_DTLB TRANSLATION  ACCESS:          0 HIT:          0 MISS:          0 MSHR_MERGE:          0
cpu0->cpu0_DTLB PREFETCH REQUESTED:          0 ISSUED:          0 USEFUL:          0 USELESS:          0
cpu0->cpu0_DTLB AVERAGE MISS LATENCY: 167.2 cycles
cpu0->LLC TOTAL        ACCESS:   50158658 HIT:   17660663 MISS:   32497995 MSHR_MERGE:          0
cpu0->LLC LOAD         ACCESS:   34810682 HIT:    2313057 MISS:   32497625 MSHR_MERGE:          0
cpu0->LLC RFO          ACCESS:         43 HIT:         17 MISS:         26 MSHR_MERGE:          0
cpu0->LLC PREFETCH     ACCESS:          0 HIT:          0 MISS:          0 MSHR_MERGE:          0
cpu0->LLC WRITE        ACCESS:   15347933 HIT:   15347589 MISS:        344 MSHR_MERGE:          0
cpu0->LLC TRANSLATION  ACCESS:          0 HIT:          0 MISS:          0 MSHR_MERGE:          0
cpu0->LLC PREFETCH REQUESTED:          0 ISSUED:          0 USEFUL:          0 USELESS:          0
cpu0->LLC AVERAGE MISS LATENCY: 103.5 cycles

DRAM Statistics

Channel 0 RQ ROW_BUFFER_HIT:     408453
  ROW_BUFFER_MISS:   19125253
  AVG DBUS CONGESTED CYCLE: 10.98
Channel 0 WQ ROW_BUFFER_HIT:    1370102
  ROW_BUFFER_MISS:    6299927
  FULL:          0
Channel 0 REFRESHES ISSUED:     221174

Channel 1 RQ ROW_BUFFER_HIT:     406267
  ROW_BUFFER_MISS:   19125203
  AVG DBUS CONGESTED CYCLE: 10.98
Channel 1 WQ ROW_BUFFER_HIT:    1370672
  ROW_BUFFER_MISS:    6299178
  FULL:          0
Channel 1 REFRESHES ISSUED:     221174
