
*** ChampSim Multicore Out-of-Order Simulator ***
Warmup Instructions: 0
Simulation Instructions: 9223372036854775807
Number of CPUs: 1
Page size: 2097152

Off-chip DRAM Size: 128 GiB Channels: 2 Width: 32-bit Data Rate: 4807 MT/s
[ERROR_PAGE_MANAGER] Error latency: 1990500 
[ERROR_PAGE_MANAGER] Random seed: 54321 (fixed for preload reproducibility)
[ERROR_PAGE_MANAGER] Cycle-based error modeling enabled
[ERROR_PAGE_MANAGER] Errors per interval: 1
[ERROR_PAGE_MANAGER] Error cycle interval: 800000000 cycles

=== ERROR PAGE STATISTICS ===
Mode: CYCLE
Error Cycle Interval: 800000000 CPU cycles
Total Error Accesses: 0
==============================
Warmup finished CPU 0 instructions: 0 cycles: 1 cumulative IPC: 0 (Simulation time: 00 hr 00 min 00 sec)
Warmup complete CPU 0 instructions: 0 cycles: 1 cumulative IPC: 0 (Simulation time: 00 hr 00 min 00 sec)
Heartbeat CPU 0 instructions: 10000001 cycles: 11177186 heartbeat IPC: 0.8947 cumulative IPC: 0.8947 (Simulation time: 00 hr 01 min 36 sec)
Heartbeat CPU 0 instructions: 20000004 cycles: 22238118 heartbeat IPC: 0.9041 cumulative IPC: 0.8994 (Simulation time: 00 hr 03 min 23 sec)
Heartbeat CPU 0 instructions: 30000005 cycles: 33277023 heartbeat IPC: 0.9059 cumulative IPC: 0.9015 (Simulation time: 00 hr 05 min 09 sec)
Heartbeat CPU 0 instructions: 40000008 cycles: 44338503 heartbeat IPC: 0.904 cumulative IPC: 0.9022 (Simulation time: 00 hr 06 min 41 sec)
Heartbeat CPU 0 instructions: 50000010 cycles: 55496615 heartbeat IPC: 0.8962 cumulative IPC: 0.901 (Simulation time: 00 hr 08 min 29 sec)
Heartbeat CPU 0 instructions: 60000010 cycles: 66743258 heartbeat IPC: 0.8892 cumulative IPC: 0.899 (Simulation time: 00 hr 10 min 18 sec)
Heartbeat CPU 0 instructions: 70000012 cycles: 77972315 heartbeat IPC: 0.8905 cumulative IPC: 0.8978 (Simulation time: 00 hr 12 min 08 sec)
Heartbeat CPU 0 instructions: 80000016 cycles: 89139454 heartbeat IPC: 0.8955 cumulative IPC: 0.8975 (Simulation time: 00 hr 13 min 56 sec)
Heartbeat CPU 0 instructions: 90000018 cycles: 100197362 heartbeat IPC: 0.9043 cumulative IPC: 0.8982 (Simulation time: 00 hr 15 min 35 sec)
Heartbeat CPU 0 instructions: 100000021 cycles: 111267288 heartbeat IPC: 0.9033 cumulative IPC: 0.8987 (Simulation time: 00 hr 17 min 07 sec)
Heartbeat CPU 0 instructions: 110000022 cycles: 122316929 heartbeat IPC: 0.905 cumulative IPC: 0.8993 (Simulation time: 00 hr 18 min 56 sec)
Heartbeat CPU 0 instructions: 120000022 cycles: 133375854 heartbeat IPC: 0.9042 cumulative IPC: 0.8997 (Simulation time: 00 hr 20 min 45 sec)
Heartbeat CPU 0 instructions: 130000024 cycles: 144436684 heartbeat IPC: 0.9041 cumulative IPC: 0.9 (Simulation time: 00 hr 22 min 33 sec)
Heartbeat CPU 0 instructions: 140000025 cycles: 155532107 heartbeat IPC: 0.9013 cumulative IPC: 0.9001 (Simulation time: 00 hr 24 min 19 sec)
Heartbeat CPU 0 instructions: 150000029 cycles: 166691920 heartbeat IPC: 0.8961 cumulative IPC: 0.8999 (Simulation time: 00 hr 26 min 08 sec)
Heartbeat CPU 0 instructions: 160000031 cycles: 177864804 heartbeat IPC: 0.895 cumulative IPC: 0.8996 (Simulation time: 00 hr 27 min 53 sec)
Heartbeat CPU 0 instructions: 170000031 cycles: 188920372 heartbeat IPC: 0.9045 cumulative IPC: 0.8999 (Simulation time: 00 hr 29 min 41 sec)
Heartbeat CPU 0 instructions: 180000032 cycles: 199985731 heartbeat IPC: 0.9037 cumulative IPC: 0.9001 (Simulation time: 00 hr 31 min 28 sec)
Heartbeat CPU 0 instructions: 190000036 cycles: 211032732 heartbeat IPC: 0.9052 cumulative IPC: 0.9003 (Simulation time: 00 hr 33 min 16 sec)
Heartbeat CPU 0 instructions: 200000036 cycles: 222092083 heartbeat IPC: 0.9042 cumulative IPC: 0.9005 (Simulation time: 00 hr 35 min 00 sec)
Heartbeat CPU 0 instructions: 210000036 cycles: 233145868 heartbeat IPC: 0.9047 cumulative IPC: 0.9007 (Simulation time: 00 hr 36 min 48 sec)
Heartbeat CPU 0 instructions: 220000036 cycles: 244208527 heartbeat IPC: 0.9039 cumulative IPC: 0.9009 (Simulation time: 00 hr 38 min 35 sec)
Heartbeat CPU 0 instructions: 230000036 cycles: 255299657 heartbeat IPC: 0.9016 cumulative IPC: 0.9009 (Simulation time: 00 hr 40 min 24 sec)
Heartbeat CPU 0 instructions: 240000038 cycles: 266372175 heartbeat IPC: 0.9031 cumulative IPC: 0.901 (Simulation time: 00 hr 42 min 12 sec)
Heartbeat CPU 0 instructions: 250000039 cycles: 277591981 heartbeat IPC: 0.8913 cumulative IPC: 0.9006 (Simulation time: 00 hr 44 min 02 sec)
Heartbeat CPU 0 instructions: 260000040 cycles: 288907346 heartbeat IPC: 0.8838 cumulative IPC: 0.8999 (Simulation time: 00 hr 45 min 53 sec)
Heartbeat CPU 0 instructions: 270000041 cycles: 300099536 heartbeat IPC: 0.8935 cumulative IPC: 0.8997 (Simulation time: 00 hr 47 min 43 sec)
Heartbeat CPU 0 instructions: 280000044 cycles: 317527779 heartbeat IPC: 0.5738 cumulative IPC: 0.8818 (Simulation time: 00 hr 50 min 50 sec)
Heartbeat CPU 0 instructions: 290000047 cycles: 336217196 heartbeat IPC: 0.5351 cumulative IPC: 0.8625 (Simulation time: 00 hr 54 min 16 sec)
Heartbeat CPU 0 instructions: 300000048 cycles: 347842032 heartbeat IPC: 0.8602 cumulative IPC: 0.8625 (Simulation time: 00 hr 56 min 04 sec)
Heartbeat CPU 0 instructions: 310000049 cycles: 359316997 heartbeat IPC: 0.8715 cumulative IPC: 0.8627 (Simulation time: 00 hr 57 min 30 sec)
Heartbeat CPU 0 instructions: 320000049 cycles: 370817198 heartbeat IPC: 0.8696 cumulative IPC: 0.863 (Simulation time: 00 hr 59 min 07 sec)
Heartbeat CPU 0 instructions: 330000049 cycles: 382170862 heartbeat IPC: 0.8808 cumulative IPC: 0.8635 (Simulation time: 01 hr 00 min 53 sec)
Heartbeat CPU 0 instructions: 340000051 cycles: 393459302 heartbeat IPC: 0.8859 cumulative IPC: 0.8641 (Simulation time: 01 hr 02 min 39 sec)
Heartbeat CPU 0 instructions: 350000055 cycles: 404724244 heartbeat IPC: 0.8877 cumulative IPC: 0.8648 (Simulation time: 01 hr 04 min 25 sec)
Heartbeat CPU 0 instructions: 360000055 cycles: 416026680 heartbeat IPC: 0.8848 cumulative IPC: 0.8653 (Simulation time: 01 hr 06 min 11 sec)
Heartbeat CPU 0 instructions: 370000055 cycles: 427276599 heartbeat IPC: 0.8889 cumulative IPC: 0.8659 (Simulation time: 01 hr 07 min 58 sec)
Heartbeat CPU 0 instructions: 380000058 cycles: 438527149 heartbeat IPC: 0.8888 cumulative IPC: 0.8665 (Simulation time: 01 hr 09 min 40 sec)
Heartbeat CPU 0 instructions: 390000059 cycles: 449892128 heartbeat IPC: 0.8799 cumulative IPC: 0.8669 (Simulation time: 01 hr 11 min 18 sec)
Heartbeat CPU 0 instructions: 400000062 cycles: 461175862 heartbeat IPC: 0.8862 cumulative IPC: 0.8673 (Simulation time: 01 hr 13 min 03 sec)
Heartbeat CPU 0 instructions: 410000066 cycles: 472414319 heartbeat IPC: 0.8898 cumulative IPC: 0.8679 (Simulation time: 01 hr 14 min 43 sec)
Heartbeat CPU 0 instructions: 420000070 cycles: 483652098 heartbeat IPC: 0.8899 cumulative IPC: 0.8684 (Simulation time: 01 hr 16 min 27 sec)
Heartbeat CPU 0 instructions: 430000074 cycles: 494902261 heartbeat IPC: 0.8889 cumulative IPC: 0.8689 (Simulation time: 01 hr 18 min 17 sec)
Heartbeat CPU 0 instructions: 440000076 cycles: 506187801 heartbeat IPC: 0.8861 cumulative IPC: 0.8692 (Simulation time: 01 hr 20 min 06 sec)
Heartbeat CPU 0 instructions: 450000079 cycles: 517510171 heartbeat IPC: 0.8832 cumulative IPC: 0.8695 (Simulation time: 01 hr 21 min 56 sec)
Heartbeat CPU 0 instructions: 460000080 cycles: 528748315 heartbeat IPC: 0.8898 cumulative IPC: 0.87 (Simulation time: 01 hr 23 min 45 sec)
Heartbeat CPU 0 instructions: 470000081 cycles: 539978507 heartbeat IPC: 0.8905 cumulative IPC: 0.8704 (Simulation time: 01 hr 25 min 34 sec)
Heartbeat CPU 0 instructions: 480000084 cycles: 551214518 heartbeat IPC: 0.89 cumulative IPC: 0.8708 (Simulation time: 01 hr 27 min 23 sec)
Heartbeat CPU 0 instructions: 490000086 cycles: 562450735 heartbeat IPC: 0.89 cumulative IPC: 0.8712 (Simulation time: 01 hr 28 min 55 sec)
[ERROR_CYCLE] Error added at CPU cycle 570224455, next at 732264503, pending count: 1
[DRAM_CYCLE_ERROR] Cycle-based error applied! address=0x1796d08c48 additional_latency=1990500 cycles
Heartbeat CPU 0 instructions: 500000089 cycles: 573698342 heartbeat IPC: 0.8891 cumulative IPC: 0.8715 (Simulation time: 01 hr 30 min 44 sec)
Heartbeat CPU 0 instructions: 510000089 cycles: 584950761 heartbeat IPC: 0.8887 cumulative IPC: 0.8719 (Simulation time: 01 hr 32 min 23 sec)
Heartbeat CPU 0 instructions: 520000091 cycles: 596195127 heartbeat IPC: 0.8893 cumulative IPC: 0.8722 (Simulation time: 01 hr 34 min 07 sec)
Heartbeat CPU 0 instructions: 530000092 cycles: 607434961 heartbeat IPC: 0.8897 cumulative IPC: 0.8725 (Simulation time: 01 hr 35 min 41 sec)
Heartbeat CPU 0 instructions: 540000093 cycles: 618672816 heartbeat IPC: 0.8898 cumulative IPC: 0.8728 (Simulation time: 01 hr 37 min 25 sec)
Heartbeat CPU 0 instructions: 550000095 cycles: 630010172 heartbeat IPC: 0.882 cumulative IPC: 0.873 (Simulation time: 01 hr 39 min 02 sec)
Heartbeat CPU 0 instructions: 560000096 cycles: 641329905 heartbeat IPC: 0.8834 cumulative IPC: 0.8732 (Simulation time: 01 hr 40 min 51 sec)
Heartbeat CPU 0 instructions: 570000096 cycles: 652602776 heartbeat IPC: 0.8871 cumulative IPC: 0.8734 (Simulation time: 01 hr 42 min 39 sec)
Heartbeat CPU 0 instructions: 580000096 cycles: 663895373 heartbeat IPC: 0.8855 cumulative IPC: 0.8736 (Simulation time: 01 hr 44 min 28 sec)
Heartbeat CPU 0 instructions: 590000096 cycles: 675165610 heartbeat IPC: 0.8873 cumulative IPC: 0.8739 (Simulation time: 01 hr 45 min 59 sec)
Heartbeat CPU 0 instructions: 600000100 cycles: 686400342 heartbeat IPC: 0.8901 cumulative IPC: 0.8741 (Simulation time: 01 hr 47 min 37 sec)
Heartbeat CPU 0 instructions: 610000100 cycles: 697691114 heartbeat IPC: 0.8857 cumulative IPC: 0.8743 (Simulation time: 01 hr 49 min 22 sec)
Heartbeat CPU 0 instructions: 620000102 cycles: 709073679 heartbeat IPC: 0.8785 cumulative IPC: 0.8744 (Simulation time: 01 hr 51 min 01 sec)
Heartbeat CPU 0 instructions: 630000105 cycles: 720437455 heartbeat IPC: 0.88 cumulative IPC: 0.8745 (Simulation time: 01 hr 52 min 37 sec)
Heartbeat CPU 0 instructions: 640000106 cycles: 731801155 heartbeat IPC: 0.88 cumulative IPC: 0.8746 (Simulation time: 01 hr 54 min 19 sec)
[ERROR_CYCLE] Error added at CPU cycle 732264504, next at 2055685120, pending count: 1
[DRAM_CYCLE_ERROR] Cycle-based error applied! address=0x41063e6c0 additional_latency=1990500 cycles
Heartbeat CPU 0 instructions: 650000106 cycles: 743177756 heartbeat IPC: 0.879 cumulative IPC: 0.8746 (Simulation time: 01 hr 56 min 03 sec)
Heartbeat CPU 0 instructions: 660000107 cycles: 754498983 heartbeat IPC: 0.8833 cumulative IPC: 0.8748 (Simulation time: 01 hr 57 min 48 sec)
Heartbeat CPU 0 instructions: 670000108 cycles: 765866542 heartbeat IPC: 0.8797 cumulative IPC: 0.8748 (Simulation time: 01 hr 59 min 16 sec)
Heartbeat CPU 0 instructions: 680000110 cycles: 777371268 heartbeat IPC: 0.8692 cumulative IPC: 0.8747 (Simulation time: 02 hr 01 min 04 sec)
Heartbeat CPU 0 instructions: 690000110 cycles: 789149892 heartbeat IPC: 0.849 cumulative IPC: 0.8744 (Simulation time: 02 hr 02 min 55 sec)
Heartbeat CPU 0 instructions: 700000114 cycles: 800250136 heartbeat IPC: 0.9009 cumulative IPC: 0.8747 (Simulation time: 02 hr 04 min 40 sec)
Heartbeat CPU 0 instructions: 710000114 cycles: 811525120 heartbeat IPC: 0.8869 cumulative IPC: 0.8749 (Simulation time: 02 hr 06 min 27 sec)
Heartbeat CPU 0 instructions: 720000116 cycles: 822645105 heartbeat IPC: 0.8993 cumulative IPC: 0.8752 (Simulation time: 02 hr 08 min 13 sec)
Heartbeat CPU 0 instructions: 730000116 cycles: 833785006 heartbeat IPC: 0.8977 cumulative IPC: 0.8755 (Simulation time: 02 hr 10 min 00 sec)
Heartbeat CPU 0 instructions: 740000118 cycles: 844856806 heartbeat IPC: 0.9032 cumulative IPC: 0.8759 (Simulation time: 02 hr 11 min 19 sec)
Heartbeat CPU 0 instructions: 750000118 cycles: 855962317 heartbeat IPC: 0.9005 cumulative IPC: 0.8762 (Simulation time: 02 hr 12 min 47 sec)
Heartbeat CPU 0 instructions: 760000119 cycles: 867127159 heartbeat IPC: 0.8957 cumulative IPC: 0.8765 (Simulation time: 02 hr 14 min 37 sec)
Heartbeat CPU 0 instructions: 770000119 cycles: 878505660 heartbeat IPC: 0.8789 cumulative IPC: 0.8765 (Simulation time: 02 hr 16 min 26 sec)
Heartbeat CPU 0 instructions: 780000121 cycles: 890881468 heartbeat IPC: 0.808 cumulative IPC: 0.8755 (Simulation time: 02 hr 18 min 20 sec)
Heartbeat CPU 0 instructions: 790000123 cycles: 903293007 heartbeat IPC: 0.8057 cumulative IPC: 0.8746 (Simulation time: 02 hr 20 min 17 sec)
Heartbeat CPU 0 instructions: 800000127 cycles: 915608999 heartbeat IPC: 0.812 cumulative IPC: 0.8737 (Simulation time: 02 hr 22 min 14 sec)
Heartbeat CPU 0 instructions: 810000131 cycles: 927960230 heartbeat IPC: 0.8096 cumulative IPC: 0.8729 (Simulation time: 02 hr 24 min 11 sec)
Heartbeat CPU 0 instructions: 820000131 cycles: 939860497 heartbeat IPC: 0.8403 cumulative IPC: 0.8725 (Simulation time: 02 hr 26 min 04 sec)
Heartbeat CPU 0 instructions: 830000135 cycles: 951652833 heartbeat IPC: 0.848 cumulative IPC: 0.8722 (Simulation time: 02 hr 27 min 35 sec)
Heartbeat CPU 0 instructions: 840000137 cycles: 963535273 heartbeat IPC: 0.8416 cumulative IPC: 0.8718 (Simulation time: 02 hr 29 min 32 sec)
Heartbeat CPU 0 instructions: 850000140 cycles: 975363432 heartbeat IPC: 0.8454 cumulative IPC: 0.8715 (Simulation time: 02 hr 31 min 28 sec)
Heartbeat CPU 0 instructions: 860000144 cycles: 987495255 heartbeat IPC: 0.8243 cumulative IPC: 0.8709 (Simulation time: 02 hr 33 min 26 sec)
Heartbeat CPU 0 instructions: 870000145 cycles: 999820766 heartbeat IPC: 0.8113 cumulative IPC: 0.8702 (Simulation time: 02 hr 35 min 02 sec)
Heartbeat CPU 0 instructions: 880000147 cycles: 1012140439 heartbeat IPC: 0.8117 cumulative IPC: 0.8694 (Simulation time: 02 hr 36 min 59 sec)
Heartbeat CPU 0 instructions: 890000147 cycles: 1024473963 heartbeat IPC: 0.8108 cumulative IPC: 0.8687 (Simulation time: 02 hr 38 min 45 sec)
Heartbeat CPU 0 instructions: 900000150 cycles: 1036668848 heartbeat IPC: 0.82 cumulative IPC: 0.8682 (Simulation time: 02 hr 40 min 37 sec)
Heartbeat CPU 0 instructions: 910000151 cycles: 1048630080 heartbeat IPC: 0.836 cumulative IPC: 0.8678 (Simulation time: 02 hr 42 min 30 sec)
Heartbeat CPU 0 instructions: 920000151 cycles: 1060547106 heartbeat IPC: 0.8391 cumulative IPC: 0.8675 (Simulation time: 02 hr 44 min 06 sec)
Heartbeat CPU 0 instructions: 930000152 cycles: 1072373048 heartbeat IPC: 0.8456 cumulative IPC: 0.8672 (Simulation time: 02 hr 45 min 33 sec)
Heartbeat CPU 0 instructions: 940000153 cycles: 1084271883 heartbeat IPC: 0.8404 cumulative IPC: 0.8669 (Simulation time: 02 hr 47 min 20 sec)
Heartbeat CPU 0 instructions: 950000156 cycles: 1096664441 heartbeat IPC: 0.8069 cumulative IPC: 0.8663 (Simulation time: 02 hr 49 min 22 sec)
Heartbeat CPU 0 instructions: 960000158 cycles: 1109073830 heartbeat IPC: 0.8058 cumulative IPC: 0.8656 (Simulation time: 02 hr 50 min 49 sec)
Heartbeat CPU 0 instructions: 970000161 cycles: 1121419394 heartbeat IPC: 0.81 cumulative IPC: 0.865 (Simulation time: 02 hr 52 min 11 sec)
Heartbeat CPU 0 instructions: 980000162 cycles: 1133764113 heartbeat IPC: 0.8101 cumulative IPC: 0.8644 (Simulation time: 02 hr 53 min 57 sec)
Heartbeat CPU 0 instructions: 990000165 cycles: 1145698325 heartbeat IPC: 0.8379 cumulative IPC: 0.8641 (Simulation time: 02 hr 55 min 56 sec)
Heartbeat CPU 0 instructions: 1000000165 cycles: 1157543404 heartbeat IPC: 0.8442 cumulative IPC: 0.8639 (Simulation time: 02 hr 57 min 54 sec)
Heartbeat CPU 0 instructions: 1010000168 cycles: 1169407389 heartbeat IPC: 0.8429 cumulative IPC: 0.8637 (Simulation time: 02 hr 59 min 42 sec)
Heartbeat CPU 0 instructions: 1020000172 cycles: 1181231272 heartbeat IPC: 0.8457 cumulative IPC: 0.8635 (Simulation time: 03 hr 01 min 39 sec)
Heartbeat CPU 0 instructions: 1030000174 cycles: 1194914611 heartbeat IPC: 0.7308 cumulative IPC: 0.862 (Simulation time: 03 hr 03 min 50 sec)
Heartbeat CPU 0 instructions: 1040000174 cycles: 1207289074 heartbeat IPC: 0.8081 cumulative IPC: 0.8614 (Simulation time: 03 hr 05 min 51 sec)
Heartbeat CPU 0 instructions: 1050000175 cycles: 1219274333 heartbeat IPC: 0.8344 cumulative IPC: 0.8612 (Simulation time: 03 hr 07 min 30 sec)
Heartbeat CPU 0 instructions: 1060000175 cycles: 1231286088 heartbeat IPC: 0.8325 cumulative IPC: 0.8609 (Simulation time: 03 hr 08 min 59 sec)
Heartbeat CPU 0 instructions: 1070000176 cycles: 1243290713 heartbeat IPC: 0.833 cumulative IPC: 0.8606 (Simulation time: 03 hr 10 min 31 sec)
Heartbeat CPU 0 instructions: 1080000176 cycles: 1255117867 heartbeat IPC: 0.8455 cumulative IPC: 0.8605 (Simulation time: 03 hr 12 min 09 sec)
Heartbeat CPU 0 instructions: 1090000179 cycles: 1266793914 heartbeat IPC: 0.8565 cumulative IPC: 0.8604 (Simulation time: 03 hr 14 min 04 sec)
Heartbeat CPU 0 instructions: 1100000181 cycles: 1278419924 heartbeat IPC: 0.8601 cumulative IPC: 0.8604 (Simulation time: 03 hr 16 min 00 sec)
Heartbeat CPU 0 instructions: 1110000183 cycles: 1289907179 heartbeat IPC: 0.8705 cumulative IPC: 0.8605 (Simulation time: 03 hr 17 min 55 sec)
Heartbeat CPU 0 instructions: 1120000183 cycles: 1301422688 heartbeat IPC: 0.8684 cumulative IPC: 0.8606 (Simulation time: 03 hr 19 min 50 sec)
Heartbeat CPU 0 instructions: 1130000184 cycles: 1313483945 heartbeat IPC: 0.8291 cumulative IPC: 0.8603 (Simulation time: 03 hr 21 min 48 sec)
Heartbeat CPU 0 instructions: 1140000188 cycles: 1325522791 heartbeat IPC: 0.8306 cumulative IPC: 0.86 (Simulation time: 03 hr 23 min 43 sec)
Heartbeat CPU 0 instructions: 1150000188 cycles: 1337526841 heartbeat IPC: 0.8331 cumulative IPC: 0.8598 (Simulation time: 03 hr 25 min 28 sec)
Heartbeat CPU 0 instructions: 1160000191 cycles: 1349520256 heartbeat IPC: 0.8338 cumulative IPC: 0.8596 (Simulation time: 03 hr 27 min 23 sec)
Heartbeat CPU 0 instructions: 1170000194 cycles: 1361174150 heartbeat IPC: 0.8581 cumulative IPC: 0.8596 (Simulation time: 03 hr 29 min 16 sec)
Heartbeat CPU 0 instructions: 1180000194 cycles: 1372846765 heartbeat IPC: 0.8567 cumulative IPC: 0.8595 (Simulation time: 03 hr 31 min 09 sec)
Heartbeat CPU 0 instructions: 1190000198 cycles: 1384410430 heartbeat IPC: 0.8648 cumulative IPC: 0.8596 (Simulation time: 03 hr 33 min 01 sec)
Heartbeat CPU 0 instructions: 1200000201 cycles: 1395986514 heartbeat IPC: 0.8639 cumulative IPC: 0.8596 (Simulation time: 03 hr 34 min 18 sec)
Heartbeat CPU 0 instructions: 1210000203 cycles: 1407714940 heartbeat IPC: 0.8526 cumulative IPC: 0.8595 (Simulation time: 03 hr 35 min 35 sec)
Heartbeat CPU 0 instructions: 1220000205 cycles: 1419720986 heartbeat IPC: 0.8329 cumulative IPC: 0.8593 (Simulation time: 03 hr 36 min 53 sec)
Heartbeat CPU 0 instructions: 1230000206 cycles: 1431749530 heartbeat IPC: 0.8314 cumulative IPC: 0.8591 (Simulation time: 03 hr 38 min 15 sec)
Heartbeat CPU 0 instructions: 1240000208 cycles: 1443934752 heartbeat IPC: 0.8207 cumulative IPC: 0.8588 (Simulation time: 03 hr 39 min 36 sec)
Heartbeat CPU 0 instructions: 1250000210 cycles: 1456139101 heartbeat IPC: 0.8194 cumulative IPC: 0.8584 (Simulation time: 03 hr 40 min 53 sec)
Heartbeat CPU 0 instructions: 1260000210 cycles: 1467955084 heartbeat IPC: 0.8463 cumulative IPC: 0.8583 (Simulation time: 03 hr 42 min 08 sec)
Heartbeat CPU 0 instructions: 1270000214 cycles: 1479618976 heartbeat IPC: 0.8573 cumulative IPC: 0.8583 (Simulation time: 03 hr 43 min 58 sec)
Heartbeat CPU 0 instructions: 1280000216 cycles: 1491224435 heartbeat IPC: 0.8617 cumulative IPC: 0.8584 (Simulation time: 03 hr 45 min 55 sec)
Heartbeat CPU 0 instructions: 1290000217 cycles: 1502920228 heartbeat IPC: 0.855 cumulative IPC: 0.8583 (Simulation time: 03 hr 47 min 51 sec)
Heartbeat CPU 0 instructions: 1300000217 cycles: 1531067930 heartbeat IPC: 0.3553 cumulative IPC: 0.8491 (Simulation time: 03 hr 52 min 10 sec)
Heartbeat CPU 0 instructions: 1310000218 cycles: 1543733588 heartbeat IPC: 0.7895 cumulative IPC: 0.8486 (Simulation time: 03 hr 53 min 40 sec)
Heartbeat CPU 0 instructions: 1320000219 cycles: 1555738207 heartbeat IPC: 0.833 cumulative IPC: 0.8485 (Simulation time: 03 hr 54 min 54 sec)
Heartbeat CPU 0 instructions: 1330000219 cycles: 1567783566 heartbeat IPC: 0.8302 cumulative IPC: 0.8483 (Simulation time: 03 hr 56 min 05 sec)
Heartbeat CPU 0 instructions: 1340000219 cycles: 1579854844 heartbeat IPC: 0.8284 cumulative IPC: 0.8482 (Simulation time: 03 hr 57 min 23 sec)
Heartbeat CPU 0 instructions: 1350000220 cycles: 1592040542 heartbeat IPC: 0.8206 cumulative IPC: 0.848 (Simulation time: 03 hr 58 min 50 sec)
Heartbeat CPU 0 instructions: 1360000222 cycles: 1603841869 heartbeat IPC: 0.8474 cumulative IPC: 0.848 (Simulation time: 04 hr 00 min 31 sec)
Heartbeat CPU 0 instructions: 1370000222 cycles: 1615426795 heartbeat IPC: 0.8632 cumulative IPC: 0.8481 (Simulation time: 04 hr 02 min 04 sec)
Heartbeat CPU 0 instructions: 1380000223 cycles: 1627357661 heartbeat IPC: 0.8382 cumulative IPC: 0.848 (Simulation time: 04 hr 03 min 20 sec)
Heartbeat CPU 0 instructions: 1390000225 cycles: 1639322429 heartbeat IPC: 0.8358 cumulative IPC: 0.8479 (Simulation time: 04 hr 04 min 36 sec)
Heartbeat CPU 0 instructions: 1400000226 cycles: 1651408726 heartbeat IPC: 0.8274 cumulative IPC: 0.8478 (Simulation time: 04 hr 05 min 56 sec)
Heartbeat CPU 0 instructions: 1410000226 cycles: 1663746965 heartbeat IPC: 0.8105 cumulative IPC: 0.8475 (Simulation time: 04 hr 07 min 14 sec)
Heartbeat CPU 0 instructions: 1420000227 cycles: 1676223654 heartbeat IPC: 0.8015 cumulative IPC: 0.8471 (Simulation time: 04 hr 08 min 26 sec)
Heartbeat CPU 0 instructions: 1430000229 cycles: 1688509190 heartbeat IPC: 0.814 cumulative IPC: 0.8469 (Simulation time: 04 hr 09 min 39 sec)
Heartbeat CPU 0 instructions: 1440000229 cycles: 1700742028 heartbeat IPC: 0.8175 cumulative IPC: 0.8467 (Simulation time: 04 hr 10 min 50 sec)
Heartbeat CPU 0 instructions: 1450000233 cycles: 1712760537 heartbeat IPC: 0.8321 cumulative IPC: 0.8466 (Simulation time: 04 hr 12 min 05 sec)
Heartbeat CPU 0 instructions: 1460000237 cycles: 1724924674 heartbeat IPC: 0.8221 cumulative IPC: 0.8464 (Simulation time: 04 hr 13 min 16 sec)
Heartbeat CPU 0 instructions: 1470000241 cycles: 1737104647 heartbeat IPC: 0.821 cumulative IPC: 0.8462 (Simulation time: 04 hr 14 min 27 sec)
Heartbeat CPU 0 instructions: 1480000243 cycles: 1749161143 heartbeat IPC: 0.8294 cumulative IPC: 0.8461 (Simulation time: 04 hr 15 min 37 sec)
Heartbeat CPU 0 instructions: 1490000245 cycles: 1761104276 heartbeat IPC: 0.8373 cumulative IPC: 0.8461 (Simulation time: 04 hr 16 min 47 sec)
Heartbeat CPU 0 instructions: 1500000246 cycles: 1772690183 heartbeat IPC: 0.8631 cumulative IPC: 0.8462 (Simulation time: 04 hr 18 min 02 sec)
Heartbeat CPU 0 instructions: 1510000246 cycles: 1784476127 heartbeat IPC: 0.8485 cumulative IPC: 0.8462 (Simulation time: 04 hr 19 min 10 sec)
Heartbeat CPU 0 instructions: 1520000249 cycles: 1796402731 heartbeat IPC: 0.8385 cumulative IPC: 0.8461 (Simulation time: 04 hr 20 min 19 sec)
Heartbeat CPU 0 instructions: 1530000252 cycles: 1808264547 heartbeat IPC: 0.843 cumulative IPC: 0.8461 (Simulation time: 04 hr 21 min 27 sec)
Heartbeat CPU 0 instructions: 1540000256 cycles: 1820266193 heartbeat IPC: 0.8332 cumulative IPC: 0.846 (Simulation time: 04 hr 22 min 36 sec)
Heartbeat CPU 0 instructions: 1550000257 cycles: 1832844652 heartbeat IPC: 0.795 cumulative IPC: 0.8457 (Simulation time: 04 hr 23 min 47 sec)
Heartbeat CPU 0 instructions: 1560000257 cycles: 1845228724 heartbeat IPC: 0.8075 cumulative IPC: 0.8454 (Simulation time: 04 hr 24 min 57 sec)
Heartbeat CPU 0 instructions: 1570000258 cycles: 1857380627 heartbeat IPC: 0.8229 cumulative IPC: 0.8453 (Simulation time: 04 hr 26 min 06 sec)
Heartbeat CPU 0 instructions: 1580000261 cycles: 1869536129 heartbeat IPC: 0.8227 cumulative IPC: 0.8451 (Simulation time: 04 hr 27 min 15 sec)
Heartbeat CPU 0 instructions: 1590000265 cycles: 1881646468 heartbeat IPC: 0.8257 cumulative IPC: 0.845 (Simulation time: 04 hr 28 min 24 sec)
Heartbeat CPU 0 instructions: 1600000269 cycles: 1893636005 heartbeat IPC: 0.8341 cumulative IPC: 0.8449 (Simulation time: 04 hr 29 min 32 sec)
Heartbeat CPU 0 instructions: 1610000272 cycles: 1905644551 heartbeat IPC: 0.8327 cumulative IPC: 0.8449 (Simulation time: 04 hr 30 min 40 sec)
Heartbeat CPU 0 instructions: 1620000275 cycles: 1917727148 heartbeat IPC: 0.8276 cumulative IPC: 0.8448 (Simulation time: 04 hr 31 min 48 sec)
Heartbeat CPU 0 instructions: 1630000276 cycles: 1929354176 heartbeat IPC: 0.8601 cumulative IPC: 0.8448 (Simulation time: 04 hr 32 min 54 sec)
Heartbeat CPU 0 instructions: 1640000279 cycles: 1940959126 heartbeat IPC: 0.8617 cumulative IPC: 0.8449 (Simulation time: 04 hr 34 min 00 sec)
Heartbeat CPU 0 instructions: 1650000282 cycles: 1952988027 heartbeat IPC: 0.8313 cumulative IPC: 0.8449 (Simulation time: 04 hr 35 min 08 sec)
Heartbeat CPU 0 instructions: 1660000282 cycles: 1965042562 heartbeat IPC: 0.8296 cumulative IPC: 0.8448 (Simulation time: 04 hr 36 min 16 sec)
Heartbeat CPU 0 instructions: 1670000283 cycles: 1977106014 heartbeat IPC: 0.829 cumulative IPC: 0.8447 (Simulation time: 04 hr 37 min 25 sec)
Heartbeat CPU 0 instructions: 1680000284 cycles: 1989515658 heartbeat IPC: 0.8058 cumulative IPC: 0.8444 (Simulation time: 04 hr 38 min 33 sec)
Heartbeat CPU 0 instructions: 1690000284 cycles: 2002046104 heartbeat IPC: 0.7981 cumulative IPC: 0.8441 (Simulation time: 04 hr 39 min 42 sec)
Heartbeat CPU 0 instructions: 1700000284 cycles: 2014402921 heartbeat IPC: 0.8093 cumulative IPC: 0.8439 (Simulation time: 04 hr 40 min 51 sec)
Heartbeat CPU 0 instructions: 1710000286 cycles: 2026597937 heartbeat IPC: 0.82 cumulative IPC: 0.8438 (Simulation time: 04 hr 41 min 59 sec)
Heartbeat CPU 0 instructions: 1720000289 cycles: 2038703888 heartbeat IPC: 0.826 cumulative IPC: 0.8437 (Simulation time: 04 hr 43 min 07 sec)
Heartbeat CPU 0 instructions: 1730000292 cycles: 2050757788 heartbeat IPC: 0.8296 cumulative IPC: 0.8436 (Simulation time: 04 hr 44 min 14 sec)
[ERROR_CYCLE] Error added at CPU cycle 2055685121, next at 4277415174, pending count: 1
[DRAM_CYCLE_ERROR] Cycle-based error applied! address=0xa438f5fc8 additional_latency=1990500 cycles
Heartbeat CPU 0 instructions: 1740000295 cycles: 2062785042 heartbeat IPC: 0.8314 cumulative IPC: 0.8435 (Simulation time: 04 hr 45 min 22 sec)
Heartbeat CPU 0 instructions: 1750000297 cycles: 2074807944 heartbeat IPC: 0.8317 cumulative IPC: 0.8435 (Simulation time: 04 hr 46 min 29 sec)
Heartbeat CPU 0 instructions: 1760000300 cycles: 2086681533 heartbeat IPC: 0.8422 cumulative IPC: 0.8434 (Simulation time: 04 hr 47 min 36 sec)
Heartbeat CPU 0 instructions: 1770000300 cycles: 2098243894 heartbeat IPC: 0.8649 cumulative IPC: 0.8436 (Simulation time: 04 hr 48 min 41 sec)
Heartbeat CPU 0 instructions: 1780000300 cycles: 2110109360 heartbeat IPC: 0.8428 cumulative IPC: 0.8436 (Simulation time: 04 hr 49 min 47 sec)
Heartbeat CPU 0 instructions: 1790000300 cycles: 2122140927 heartbeat IPC: 0.8311 cumulative IPC: 0.8435 (Simulation time: 04 hr 50 min 54 sec)
Heartbeat CPU 0 instructions: 1800000304 cycles: 2133965582 heartbeat IPC: 0.8457 cumulative IPC: 0.8435 (Simulation time: 04 hr 52 min 00 sec)
Heartbeat CPU 0 instructions: 1810000307 cycles: 2146111621 heartbeat IPC: 0.8233 cumulative IPC: 0.8434 (Simulation time: 04 hr 53 min 06 sec)
Heartbeat CPU 0 instructions: 1820000310 cycles: 2158593536 heartbeat IPC: 0.8012 cumulative IPC: 0.8431 (Simulation time: 04 hr 54 min 15 sec)
Heartbeat CPU 0 instructions: 1830000312 cycles: 2170947397 heartbeat IPC: 0.8095 cumulative IPC: 0.843 (Simulation time: 04 hr 55 min 22 sec)
Heartbeat CPU 0 instructions: 1840000315 cycles: 2183277071 heartbeat IPC: 0.8111 cumulative IPC: 0.8428 (Simulation time: 04 hr 56 min 30 sec)
Heartbeat CPU 0 instructions: 1850000317 cycles: 2195293730 heartbeat IPC: 0.8322 cumulative IPC: 0.8427 (Simulation time: 04 hr 57 min 36 sec)
Heartbeat CPU 0 instructions: 1860000320 cycles: 2207303191 heartbeat IPC: 0.8327 cumulative IPC: 0.8427 (Simulation time: 04 hr 58 min 41 sec)
Heartbeat CPU 0 instructions: 1870000321 cycles: 2219303244 heartbeat IPC: 0.8333 cumulative IPC: 0.8426 (Simulation time: 04 hr 59 min 47 sec)
Heartbeat CPU 0 instructions: 1880000325 cycles: 2231389623 heartbeat IPC: 0.8274 cumulative IPC: 0.8425 (Simulation time: 05 hr 00 min 53 sec)
Heartbeat CPU 0 instructions: 1890000327 cycles: 2243496731 heartbeat IPC: 0.826 cumulative IPC: 0.8424 (Simulation time: 05 hr 01 min 59 sec)
Heartbeat CPU 0 instructions: 1900000327 cycles: 2255079207 heartbeat IPC: 0.8634 cumulative IPC: 0.8425 (Simulation time: 05 hr 03 min 02 sec)
Heartbeat CPU 0 instructions: 1910000328 cycles: 2266757985 heartbeat IPC: 0.8563 cumulative IPC: 0.8426 (Simulation time: 05 hr 04 min 05 sec)
Heartbeat CPU 0 instructions: 1920000329 cycles: 2278743934 heartbeat IPC: 0.8343 cumulative IPC: 0.8426 (Simulation time: 05 hr 05 min 11 sec)
Heartbeat CPU 0 instructions: 1930000332 cycles: 2290779607 heartbeat IPC: 0.8309 cumulative IPC: 0.8425 (Simulation time: 05 hr 06 min 19 sec)
Heartbeat CPU 0 instructions: 1940000336 cycles: 2302688683 heartbeat IPC: 0.8397 cumulative IPC: 0.8425 (Simulation time: 05 hr 07 min 24 sec)
Heartbeat CPU 0 instructions: 1950000337 cycles: 2315254664 heartbeat IPC: 0.7958 cumulative IPC: 0.8422 (Simulation time: 05 hr 08 min 31 sec)
Heartbeat CPU 0 instructions: 1960000339 cycles: 2327824245 heartbeat IPC: 0.7956 cumulative IPC: 0.842 (Simulation time: 05 hr 09 min 37 sec)
Heartbeat CPU 0 instructions: 1970000339 cycles: 2340196942 heartbeat IPC: 0.8082 cumulative IPC: 0.8418 (Simulation time: 05 hr 10 min 43 sec)
Heartbeat CPU 0 instructions: 1980000340 cycles: 2352249564 heartbeat IPC: 0.8297 cumulative IPC: 0.8417 (Simulation time: 05 hr 11 min 48 sec)
Heartbeat CPU 0 instructions: 1990000344 cycles: 2364353462 heartbeat IPC: 0.8262 cumulative IPC: 0.8417 (Simulation time: 05 hr 12 min 56 sec)

=== ERROR PAGE STATISTICS ===
Mode: CYCLE
Error Cycle Interval: 800000000 CPU cycles
Total Error Accesses: 3
==============================
Simulation finished CPU 0 instructions: 1999999509 cycles: 2376511725 cumulative IPC: 0.8416 (Simulation time: 05 hr 14 min 02 sec)
Simulation complete CPU 0 instructions: 1999999509 cycles: 2376511725 cumulative IPC: 0.8416 (Simulation time: 05 hr 14 min 02 sec)

ChampSim completed all CPUs

=== Simulation ===
CPU 0 runs test_traces/649.fotonik3d_s-10881B.champsimtrace.xz

Region of Interest Statistics

CPU 0 cumulative IPC: 0.8416 instructions: 1999999509 cycles: 2376511725
CPU 0 Branch Prediction Accuracy: 97.24% MPKI: 0.2738 Average ROB Occupancy at Mispredict: 264.7
Branch type MPKI
BRANCH_DIRECT_JUMP: 5.5e-06
BRANCH_INDIRECT: 0
BRANCH_CONDITIONAL: 0.2738
BRANCH_DIRECT_CALL: 5e-07
BRANCH_INDIRECT_CALL: 0
BRANCH_RETURN: 5e-07

cpu0->cpu0_STLB TOTAL        ACCESS:       9681 HIT:       6303 MISS:       3378 MSHR_MERGE:          0
cpu0->cpu0_STLB LOAD         ACCESS:       9681 HIT:       6303 MISS:       3378 MSHR_MERGE:          0
cpu0->cpu0_STLB RFO          ACCESS:          0 HIT:          0 MISS:          0 MSHR_MERGE:          0
cpu0->cpu0_STLB PREFETCH     ACCESS:          0 HIT:          0 MISS:          0 MSHR_MERGE:          0
cpu0->cpu0_STLB WRITE        ACCESS:          0 HIT:          0 MISS:          0 MSHR_MERGE:          0
cpu0->cpu0_STLB TRANSLATION  ACCESS:          0 HIT:          0 MISS:          0 MSHR_MERGE:          0
cpu0->cpu0_STLB PREFETCH REQUESTED:          0 ISSUED:          0 USEFUL:          0 USELESS:          0
cpu0->cpu0_STLB AVERAGE MISS LATENCY: 5137 cycles
cpu0->cpu0_L2C TOTAL        ACCESS:   51671878 HIT:   16905990 MISS:   34765888 MSHR_MERGE:          0
cpu0->cpu0_L2C LOAD         ACCESS:   36315899 HIT:    1550597 MISS:   34765302 MSHR_MERGE:          0
cpu0->cpu0_L2C RFO          ACCESS:       2034 HIT:       1985 MISS:         49 MSHR_MERGE:          0
cpu0->cpu0_L2C PREFETCH     ACCESS:          0 HIT:          0 MISS:          0 MSHR_MERGE:          0
cpu0->cpu0_L2C WRITE        ACCESS:   15353945 HIT:   15353408 MISS:        537 MSHR_MERGE:          0
cpu0->cpu0_L2C TRANSLATION  ACCESS:          0 HIT:          0 MISS:          0 MSHR_MERGE:          0
cpu0->cpu0_L2C PREFETCH REQUESTED:          0 ISSUED:          0 USEFUL:          0 USELESS:          0
cpu0->cpu0_L2C AVERAGE MISS LATENCY: 116 cycles
cpu0->cpu0_L1I TOTAL        ACCESS:  493790822 HIT:  493789873 MISS:        949 MSHR_MERGE:        410
cpu0->cpu0_L1I LOAD         ACCESS:  493790822 HIT:  493789873 MISS:        949 MSHR_MERGE:        410
cpu0->cpu0_L1I RFO          ACCESS:          0 HIT:          0 MISS:          0 MSHR_MERGE:          0
cpu0->cpu0_L1I PREFETCH     ACCESS:          0 HIT:          0 MISS:          0 MSHR_MERGE:          0
cpu0->cpu0_L1I WRITE        ACCESS:          0 HIT:          0 MISS:          0 MSHR_MERGE:          0
cpu0->cpu0_L1I TRANSLATION  ACCESS:          0 HIT:          0 MISS:          0 MSHR_MERGE:          0
cpu0->cpu0_L1I PREFETCH REQUESTED:          0 ISSUED:          0 USEFUL:          0 USELESS:          0
cpu0->cpu0_L1I AVERAGE MISS LATENCY: 148.2 cycles
cpu0->cpu0_L1D TOTAL        ACCESS:  962436242 HIT:  917638968 MISS:   44797274 MSHR_MERGE:    8479865
cpu0->cpu0_L1D LOAD         ACCESS:  844798800 HIT:  800005189 MISS:   44793611 MSHR_MERGE:    8478250
cpu0->cpu0_L1D RFO          ACCESS:          0 HIT:          0 MISS:          0 MSHR_MERGE:          0
cpu0->cpu0_L1D PREFETCH     ACCESS:          0 HIT:          0 MISS:          0 MSHR_MERGE:          0
cpu0->cpu0_L1D WRITE        ACCESS:  117637442 HIT:  117633779 MISS:       3663 MSHR_MERGE:       1615
cpu0->cpu0_L1D TRANSLATION  ACCESS:          0 HIT:          0 MISS:          0 MSHR_MERGE:          0
cpu0->cpu0_L1D PREFETCH REQUESTED:          0 ISSUED:          0 USEFUL:          0 USELESS:          0
cpu0->cpu0_L1D AVERAGE MISS LATENCY: 120 cycles
cpu0->cpu0_ITLB TOTAL        ACCESS:  425524868 HIT:  425524862 MISS:          6 MSHR_MERGE:          5
cpu0->cpu0_ITLB LOAD         ACCESS:  425524868 HIT:  425524862 MISS:          6 MSHR_MERGE:          5
cpu0->cpu0_ITLB RFO          ACCESS:          0 HIT:          0 MISS:          0 MSHR_MERGE:          0
cpu0->cpu0_ITLB PREFETCH     ACCESS:          0 HIT:          0 MISS:          0 MSHR_MERGE:          0
cpu0->cpu0_ITLB WRITE        ACCESS:          0 HIT:          0 MISS:          0 MSHR_MERGE:          0
cpu0->cpu0_ITLB TRANSLATION  ACCESS:          0 HIT:          0 MISS:          0 MSHR_MERGE:          0
cpu0->cpu0_ITLB PREFETCH REQUESTED:          0 ISSUED:          0 USEFUL:          0 USELESS:          0
cpu0->cpu0_ITLB AVERAGE MISS LATENCY: 1.722e+04 cycles
cpu0->cpu0_DTLB TOTAL        ACCESS:  877887108 HIT:  877874678 MISS:      12430 MSHR_MERGE:       2750
cpu0->cpu0_DTLB LOAD         ACCESS:  877887108 HIT:  877874678 MISS:      12430 MSHR_MERGE:       2750
cpu0->cpu0_DTLB RFO          ACCESS:          0 HIT:          0 MISS:          0 MSHR_MERGE:          0
cpu0->cpu0_DTLB PREFETCH     ACCESS:          0 HIT:          0 MISS:          0 MSHR_MERGE:          0
cpu0->cpu0_DTLB WRITE        ACCESS:          0 HIT:          0 MISS:          0 MSHR_MERGE:          0
cpu0->cpu0_DTLB TRANSLATION  ACCESS:          0 HIT:          0 MISS:          0 MSHR_MERGE:          0
cpu0->cpu0_DTLB PREFETCH REQUESTED:          0 ISSUED:          0 USEFUL:          0 USELESS:          0
cpu0->cpu0_DTLB AVERAGE MISS LATENCY: 1796 cycles
cpu0->LLC TOTAL        ACCESS:   50113121 HIT:   17950297 MISS:   32162824 MSHR_MERGE:          0
cpu0->LLC LOAD         ACCESS:   34765302 HIT:    2602847 MISS:   32162455 MSHR_MERGE:          0
cpu0->LLC RFO          ACCESS:         49 HIT:         26 MISS:         23 MSHR_MERGE:          0
cpu0->LLC PREFETCH     ACCESS:          0 HIT:          0 MISS:          0 MSHR_MERGE:          0
cpu0->LLC WRITE        ACCESS:   15347770 HIT:   15347424 MISS:        346 MSHR_MERGE:          0
cpu0->LLC TRANSLATION  ACCESS:          0 HIT:          0 MISS:          0 MSHR_MERGE:          0
cpu0->LLC PREFETCH REQUESTED:          0 ISSUED:          0 USEFUL:          0 USELESS:          0
cpu0->LLC AVERAGE MISS LATENCY: 108.1 cycles

DRAM Statistics

Channel 0 RQ ROW_BUFFER_HIT:     250175
  ROW_BUFFER_MISS:   15834149
  AVG DBUS CONGESTED CYCLE: 11.53
Channel 0 WQ ROW_BUFFER_HIT:    1795193
  ROW_BUFFER_MISS:    5874598
  FULL:          0
Channel 0 REFRESHES ISSUED:     198029

Channel 1 RQ ROW_BUFFER_HIT:     250394
  ROW_BUFFER_MISS:   15834389
  AVG DBUS CONGESTED CYCLE: 11.53
Channel 1 WQ ROW_BUFFER_HIT:    1795335
  ROW_BUFFER_MISS:    5874338
  FULL:          0
Channel 1 REFRESHES ISSUED:     198029
