
*** ChampSim Multicore Out-of-Order Simulator ***
Warmup Instructions: 0
Simulation Instructions: 9223372036854775807
Number of CPUs: 1
Page size: 2097152

Off-chip DRAM Size: 128 GiB Channels: 2 Width: 32-bit Data Rate: 4807 MT/s
[ERROR_PAGE_MANAGER] Error latency: 1990500 
[ERROR_PAGE_MANAGER] Random seed: 54321 (fixed for preload reproducibility)
[ERROR_PAGE_MANAGER] Cycle-based error modeling enabled
[ERROR_PAGE_MANAGER] Errors per interval: 1
[ERROR_PAGE_MANAGER] Error cycle interval: 8000000 cycles

=== ERROR PAGE STATISTICS ===
Mode: CYCLE
Error Cycle Interval: 8000000 CPU cycles
Total Error Accesses: 0
==============================
Warmup finished CPU 0 instructions: 0 cycles: 1 cumulative IPC: 0 (Simulation time: 00 hr 00 min 00 sec)
Warmup complete CPU 0 instructions: 0 cycles: 1 cumulative IPC: 0 (Simulation time: 00 hr 00 min 00 sec)
[ERROR_CYCLE] Error added at CPU cycle 5702245, next at 7322645, pending count: 1
[DRAM_CYCLE_ERROR] Cycle-based error applied! address=0xee7de70c0 additional_latency=1990500 cycles
[ERROR_CYCLE] Error added at CPU cycle 7322646, next at 20556852, pending count: 1
[DRAM_CYCLE_ERROR] Cycle-based error applied! address=0x613e0fec0 additional_latency=1990500 cycles
Heartbeat CPU 0 instructions: 10000003 cycles: 8731676 heartbeat IPC: 1.145 cumulative IPC: 1.145 (Simulation time: 00 hr 01 min 21 sec)
Heartbeat CPU 0 instructions: 20000006 cycles: 19031317 heartbeat IPC: 0.9709 cumulative IPC: 1.051 (Simulation time: 00 hr 02 min 51 sec)
[ERROR_CYCLE] Error added at CPU cycle 20556852, next at 42774152, pending count: 1
[DRAM_CYCLE_ERROR] Cycle-based error applied! address=0x145cfcab94 additional_latency=1990500 cycles
Heartbeat CPU 0 instructions: 30000006 cycles: 30926703 heartbeat IPC: 0.8407 cumulative IPC: 0.97 (Simulation time: 00 hr 04 min 31 sec)
[ERROR_CYCLE] Error added at CPU cycle 42774153, next at 43014581, pending count: 1
[DRAM_CYCLE_ERROR] Cycle-based error applied! address=0x94c2b2ce4 additional_latency=1990500 cycles
[ERROR_CYCLE] Error added at CPU cycle 43014581, next at 55310914, pending count: 1
[DRAM_CYCLE_ERROR] Cycle-based error applied! address=0x94c2c53c4 additional_latency=1990500 cycles
Heartbeat CPU 0 instructions: 40000008 cycles: 46519250 heartbeat IPC: 0.6413 cumulative IPC: 0.8599 (Simulation time: 00 hr 06 min 57 sec)
[ERROR_CYCLE] Error added at CPU cycle 55310914, next at 56742755, pending count: 1
[DRAM_CYCLE_ERROR] Cycle-based error applied! address=0x1a67272e28 additional_latency=1990500 cycles
[ERROR_CYCLE] Error added at CPU cycle 56742756, next at 61293938, pending count: 1
[DRAM_CYCLE_ERROR] Cycle-based error applied! address=0x145cea39e8 additional_latency=1990500 cycles
Heartbeat CPU 0 instructions: 50000009 cycles: 56999903 heartbeat IPC: 0.9541 cumulative IPC: 0.8772 (Simulation time: 00 hr 08 min 30 sec)
[ERROR_CYCLE] Error added at CPU cycle 61293939, next at 68125490, pending count: 1
[DRAM_CYCLE_ERROR] Cycle-based error applied! address=0x1ec256f0c4 additional_latency=1990500 cycles
[ERROR_CYCLE] Error added at CPU cycle 68125491, next at 70082703, pending count: 1
[DRAM_CYCLE_ERROR] Cycle-based error applied! address=0x1b92da89a8 additional_latency=1990500 cycles
Heartbeat CPU 0 instructions: 60000012 cycles: 68423846 heartbeat IPC: 0.8754 cumulative IPC: 0.8769 (Simulation time: 00 hr 10 min 06 sec)
[ERROR_CYCLE] Error added at CPU cycle 70082704, next at 84290367, pending count: 1
[DRAM_CYCLE_ERROR] Cycle-based error applied! address=0x1efac3e580 additional_latency=1990500 cycles
Heartbeat CPU 0 instructions: 70000016 cycles: 82634131 heartbeat IPC: 0.7037 cumulative IPC: 0.8471 (Simulation time: 00 hr 12 min 09 sec)
[ERROR_CYCLE] Error added at CPU cycle 84290367, next at 87138513, pending count: 1
[DRAM_CYCLE_ERROR] Cycle-based error applied! address=0x1e0051af40 additional_latency=1990500 cycles
[ERROR_CYCLE] Error added at CPU cycle 87138513, next at 90719201, pending count: 1
[DRAM_CYCLE_ERROR] Cycle-based error applied! address=0x18611f96e8 additional_latency=1990500 cycles
[ERROR_CYCLE] Error added at CPU cycle 90719201, next at 107001469, pending count: 1
[DRAM_CYCLE_ERROR] Cycle-based error applied! address=0x1fada5dc08 additional_latency=1990500 cycles
Heartbeat CPU 0 instructions: 80000017 cycles: 93910526 heartbeat IPC: 0.8868 cumulative IPC: 0.8519 (Simulation time: 00 hr 13 min 42 sec)
Heartbeat CPU 0 instructions: 90000020 cycles: 105957220 heartbeat IPC: 0.8301 cumulative IPC: 0.8494 (Simulation time: 00 hr 15 min 24 sec)
[ERROR_CYCLE] Error added at CPU cycle 107001469, next at 107099488, pending count: 1
[DRAM_CYCLE_ERROR] Cycle-based error applied! address=0x1b92df23c8 additional_latency=1990500 cycles
[ERROR_CYCLE] Error added at CPU cycle 107099489, next at 116099092, pending count: 1
[DRAM_CYCLE_ERROR] Cycle-based error applied! address=0x613e932c8 additional_latency=1990500 cycles
[ERROR_CYCLE] Error added at CPU cycle 116099092, next at 121349692, pending count: 1
[DRAM_CYCLE_ERROR] Cycle-based error applied! address=0x8d63f9404 additional_latency=1990500 cycles
[ERROR_CYCLE] Error added at CPU cycle 121349692, next at 151621187, pending count: 1
[DRAM_CYCLE_ERROR] Cycle-based error applied! address=0x613e674c4 additional_latency=1990500 cycles
Heartbeat CPU 0 instructions: 100000021 cycles: 123036474 heartbeat IPC: 0.5855 cumulative IPC: 0.8128 (Simulation time: 00 hr 17 min 46 sec)
Heartbeat CPU 0 instructions: 110000024 cycles: 128929973 heartbeat IPC: 1.697 cumulative IPC: 0.8532 (Simulation time: 00 hr 18 min 46 sec)
Heartbeat CPU 0 instructions: 120000024 cycles: 136070564 heartbeat IPC: 1.4 cumulative IPC: 0.8819 (Simulation time: 00 hr 19 min 58 sec)
Heartbeat CPU 0 instructions: 130000026 cycles: 141706479 heartbeat IPC: 1.774 cumulative IPC: 0.9174 (Simulation time: 00 hr 20 min 55 sec)
Heartbeat CPU 0 instructions: 140000028 cycles: 149282868 heartbeat IPC: 1.32 cumulative IPC: 0.9378 (Simulation time: 00 hr 22 min 08 sec)
[ERROR_CYCLE] Error added at CPU cycle 151621187, next at 153516742, pending count: 1
[DRAM_CYCLE_ERROR] Cycle-based error applied! address=0x112c58c5c0 additional_latency=1990500 cycles
[ERROR_CYCLE] Error added at CPU cycle 153516742, next at 155437621, pending count: 1
[DRAM_CYCLE_ERROR] Cycle-based error applied! address=0xee7cc79c8 additional_latency=1990500 cycles
Heartbeat CPU 0 instructions: 150000029 cycles: 154998868 heartbeat IPC: 1.749 cumulative IPC: 0.9677 (Simulation time: 00 hr 23 min 06 sec)
[ERROR_CYCLE] Error added at CPU cycle 155437621, next at 178495226, pending count: 1
[DRAM_CYCLE_ERROR] Cycle-based error applied! address=0x182e81c3c4 additional_latency=1990500 cycles
Heartbeat CPU 0 instructions: 160000032 cycles: 162030177 heartbeat IPC: 1.422 cumulative IPC: 0.9875 (Simulation time: 00 hr 24 min 13 sec)
Heartbeat CPU 0 instructions: 170000035 cycles: 169065358 heartbeat IPC: 1.421 cumulative IPC: 1.006 (Simulation time: 00 hr 25 min 23 sec)
Heartbeat CPU 0 instructions: 180000037 cycles: 174749088 heartbeat IPC: 1.759 cumulative IPC: 1.03 (Simulation time: 00 hr 26 min 21 sec)
[ERROR_CYCLE] Error added at CPU cycle 178495226, next at 181653365, pending count: 1
[DRAM_CYCLE_ERROR] Cycle-based error applied! address=0x1e0047c944 additional_latency=1990500 cycles
[ERROR_CYCLE] Error added at CPU cycle 181653365, next at 215877191, pending count: 1
[DRAM_CYCLE_ERROR] Cycle-based error applied! address=0x103d3e5354 additional_latency=1990500 cycles
Heartbeat CPU 0 instructions: 190000038 cycles: 182803864 heartbeat IPC: 1.241 cumulative IPC: 1.039 (Simulation time: 00 hr 27 min 37 sec)
Heartbeat CPU 0 instructions: 200000039 cycles: 189145889 heartbeat IPC: 1.577 cumulative IPC: 1.057 (Simulation time: 00 hr 28 min 41 sec)
Heartbeat CPU 0 instructions: 210000039 cycles: 195493185 heartbeat IPC: 1.575 cumulative IPC: 1.074 (Simulation time: 00 hr 29 min 45 sec)
Heartbeat CPU 0 instructions: 220000040 cycles: 201903861 heartbeat IPC: 1.56 cumulative IPC: 1.09 (Simulation time: 00 hr 30 min 50 sec)
Heartbeat CPU 0 instructions: 230000041 cycles: 214146652 heartbeat IPC: 0.8168 cumulative IPC: 1.074 (Simulation time: 00 hr 32 min 34 sec)
[ERROR_CYCLE] Error added at CPU cycle 215877191, next at 220477735, pending count: 1
[DRAM_CYCLE_ERROR] Cycle-based error applied! address=0x1ef4e69304 additional_latency=1990500 cycles
[ERROR_CYCLE] Error added at CPU cycle 220477735, next at 247385306, pending count: 1
[DRAM_CYCLE_ERROR] Cycle-based error applied! address=0x1e00410364 additional_latency=1990500 cycles
Heartbeat CPU 0 instructions: 240000043 cycles: 226362651 heartbeat IPC: 0.8186 cumulative IPC: 1.06 (Simulation time: 00 hr 34 min 22 sec)
Heartbeat CPU 0 instructions: 250000043 cycles: 232126860 heartbeat IPC: 1.735 cumulative IPC: 1.077 (Simulation time: 00 hr 35 min 22 sec)
Heartbeat CPU 0 instructions: 260000045 cycles: 238523166 heartbeat IPC: 1.563 cumulative IPC: 1.09 (Simulation time: 00 hr 36 min 26 sec)
Heartbeat CPU 0 instructions: 270000046 cycles: 244541559 heartbeat IPC: 1.662 cumulative IPC: 1.104 (Simulation time: 00 hr 37 min 28 sec)
[ERROR_CYCLE] Error added at CPU cycle 247385307, next at 249771807, pending count: 1
[DRAM_CYCLE_ERROR] Cycle-based error applied! address=0x112c5dc5c0 additional_latency=1990500 cycles
[ERROR_CYCLE] Error added at CPU cycle 249771808, next at 261187612, pending count: 1
[DRAM_CYCLE_ERROR] Cycle-based error applied! address=0xee7dc0ac0 additional_latency=1990500 cycles
Heartbeat CPU 0 instructions: 280000049 cycles: 250114601 heartbeat IPC: 1.794 cumulative IPC: 1.119 (Simulation time: 00 hr 38 min 26 sec)
Heartbeat CPU 0 instructions: 290000052 cycles: 256315653 heartbeat IPC: 1.613 cumulative IPC: 1.131 (Simulation time: 00 hr 39 min 28 sec)
[ERROR_CYCLE] Error added at CPU cycle 261187613, next at 262895406, pending count: 1
[DRAM_CYCLE_ERROR] Cycle-based error applied! address=0x1ec256f008 additional_latency=1990500 cycles
[ERROR_CYCLE] Error added at CPU cycle 262895406, next at 265556270, pending count: 1
[DRAM_CYCLE_ERROR] Cycle-based error applied! address=0x613e89184 additional_latency=1990500 cycles
Heartbeat CPU 0 instructions: 300000054 cycles: 263900856 heartbeat IPC: 1.318 cumulative IPC: 1.137 (Simulation time: 00 hr 40 min 37 sec)
[ERROR_CYCLE] Error added at CPU cycle 265556270, next at 277297613, pending count: 1
[DRAM_CYCLE_ERROR] Cycle-based error applied! address=0xabcd27142 additional_latency=1990500 cycles
Heartbeat CPU 0 instructions: 310000054 cycles: 275573720 heartbeat IPC: 0.8567 cumulative IPC: 1.125 (Simulation time: 00 hr 42 min 18 sec)
[ERROR_CYCLE] Error added at CPU cycle 277297614, next at 277363337, pending count: 1
[DRAM_CYCLE_ERROR] Cycle-based error applied! address=0x112c4afb88 additional_latency=1990500 cycles
[ERROR_CYCLE] Error added at CPU cycle 277363337, next at 280844445, pending count: 1
[DRAM_CYCLE_ERROR] Cycle-based error applied! address=0x1ef4eeabc4 additional_latency=1990500 cycles
[ERROR_CYCLE] Error added at CPU cycle 280844445, next at 282972414, pending count: 1
[DRAM_CYCLE_ERROR] Cycle-based error applied! address=0x1a6728c264 additional_latency=1990500 cycles
[ERROR_CYCLE] Error added at CPU cycle 282972415, next at 286862856, pending count: 1
[DRAM_CYCLE_ERROR] Cycle-based error applied! address=0x613e195c0 additional_latency=1990500 cycles
Heartbeat CPU 0 instructions: 320000057 cycles: 284193585 heartbeat IPC: 1.16 cumulative IPC: 1.126 (Simulation time: 00 hr 43 min 39 sec)
[ERROR_CYCLE] Error added at CPU cycle 286862857, next at 287787267, pending count: 1
[DRAM_CYCLE_ERROR] Cycle-based error applied! address=0x145ceb6d04 additional_latency=1990500 cycles
[ERROR_CYCLE] Error added at CPU cycle 287787267, next at 291972450, pending count: 1
[DRAM_CYCLE_ERROR] Cycle-based error applied! address=0x1b92da7944 additional_latency=1990500 cycles
[ERROR_CYCLE] Error added at CPU cycle 291972450, next at 296131102, pending count: 1
[DRAM_CYCLE_ERROR] Cycle-based error applied! address=0x15b516228c additional_latency=1990500 cycles
Heartbeat CPU 0 instructions: 330000059 cycles: 294807968 heartbeat IPC: 0.9421 cumulative IPC: 1.119 (Simulation time: 00 hr 45 min 12 sec)
[ERROR_CYCLE] Error added at CPU cycle 296131102, next at 307889350, pending count: 1
[DRAM_CYCLE_ERROR] Cycle-based error applied! address=0x112c5d7604 additional_latency=1990500 cycles
Heartbeat CPU 0 instructions: 340000061 cycles: 306846166 heartbeat IPC: 0.8307 cumulative IPC: 1.108 (Simulation time: 00 hr 46 min 54 sec)
[ERROR_CYCLE] Error added at CPU cycle 307889350, next at 322644041, pending count: 1
[DRAM_CYCLE_ERROR] Cycle-based error applied! address=0x18f9361ec0 additional_latency=1990500 cycles
[ERROR_CYCLE] Error added at CPU cycle 322644042, next at 326639280, pending count: 1
[DRAM_CYCLE_ERROR] Cycle-based error applied! address=0x72acf9a80 additional_latency=1990500 cycles
Heartbeat CPU 0 instructions: 350000062 cycles: 322649537 heartbeat IPC: 0.6328 cumulative IPC: 1.085 (Simulation time: 00 hr 49 min 21 sec)
[ERROR_CYCLE] Error added at CPU cycle 326639281, next at 331663090, pending count: 1
[DRAM_CYCLE_ERROR] Cycle-based error applied! address=0x1fada33588 additional_latency=1990500 cycles
[ERROR_CYCLE] Error added at CPU cycle 331663090, next at 332541815, pending count: 1
[DRAM_CYCLE_ERROR] Cycle-based error applied! address=0x13b43efb48 additional_latency=1990500 cycles
[ERROR_CYCLE] Error added at CPU cycle 332541815, next at 334235178, pending count: 1
[DRAM_CYCLE_ERROR] Cycle-based error applied! address=0x145ce95a84 additional_latency=1990500 cycles
Heartbeat CPU 0 instructions: 360000064 cycles: 333708145 heartbeat IPC: 0.9043 cumulative IPC: 1.079 (Simulation time: 00 hr 50 min 56 sec)
[ERROR_CYCLE] Error added at CPU cycle 334235178, next at 343169730, pending count: 1
[DRAM_CYCLE_ERROR] Cycle-based error applied! address=0x1a6727fed8 additional_latency=1990500 cycles
[ERROR_CYCLE] Error added at CPU cycle 343169730, next at 348318977, pending count: 1
[DRAM_CYCLE_ERROR] Cycle-based error applied! address=0xad0af78c8 additional_latency=1990500 cycles
Heartbeat CPU 0 instructions: 370000064 cycles: 345402742 heartbeat IPC: 0.8551 cumulative IPC: 1.071 (Simulation time: 00 hr 52 min 34 sec)
[ERROR_CYCLE] Error added at CPU cycle 348318978, next at 361256443, pending count: 1
[DRAM_CYCLE_ERROR] Cycle-based error applied! address=0x1b92dd6708 additional_latency=1990500 cycles
Heartbeat CPU 0 instructions: 380000065 cycles: 359876727 heartbeat IPC: 0.6909 cumulative IPC: 1.056 (Simulation time: 00 hr 54 min 39 sec)
[ERROR_CYCLE] Error added at CPU cycle 361256443, next at 363532948, pending count: 1
[DRAM_CYCLE_ERROR] Cycle-based error applied! address=0x1e00572ca4 additional_latency=1990500 cycles
[ERROR_CYCLE] Error added at CPU cycle 363532948, next at 374354625, pending count: 1
[DRAM_CYCLE_ERROR] Cycle-based error applied! address=0x18611e9b48 additional_latency=1990500 cycles
Heartbeat CPU 0 instructions: 390000065 cycles: 371640779 heartbeat IPC: 0.85 cumulative IPC: 1.049 (Simulation time: 00 hr 56 min 15 sec)
[ERROR_CYCLE] Error added at CPU cycle 374354626, next at 383320275, pending count: 1
[DRAM_CYCLE_ERROR] Cycle-based error applied! address=0x613e11640 additional_latency=1990500 cycles
[ERROR_CYCLE] Error added at CPU cycle 383320276, next at 391855039, pending count: 1
[DRAM_CYCLE_ERROR] Cycle-based error applied! address=0xdafd2fb68 additional_latency=1990500 cycles
Heartbeat CPU 0 instructions: 400000065 cycles: 383990620 heartbeat IPC: 0.8097 cumulative IPC: 1.042 (Simulation time: 00 hr 57 min 58 sec)
[ERROR_CYCLE] Error added at CPU cycle 391855040, next at 393759507, pending count: 1
[DRAM_CYCLE_ERROR] Cycle-based error applied! address=0x1e00547844 additional_latency=1990500 cycles
[ERROR_CYCLE] Error added at CPU cycle 393759508, next at 400884047, pending count: 1
[DRAM_CYCLE_ERROR] Cycle-based error applied! address=0x1fada13ac8 additional_latency=1990500 cycles
Heartbeat CPU 0 instructions: 410000068 cycles: 398128116 heartbeat IPC: 0.7073 cumulative IPC: 1.03 (Simulation time: 00 hr 59 min 56 sec)
[ERROR_CYCLE] Error added at CPU cycle 400884047, next at 413131147, pending count: 1
[DRAM_CYCLE_ERROR] Cycle-based error applied! address=0x1a67251888 additional_latency=1990500 cycles
Heartbeat CPU 0 instructions: 420000071 cycles: 409834893 heartbeat IPC: 0.8542 cumulative IPC: 1.025 (Simulation time: 01 hr 01 min 35 sec)
[ERROR_CYCLE] Error added at CPU cycle 413131147, next at 418606511, pending count: 1
[DRAM_CYCLE_ERROR] Cycle-based error applied! address=0x18f92d7fc8 additional_latency=1990500 cycles
[ERROR_CYCLE] Error added at CPU cycle 418606511, next at 419456417, pending count: 1
[DRAM_CYCLE_ERROR] Cycle-based error applied! address=0xad0b1a898 additional_latency=1990500 cycles
[ERROR_CYCLE] Error added at CPU cycle 419456417, next at 436337035, pending count: 1
[DRAM_CYCLE_ERROR] Cycle-based error applied! address=0x18f9304c08 additional_latency=1990500 cycles
Heartbeat CPU 0 instructions: 430000073 cycles: 423934522 heartbeat IPC: 0.7092 cumulative IPC: 1.014 (Simulation time: 01 hr 03 min 31 sec)
[ERROR_CYCLE] Error added at CPU cycle 436337035, next at 444009234, pending count: 1
[DRAM_CYCLE_ERROR] Cycle-based error applied! address=0x1fada5eed8 additional_latency=1990500 cycles
Heartbeat CPU 0 instructions: 440000075 cycles: 437168889 heartbeat IPC: 0.7556 cumulative IPC: 1.006 (Simulation time: 01 hr 05 min 22 sec)
[ERROR_CYCLE] Error added at CPU cycle 444009235, next at 453365678, pending count: 1
[DRAM_CYCLE_ERROR] Cycle-based error applied! address=0xad0afd7c0 additional_latency=1990500 cycles
Heartbeat CPU 0 instructions: 450000079 cycles: 448817987 heartbeat IPC: 0.8584 cumulative IPC: 1.003 (Simulation time: 01 hr 06 min 52 sec)
[ERROR_CYCLE] Error added at CPU cycle 453365679, next at 481867585, pending count: 1
[DRAM_CYCLE_ERROR] Cycle-based error applied! address=0x613e974c8 additional_latency=1990500 cycles
Heartbeat CPU 0 instructions: 460000080 cycles: 464301893 heartbeat IPC: 0.6458 cumulative IPC: 0.9907 (Simulation time: 01 hr 08 min 17 sec)
Heartbeat CPU 0 instructions: 470000080 cycles: 481090673 heartbeat IPC: 0.5956 cumulative IPC: 0.9769 (Simulation time: 01 hr 09 min 48 sec)
[ERROR_CYCLE] Error added at CPU cycle 481867586, next at 486241351, pending count: 1
[DRAM_CYCLE_ERROR] Cycle-based error applied! address=0x8d6291f00 additional_latency=1990500 cycles
[ERROR_CYCLE] Error added at CPU cycle 486241352, next at 486834828, pending count: 1
[DRAM_CYCLE_ERROR] Cycle-based error applied! address=0xc45522540 additional_latency=1990500 cycles
[ERROR_CYCLE] Error added at CPU cycle 486834829, next at 488524067, pending count: 1
[DRAM_CYCLE_ERROR] Cycle-based error applied! address=0xc454c7780 additional_latency=1990500 cycles
Heartbeat CPU 0 instructions: 480000081 cycles: 487095673 heartbeat IPC: 1.665 cumulative IPC: 0.9854 (Simulation time: 01 hr 10 min 33 sec)
[ERROR_CYCLE] Error added at CPU cycle 488524067, next at 490575473, pending count: 1
[DRAM_CYCLE_ERROR] Cycle-based error applied! address=0xc454e93c0 additional_latency=1990500 cycles
[ERROR_CYCLE] Error added at CPU cycle 490575473, next at 490984732, pending count: 1
[DRAM_CYCLE_ERROR] Cycle-based error applied! address=0xc4550d780 additional_latency=1990500 cycles
[ERROR_CYCLE] Error added at CPU cycle 490984732, next at 492549221, pending count: 1
[DRAM_CYCLE_ERROR] Cycle-based error applied! address=0x15b51686c0 additional_latency=1990500 cycles
[ERROR_CYCLE] Error added at CPU cycle 492549221, next at 499064308, pending count: 1
[DRAM_CYCLE_ERROR] Cycle-based error applied! address=0x15b5119bc0 additional_latency=1990500 cycles
Heartbeat CPU 0 instructions: 490000085 cycles: 494350362 heartbeat IPC: 1.378 cumulative IPC: 0.9912 (Simulation time: 01 hr 11 min 37 sec)
[ERROR_CYCLE] Error added at CPU cycle 499064309, next at 524403665, pending count: 1
[DRAM_CYCLE_ERROR] Cycle-based error applied! address=0x1b8682f040 additional_latency=1990500 cycles
Heartbeat CPU 0 instructions: 500000085 cycles: 503186676 heartbeat IPC: 1.132 cumulative IPC: 0.9937 (Simulation time: 01 hr 12 min 46 sec)
Heartbeat CPU 0 instructions: 510000085 cycles: 514136007 heartbeat IPC: 0.9133 cumulative IPC: 0.992 (Simulation time: 01 hr 13 min 54 sec)
Heartbeat CPU 0 instructions: 520000087 cycles: 520237407 heartbeat IPC: 1.639 cumulative IPC: 0.9995 (Simulation time: 01 hr 14 min 45 sec)
[ERROR_CYCLE] Error added at CPU cycle 524403666, next at 548237136, pending count: 1
[DRAM_CYCLE_ERROR] Cycle-based error applied! address=0xc45528c40 additional_latency=1990500 cycles
Heartbeat CPU 0 instructions: 530000091 cycles: 527558233 heartbeat IPC: 1.366 cumulative IPC: 1.005 (Simulation time: 01 hr 15 min 41 sec)
Heartbeat CPU 0 instructions: 540000092 cycles: 537160179 heartbeat IPC: 1.041 cumulative IPC: 1.005 (Simulation time: 01 hr 16 min 51 sec)
[ERROR_CYCLE] Error added at CPU cycle 548237136, next at 553653883, pending count: 1
[DRAM_CYCLE_ERROR] Cycle-based error applied! address=0xc454451d0 additional_latency=1990500 cycles
Heartbeat CPU 0 instructions: 550000092 cycles: 548498567 heartbeat IPC: 0.882 cumulative IPC: 1.003 (Simulation time: 01 hr 17 min 56 sec)
[ERROR_CYCLE] Error added at CPU cycle 553653884, next at 554848685, pending count: 1
[DRAM_CYCLE_ERROR] Cycle-based error applied! address=0x66874af0c additional_latency=1990500 cycles
Heartbeat CPU 0 instructions: 560000093 cycles: 554666435 heartbeat IPC: 1.621 cumulative IPC: 1.01 (Simulation time: 01 hr 18 min 45 sec)
[ERROR_CYCLE] Error added at CPU cycle 554848686, next at 557254087, pending count: 1
[DRAM_CYCLE_ERROR] Cycle-based error applied! address=0xc39ec1540 additional_latency=1990500 cycles
[ERROR_CYCLE] Error added at CPU cycle 557254087, next at 564098204, pending count: 1
[DRAM_CYCLE_ERROR] Cycle-based error applied! address=0xc39ec3110 additional_latency=1990500 cycles
Heartbeat CPU 0 instructions: 570000093 cycles: 562002311 heartbeat IPC: 1.363 cumulative IPC: 1.014 (Simulation time: 01 hr 19 min 39 sec)
[ERROR_CYCLE] Error added at CPU cycle 564098204, next at 598036750, pending count: 1
[DRAM_CYCLE_ERROR] Cycle-based error applied! address=0x66879d9c0 additional_latency=1990500 cycles
Heartbeat CPU 0 instructions: 580000093 cycles: 571602945 heartbeat IPC: 1.042 cumulative IPC: 1.015 (Simulation time: 01 hr 20 min 45 sec)
Heartbeat CPU 0 instructions: 590000093 cycles: 582610351 heartbeat IPC: 0.9085 cumulative IPC: 1.013 (Simulation time: 01 hr 21 min 57 sec)
Heartbeat CPU 0 instructions: 600000094 cycles: 588822521 heartbeat IPC: 1.61 cumulative IPC: 1.019 (Simulation time: 01 hr 22 min 55 sec)
Heartbeat CPU 0 instructions: 610000094 cycles: 596221487 heartbeat IPC: 1.352 cumulative IPC: 1.023 (Simulation time: 01 hr 23 min 51 sec)
[ERROR_CYCLE] Error added at CPU cycle 598036751, next at 598935337, pending count: 1
[DRAM_CYCLE_ERROR] Cycle-based error applied! address=0x182e8df540 additional_latency=1990500 cycles
[ERROR_CYCLE] Error added at CPU cycle 598935337, next at 604015587, pending count: 1
[DRAM_CYCLE_ERROR] Cycle-based error applied! address=0x182e8f3d00 additional_latency=1990500 cycles
[ERROR_CYCLE] Error added at CPU cycle 604015587, next at 604397660, pending count: 1
[DRAM_CYCLE_ERROR] Cycle-based error applied! address=0xc45593800 additional_latency=1990500 cycles
[ERROR_CYCLE] Error added at CPU cycle 604397660, next at 607018469, pending count: 1
[DRAM_CYCLE_ERROR] Cycle-based error applied! address=0xc455a6900 additional_latency=1990500 cycles
Heartbeat CPU 0 instructions: 620000094 cycles: 606165722 heartbeat IPC: 1.006 cumulative IPC: 1.023 (Simulation time: 01 hr 25 min 10 sec)
[ERROR_CYCLE] Error added at CPU cycle 607018470, next at 614345951, pending count: 1
[DRAM_CYCLE_ERROR] Cycle-based error applied! address=0x1b8681c140 additional_latency=1990500 cycles
[ERROR_CYCLE] Error added at CPU cycle 614345951, next at 614441836, pending count: 1
[DRAM_CYCLE_ERROR] Cycle-based error applied! address=0x8d6290684 additional_latency=1990500 cycles
[ERROR_CYCLE] Error added at CPU cycle 614441837, next at 614480051, pending count: 1
[DRAM_CYCLE_ERROR] Cycle-based error applied! address=0x8d62b27c4 additional_latency=1990500 cycles
[ERROR_CYCLE] Error added at CPU cycle 614480051, next at 614611983, pending count: 1
[DRAM_CYCLE_ERROR] Cycle-based error applied! address=0x8d62bfd04 additional_latency=1990500 cycles
[ERROR_CYCLE] Error added at CPU cycle 614611983, next at 618781457, pending count: 1
[DRAM_CYCLE_ERROR] Cycle-based error applied! address=0x8d62b1804 additional_latency=1990500 cycles
Heartbeat CPU 0 instructions: 630000097 cycles: 617274287 heartbeat IPC: 0.9002 cumulative IPC: 1.021 (Simulation time: 01 hr 26 min 44 sec)
[ERROR_CYCLE] Error added at CPU cycle 618781458, next at 620327032, pending count: 1
[DRAM_CYCLE_ERROR] Cycle-based error applied! address=0x145cf483c0 additional_latency=1990500 cycles
[ERROR_CYCLE] Error added at CPU cycle 620327032, next at 621182048, pending count: 1
[DRAM_CYCLE_ERROR] Cycle-based error applied! address=0xc45488c80 additional_latency=1990500 cycles
[ERROR_CYCLE] Error added at CPU cycle 621182049, next at 625644245, pending count: 1
[DRAM_CYCLE_ERROR] Cycle-based error applied! address=0xc4551f740 additional_latency=1990500 cycles
Heartbeat CPU 0 instructions: 640000097 cycles: 623514075 heartbeat IPC: 1.603 cumulative IPC: 1.026 (Simulation time: 01 hr 27 min 51 sec)
[ERROR_CYCLE] Error added at CPU cycle 625644246, next at 634692953, pending count: 1
[DRAM_CYCLE_ERROR] Cycle-based error applied! address=0xc39ec3110 additional_latency=1990500 cycles
Heartbeat CPU 0 instructions: 650000097 cycles: 630950070 heartbeat IPC: 1.345 cumulative IPC: 1.03 (Simulation time: 01 hr 28 min 51 sec)
[ERROR_CYCLE] Error added at CPU cycle 634692953, next at 640590896, pending count: 1
[DRAM_CYCLE_ERROR] Cycle-based error applied! address=0xc455d6080 additional_latency=1990500 cycles
[ERROR_CYCLE] Error added at CPU cycle 640590897, next at 643762779, pending count: 1
[DRAM_CYCLE_ERROR] Cycle-based error applied! address=0x15b51f4180 additional_latency=1990500 cycles
Heartbeat CPU 0 instructions: 660000098 cycles: 640940560 heartbeat IPC: 1.001 cumulative IPC: 1.03 (Simulation time: 01 hr 29 min 47 sec)
[ERROR_CYCLE] Error added at CPU cycle 643762780, next at 650107287, pending count: 1
[DRAM_CYCLE_ERROR] Cycle-based error applied! address=0xc455d308c additional_latency=1990500 cycles
[ERROR_CYCLE] Error added at CPU cycle 650107288, next at 660201622, pending count: 1
[DRAM_CYCLE_ERROR] Cycle-based error applied! address=0xdafd5c564 additional_latency=1990500 cycles
Heartbeat CPU 0 instructions: 670000098 cycles: 652719218 heartbeat IPC: 0.849 cumulative IPC: 1.026 (Simulation time: 01 hr 30 min 50 sec)
Heartbeat CPU 0 instructions: 680000100 cycles: 659059511 heartbeat IPC: 1.577 cumulative IPC: 1.032 (Simulation time: 01 hr 31 min 32 sec)
[ERROR_CYCLE] Error added at CPU cycle 660201622, next at 664349972, pending count: 1
[DRAM_CYCLE_ERROR] Cycle-based error applied! address=0x1e00558b44 additional_latency=1990500 cycles
[ERROR_CYCLE] Error added at CPU cycle 664349973, next at 671148112, pending count: 1
[DRAM_CYCLE_ERROR] Cycle-based error applied! address=0x1e00572640 additional_latency=1990500 cycles
Heartbeat CPU 0 instructions: 690000101 cycles: 665415989 heartbeat IPC: 1.573 cumulative IPC: 1.037 (Simulation time: 01 hr 32 min 34 sec)
[ERROR_CYCLE] Error added at CPU cycle 671148112, next at 689443322, pending count: 1
[DRAM_CYCLE_ERROR] Cycle-based error applied! address=0x1e0059c880 additional_latency=1990500 cycles
Heartbeat CPU 0 instructions: 700000102 cycles: 671774465 heartbeat IPC: 1.573 cumulative IPC: 1.042 (Simulation time: 01 hr 33 min 38 sec)
Heartbeat CPU 0 instructions: 710000102 cycles: 678992689 heartbeat IPC: 1.385 cumulative IPC: 1.046 (Simulation time: 01 hr 34 min 38 sec)
Heartbeat CPU 0 instructions: 720000103 cycles: 685867080 heartbeat IPC: 1.455 cumulative IPC: 1.05 (Simulation time: 01 hr 35 min 24 sec)
[ERROR_CYCLE] Error added at CPU cycle 689443322, next at 691311391, pending count: 1
[DRAM_CYCLE_ERROR] Cycle-based error applied! address=0x103d246480 additional_latency=1990500 cycles
[ERROR_CYCLE] Error added at CPU cycle 691311392, next at 706435840, pending count: 1
[DRAM_CYCLE_ERROR] Cycle-based error applied! address=0x103d250c40 additional_latency=1990500 cycles
Heartbeat CPU 0 instructions: 730000104 cycles: 692754472 heartbeat IPC: 1.452 cumulative IPC: 1.054 (Simulation time: 01 hr 36 min 21 sec)
Heartbeat CPU 0 instructions: 740000105 cycles: 700550412 heartbeat IPC: 1.283 cumulative IPC: 1.056 (Simulation time: 01 hr 37 min 17 sec)
[ERROR_CYCLE] Error added at CPU cycle 706435841, next at 708373709, pending count: 1
[DRAM_CYCLE_ERROR] Cycle-based error applied! address=0xc39f78f18 additional_latency=1990500 cycles
Heartbeat CPU 0 instructions: 750000105 cycles: 708248414 heartbeat IPC: 1.299 cumulative IPC: 1.059 (Simulation time: 01 hr 38 min 03 sec)
[ERROR_CYCLE] Error added at CPU cycle 708373709, next at 709740849, pending count: 1
[DRAM_CYCLE_ERROR] Cycle-based error applied! address=0x1008f448a8 additional_latency=1990500 cycles
[ERROR_CYCLE] Error added at CPU cycle 709740849, next at 713146632, pending count: 1
[DRAM_CYCLE_ERROR] Cycle-based error applied! address=0x127a5cdd40 additional_latency=1990500 cycles
[ERROR_CYCLE] Error added at CPU cycle 713146633, next at 728113647, pending count: 1
[DRAM_CYCLE_ERROR] Cycle-based error applied! address=0x1008f46d68 additional_latency=1990500 cycles
Heartbeat CPU 0 instructions: 760000105 cycles: 716062290 heartbeat IPC: 1.28 cumulative IPC: 1.061 (Simulation time: 01 hr 38 min 56 sec)
Heartbeat CPU 0 instructions: 770000105 cycles: 723826977 heartbeat IPC: 1.288 cumulative IPC: 1.064 (Simulation time: 01 hr 39 min 45 sec)
[ERROR_CYCLE] Error added at CPU cycle 728113647, next at 729964738, pending count: 1
[DRAM_CYCLE_ERROR] Cycle-based error applied! address=0xc39f79464 additional_latency=1990500 cycles
[ERROR_CYCLE] Error added at CPU cycle 729964738, next at 736361994, pending count: 1
[DRAM_CYCLE_ERROR] Cycle-based error applied! address=0x7d76b6c28 additional_latency=1990500 cycles
Heartbeat CPU 0 instructions: 780000105 cycles: 731618301 heartbeat IPC: 1.283 cumulative IPC: 1.066 (Simulation time: 01 hr 40 min 26 sec)
[ERROR_CYCLE] Error added at CPU cycle 736361994, next at 740287178, pending count: 1
[DRAM_CYCLE_ERROR] Cycle-based error applied! address=0xc39f7974c additional_latency=1990500 cycles
Heartbeat CPU 0 instructions: 790000105 cycles: 739500957 heartbeat IPC: 1.269 cumulative IPC: 1.068 (Simulation time: 01 hr 41 min 11 sec)
[ERROR_CYCLE] Error added at CPU cycle 740287179, next at 742566863, pending count: 1
[DRAM_CYCLE_ERROR] Cycle-based error applied! address=0x1008f52528 additional_latency=1990500 cycles
[ERROR_CYCLE] Error added at CPU cycle 742566864, next at 748440995, pending count: 1
[DRAM_CYCLE_ERROR] Cycle-based error applied! address=0xc39f79880 additional_latency=1990500 cycles
Heartbeat CPU 0 instructions: 800000107 cycles: 747267506 heartbeat IPC: 1.288 cumulative IPC: 1.071 (Simulation time: 01 hr 41 min 50 sec)
[ERROR_CYCLE] Error added at CPU cycle 748440995, next at 752222168, pending count: 1
[DRAM_CYCLE_ERROR] Cycle-based error applied! address=0xc39f799f4 additional_latency=1990500 cycles
[ERROR_CYCLE] Error added at CPU cycle 752222169, next at 753089532, pending count: 1
[ERROR_CYCLE] Error added at CPU cycle 753089532, next at 755305368, pending count: 2
[DRAM_CYCLE_ERROR] Cycle-based error applied! address=0xc39f79b44 additional_latency=1990500 cycles
[DRAM_CYCLE_ERROR] Cycle-based error applied! address=0xc39fa9454 additional_latency=1990500 cycles
Heartbeat CPU 0 instructions: 810000108 cycles: 755107431 heartbeat IPC: 1.276 cumulative IPC: 1.073 (Simulation time: 01 hr 42 min 29 sec)
[ERROR_CYCLE] Error added at CPU cycle 755305368, next at 772665000, pending count: 1
[DRAM_CYCLE_ERROR] Cycle-based error applied! address=0x1008f59368 additional_latency=1990500 cycles
Heartbeat CPU 0 instructions: 820000108 cycles: 763038997 heartbeat IPC: 1.261 cumulative IPC: 1.075 (Simulation time: 01 hr 43 min 09 sec)
Heartbeat CPU 0 instructions: 830000109 cycles: 770691375 heartbeat IPC: 1.307 cumulative IPC: 1.077 (Simulation time: 01 hr 43 min 47 sec)
[ERROR_CYCLE] Error added at CPU cycle 772665001, next at 782584091, pending count: 1
[DRAM_CYCLE_ERROR] Cycle-based error applied! address=0x94c224e28 additional_latency=1990500 cycles
Heartbeat CPU 0 instructions: 840000109 cycles: 778750087 heartbeat IPC: 1.241 cumulative IPC: 1.079 (Simulation time: 01 hr 44 min 27 sec)
[ERROR_CYCLE] Error added at CPU cycle 782584092, next at 796276792, pending count: 1
[DRAM_CYCLE_ERROR] Cycle-based error applied! address=0x7d76cdba8 additional_latency=1990500 cycles
Heartbeat CPU 0 instructions: 850000111 cycles: 786482020 heartbeat IPC: 1.293 cumulative IPC: 1.081 (Simulation time: 01 hr 45 min 06 sec)
Heartbeat CPU 0 instructions: 860000115 cycles: 794549280 heartbeat IPC: 1.24 cumulative IPC: 1.082 (Simulation time: 01 hr 45 min 53 sec)
[ERROR_CYCLE] Error added at CPU cycle 796276792, next at 801187692, pending count: 1
[DRAM_CYCLE_ERROR] Cycle-based error applied! address=0xc39f7a5bc additional_latency=1990500 cycles
[ERROR_CYCLE] Error added at CPU cycle 801187692, next at 808777645, pending count: 1
[DRAM_CYCLE_ERROR] Cycle-based error applied! address=0x127a5f6300 additional_latency=1990500 cycles
Heartbeat CPU 0 instructions: 870000115 cycles: 802336947 heartbeat IPC: 1.284 cumulative IPC: 1.084 (Simulation time: 01 hr 46 min 32 sec)
[ERROR_CYCLE] Error added at CPU cycle 808777645, next at 810760668, pending count: 1
[DRAM_CYCLE_ERROR] Cycle-based error applied! address=0xc39f7a860 additional_latency=1990500 cycles
Heartbeat CPU 0 instructions: 880000118 cycles: 810322943 heartbeat IPC: 1.252 cumulative IPC: 1.086 (Simulation time: 01 hr 47 min 16 sec)
[ERROR_CYCLE] Error added at CPU cycle 810760669, next at 822280300, pending count: 1
[DRAM_CYCLE_ERROR] Cycle-based error applied! address=0x7d76d9368 additional_latency=1990500 cycles
Heartbeat CPU 0 instructions: 890000118 cycles: 818377231 heartbeat IPC: 1.242 cumulative IPC: 1.088 (Simulation time: 01 hr 47 min 56 sec)
[ERROR_CYCLE] Error added at CPU cycle 822280301, next at 832288151, pending count: 1
[DRAM_CYCLE_ERROR] Cycle-based error applied! address=0x7d76ddce8 additional_latency=1990500 cycles
Heartbeat CPU 0 instructions: 900000118 cycles: 826119679 heartbeat IPC: 1.292 cumulative IPC: 1.089 (Simulation time: 01 hr 48 min 35 sec)
[ERROR_CYCLE] Error added at CPU cycle 832288151, next at 838593573, pending count: 1
[DRAM_CYCLE_ERROR] Cycle-based error applied! address=0xc39f7ada4 additional_latency=1990500 cycles
Heartbeat CPU 0 instructions: 910000118 cycles: 834458751 heartbeat IPC: 1.199 cumulative IPC: 1.091 (Simulation time: 01 hr 49 min 15 sec)
[ERROR_CYCLE] Error added at CPU cycle 838593573, next at 846086183, pending count: 1
[DRAM_CYCLE_ERROR] Cycle-based error applied! address=0xc39f7aef0 additional_latency=1990500 cycles
Heartbeat CPU 0 instructions: 920000118 cycles: 842378650 heartbeat IPC: 1.263 cumulative IPC: 1.092 (Simulation time: 01 hr 49 min 55 sec)
[ERROR_CYCLE] Error added at CPU cycle 846086184, next at 862431645, pending count: 1
[DRAM_CYCLE_ERROR] Cycle-based error applied! address=0x1008f7df68 additional_latency=1990500 cycles
Heartbeat CPU 0 instructions: 930000121 cycles: 850368427 heartbeat IPC: 1.252 cumulative IPC: 1.094 (Simulation time: 01 hr 50 min 35 sec)
Heartbeat CPU 0 instructions: 940000124 cycles: 858436748 heartbeat IPC: 1.239 cumulative IPC: 1.095 (Simulation time: 01 hr 51 min 15 sec)
[ERROR_CYCLE] Error added at CPU cycle 862431646, next at 874582316, pending count: 1
[DRAM_CYCLE_ERROR] Cycle-based error applied! address=0x7d76ede28 additional_latency=1990500 cycles
Heartbeat CPU 0 instructions: 950000124 cycles: 866283078 heartbeat IPC: 1.274 cumulative IPC: 1.097 (Simulation time: 01 hr 51 min 54 sec)
Heartbeat CPU 0 instructions: 960000124 cycles: 874433874 heartbeat IPC: 1.227 cumulative IPC: 1.098 (Simulation time: 01 hr 52 min 34 sec)
[ERROR_CYCLE] Error added at CPU cycle 874582317, next at 876300437, pending count: 1
[DRAM_CYCLE_ERROR] Cycle-based error applied! address=0x7d76f27a8 additional_latency=1990500 cycles
[ERROR_CYCLE] Error added at CPU cycle 876300437, next at 881443625, pending count: 1
[DRAM_CYCLE_ERROR] Cycle-based error applied! address=0xc39f7b828 additional_latency=1990500 cycles
[ERROR_CYCLE] Error added at CPU cycle 881443625, next at 885663751, pending count: 1
Heartbeat CPU 0 instructions: 970000124 cycles: 882253871 heartbeat IPC: 1.279 cumulative IPC: 1.099 (Simulation time: 01 hr 53 min 13 sec)
[DRAM_CYCLE_ERROR] Cycle-based error applied! address=0xc39f7b97c additional_latency=1990500 cycles
[ERROR_CYCLE] Error added at CPU cycle 885663752, next at 892255045, pending count: 1
[DRAM_CYCLE_ERROR] Cycle-based error applied! address=0x1008f8e0a8 additional_latency=1990500 cycles
Heartbeat CPU 0 instructions: 980000124 cycles: 890514638 heartbeat IPC: 1.211 cumulative IPC: 1.1 (Simulation time: 01 hr 54 min 06 sec)
[ERROR_CYCLE] Error added at CPU cycle 892255045, next at 908006563, pending count: 1
[DRAM_CYCLE_ERROR] Cycle-based error applied! address=0xc39f7bc1c additional_latency=1990500 cycles
Heartbeat CPU 0 instructions: 990000125 cycles: 898257858 heartbeat IPC: 1.291 cumulative IPC: 1.102 (Simulation time: 01 hr 54 min 53 sec)
Heartbeat CPU 0 instructions: 1000000128 cycles: 906491502 heartbeat IPC: 1.215 cumulative IPC: 1.103 (Simulation time: 01 hr 55 min 35 sec)
[ERROR_CYCLE] Error added at CPU cycle 908006564, next at 912786163, pending count: 1
[DRAM_CYCLE_ERROR] Cycle-based error applied! address=0xc39f7c014 additional_latency=1990500 cycles
[ERROR_CYCLE] Error added at CPU cycle 912786163, next at 923266667, pending count: 1
Heartbeat CPU 0 instructions: 1010000128 cycles: 914184411 heartbeat IPC: 1.3 cumulative IPC: 1.105 (Simulation time: 01 hr 56 min 20 sec)
[DRAM_CYCLE_ERROR] Cycle-based error applied! address=0xc39f7c168 additional_latency=1990500 cycles
Heartbeat CPU 0 instructions: 1020000128 cycles: 922321694 heartbeat IPC: 1.229 cumulative IPC: 1.106 (Simulation time: 01 hr 57 min 09 sec)
[ERROR_CYCLE] Error added at CPU cycle 923266667, next at 924053485, pending count: 1
[ERROR_CYCLE] Error added at CPU cycle 924053485, next at 931344785, pending count: 2
[DRAM_CYCLE_ERROR] Cycle-based error applied! address=0xc39f7c3d8 additional_latency=1990500 cycles
[DRAM_CYCLE_ERROR] Cycle-based error applied! address=0xc39fabce8 additional_latency=1990500 cycles
Heartbeat CPU 0 instructions: 1030000128 cycles: 930208373 heartbeat IPC: 1.268 cumulative IPC: 1.107 (Simulation time: 01 hr 57 min 54 sec)
[ERROR_CYCLE] Error added at CPU cycle 931344785, next at 936042183, pending count: 1
[DRAM_CYCLE_ERROR] Cycle-based error applied! address=0x1008fa2b68 additional_latency=1990500 cycles
[ERROR_CYCLE] Error added at CPU cycle 936042184, next at 960927640, pending count: 1
[DRAM_CYCLE_ERROR] Cycle-based error applied! address=0x7d770e0a8 additional_latency=1990500 cycles
Heartbeat CPU 0 instructions: 1040000128 cycles: 938411516 heartbeat IPC: 1.219 cumulative IPC: 1.108 (Simulation time: 01 hr 58 min 34 sec)
Heartbeat CPU 0 instructions: 1050000129 cycles: 946393943 heartbeat IPC: 1.253 cumulative IPC: 1.109 (Simulation time: 01 hr 59 min 13 sec)
Heartbeat CPU 0 instructions: 1060000133 cycles: 954129633 heartbeat IPC: 1.293 cumulative IPC: 1.111 (Simulation time: 01 hr 59 min 52 sec)
[ERROR_CYCLE] Error added at CPU cycle 960927640, next at 975843003, pending count: 1
Heartbeat CPU 0 instructions: 1070000136 cycles: 962266851 heartbeat IPC: 1.229 cumulative IPC: 1.112 (Simulation time: 02 hr 00 min 31 sec)
[DRAM_CYCLE_ERROR] Cycle-based error applied! address=0x7d7719868 additional_latency=1990500 cycles
Heartbeat CPU 0 instructions: 1080000139 cycles: 970194058 heartbeat IPC: 1.261 cumulative IPC: 1.113 (Simulation time: 02 hr 01 min 10 sec)
[ERROR_CYCLE] Error added at CPU cycle 975843004, next at 977626043, pending count: 1
[ERROR_CYCLE] Error added at CPU cycle 977626043, next at 979831902, pending count: 2
[DRAM_CYCLE_ERROR] Cycle-based error applied! address=0x7d77206a8 additional_latency=1990500 cycles
[DRAM_CYCLE_ERROR] Cycle-based error applied! address=0x1008fb7628 additional_latency=1990500 cycles
Heartbeat CPU 0 instructions: 1090000139 cycles: 978153368 heartbeat IPC: 1.256 cumulative IPC: 1.114 (Simulation time: 02 hr 01 min 50 sec)
[ERROR_CYCLE] Error added at CPU cycle 979831903, next at 985183089, pending count: 1
[DRAM_CYCLE_ERROR] Cycle-based error applied! address=0xc39f7d208 additional_latency=1990500 cycles
[ERROR_CYCLE] Error added at CPU cycle 985183089, next at 985529715, pending count: 1
[ERROR_CYCLE] Error added at CPU cycle 985529715, next at 989014745, pending count: 2
Heartbeat CPU 0 instructions: 1100000139 cycles: 985963872 heartbeat IPC: 1.28 cumulative IPC: 1.116 (Simulation time: 02 hr 02 min 28 sec)
[DRAM_CYCLE_ERROR] Cycle-based error applied! address=0xc39f7d384 additional_latency=1990500 cycles
[DRAM_CYCLE_ERROR] Cycle-based error applied! address=0xc39facc94 additional_latency=1990500 cycles
[ERROR_CYCLE] Error added at CPU cycle 989014745, next at 1000495001, pending count: 1
[DRAM_CYCLE_ERROR] Cycle-based error applied! address=0xc39f7d4a8 additional_latency=1990500 cycles
Heartbeat CPU 0 instructions: 1110000140 cycles: 993927697 heartbeat IPC: 1.256 cumulative IPC: 1.117 (Simulation time: 02 hr 03 min 09 sec)
[ERROR_CYCLE] Error added at CPU cycle 1000495002, next at 1035091477, pending count: 1
[DRAM_CYCLE_ERROR] Cycle-based error applied! address=0xc39f7d748 additional_latency=1990500 cycles
Heartbeat CPU 0 instructions: 1120000140 cycles: 1001578434 heartbeat IPC: 1.307 cumulative IPC: 1.118 (Simulation time: 02 hr 03 min 50 sec)
Heartbeat CPU 0 instructions: 1130000142 cycles: 1010013890 heartbeat IPC: 1.185 cumulative IPC: 1.119 (Simulation time: 02 hr 04 min 34 sec)
Heartbeat CPU 0 instructions: 1140000142 cycles: 1017912313 heartbeat IPC: 1.266 cumulative IPC: 1.12 (Simulation time: 02 hr 05 min 22 sec)
Heartbeat CPU 0 instructions: 1150000143 cycles: 1024279963 heartbeat IPC: 1.57 cumulative IPC: 1.123 (Simulation time: 02 hr 06 min 06 sec)
Heartbeat CPU 0 instructions: 1160000147 cycles: 1030655002 heartbeat IPC: 1.569 cumulative IPC: 1.125 (Simulation time: 02 hr 06 min 48 sec)
[ERROR_CYCLE] Error added at CPU cycle 1035091477, next at 1043904956, pending count: 1
[DRAM_CYCLE_ERROR] Cycle-based error applied! address=0xad0b6d534 additional_latency=1990500 cycles
Heartbeat CPU 0 instructions: 1170000151 cycles: 1040542260 heartbeat IPC: 1.011 cumulative IPC: 1.124 (Simulation time: 02 hr 07 min 57 sec)
[ERROR_CYCLE] Error added at CPU cycle 1043904957, next at 1051871016, pending count: 1
[DRAM_CYCLE_ERROR] Cycle-based error applied! address=0x1008f7ca84 additional_latency=1990500 cycles
[ERROR_CYCLE] Error added at CPU cycle 1051871017, next at 1057060815, pending count: 1
[DRAM_CYCLE_ERROR] Cycle-based error applied! address=0x1ef4e7e2c4 additional_latency=1990500 cycles
Heartbeat CPU 0 instructions: 1180000153 cycles: 1056185559 heartbeat IPC: 0.6393 cumulative IPC: 1.117 (Simulation time: 02 hr 09 min 31 sec)
[ERROR_CYCLE] Error added at CPU cycle 1057060815, next at 1067823653, pending count: 1
[DRAM_CYCLE_ERROR] Cycle-based error applied! address=0x1fada6a844 additional_latency=1990500 cycles
Heartbeat CPU 0 instructions: 1190000154 cycles: 1065516034 heartbeat IPC: 1.072 cumulative IPC: 1.117 (Simulation time: 02 hr 10 min 55 sec)
[ERROR_CYCLE] Error added at CPU cycle 1067823654, next at 1073330273, pending count: 1
[DRAM_CYCLE_ERROR] Cycle-based error applied! address=0x127a5eed00 additional_latency=1990500 cycles
Heartbeat CPU 0 instructions: 1200000154 cycles: 1072652300 heartbeat IPC: 1.401 cumulative IPC: 1.119 (Simulation time: 02 hr 11 min 53 sec)
[ERROR_CYCLE] Error added at CPU cycle 1073330274, next at 1073566411, pending count: 1
[DRAM_CYCLE_ERROR] Cycle-based error applied! address=0x145568fc40 additional_latency=1990500 cycles
[ERROR_CYCLE] Error added at CPU cycle 1073566411, next at 1077955936, pending count: 1
[DRAM_CYCLE_ERROR] Cycle-based error applied! address=0x94c20c180 additional_latency=1990500 cycles
[ERROR_CYCLE] Error added at CPU cycle 1077955936, next at 1079111748, pending count: 1
[DRAM_CYCLE_ERROR] Cycle-based error applied! address=0x8ba8b8040 additional_latency=1990500 cycles
[ERROR_CYCLE] Error added at CPU cycle 1079111749, next at 1096295147, pending count: 1
[DRAM_CYCLE_ERROR] Cycle-based error applied! address=0x14556ace40 additional_latency=1990500 cycles
Heartbeat CPU 0 instructions: 1210000157 cycles: 1079897805 heartbeat IPC: 1.38 cumulative IPC: 1.12 (Simulation time: 02 hr 12 min 42 sec)
Heartbeat CPU 0 instructions: 1220000159 cycles: 1087128470 heartbeat IPC: 1.383 cumulative IPC: 1.122 (Simulation time: 02 hr 13 min 29 sec)
[ERROR_CYCLE] Error added at CPU cycle 1096295148, next at 1102125947, pending count: 1
[DRAM_CYCLE_ERROR] Cycle-based error applied! address=0x1008ee45c0 additional_latency=1990500 cycles
[ERROR_CYCLE] Error added at CPU cycle 1102125947, next at 1134433618, pending count: 1
[DRAM_CYCLE_ERROR] Cycle-based error applied! address=0x9ae673f04 additional_latency=1990500 cycles
Heartbeat CPU 0 instructions: 1230000160 cycles: 1102849654 heartbeat IPC: 0.6361 cumulative IPC: 1.115 (Simulation time: 02 hr 14 min 40 sec)
Heartbeat CPU 0 instructions: 1240000161 cycles: 1113928315 heartbeat IPC: 0.9026 cumulative IPC: 1.113 (Simulation time: 02 hr 15 min 39 sec)
Heartbeat CPU 0 instructions: 1250000161 cycles: 1121724734 heartbeat IPC: 1.283 cumulative IPC: 1.114 (Simulation time: 02 hr 16 min 17 sec)
Heartbeat CPU 0 instructions: 1260000161 cycles: 1129476620 heartbeat IPC: 1.29 cumulative IPC: 1.116 (Simulation time: 02 hr 16 min 54 sec)
[ERROR_CYCLE] Error added at CPU cycle 1134433619, next at 1143019798, pending count: 1
[DRAM_CYCLE_ERROR] Cycle-based error applied! address=0x191e7c8cc0 additional_latency=1990500 cycles
Heartbeat CPU 0 instructions: 1270000164 cycles: 1137235730 heartbeat IPC: 1.289 cumulative IPC: 1.117 (Simulation time: 02 hr 17 min 33 sec)
[ERROR_CYCLE] Error added at CPU cycle 1143019799, next at 1144527713, pending count: 1
[DRAM_CYCLE_ERROR] Cycle-based error applied! address=0x3e8449fc0 additional_latency=1990500 cycles
[ERROR_CYCLE] Error added at CPU cycle 1144527714, next at 1147844485, pending count: 1
[DRAM_CYCLE_ERROR] Cycle-based error applied! address=0x15b51a3364 additional_latency=1990500 cycles
Heartbeat CPU 0 instructions: 1280000164 cycles: 1144983741 heartbeat IPC: 1.291 cumulative IPC: 1.118 (Simulation time: 02 hr 18 min 10 sec)
[ERROR_CYCLE] Error added at CPU cycle 1147844485, next at 1151928025, pending count: 1
[DRAM_CYCLE_ERROR] Cycle-based error applied! address=0xc4553b000 additional_latency=1990500 cycles
[ERROR_CYCLE] Error added at CPU cycle 1151928026, next at 1164212405, pending count: 1
[DRAM_CYCLE_ERROR] Cycle-based error applied! address=0x3e844a140 additional_latency=1990500 cycles
Heartbeat CPU 0 instructions: 1290000164 cycles: 1152732075 heartbeat IPC: 1.291 cumulative IPC: 1.119 (Simulation time: 02 hr 18 min 47 sec)
Heartbeat CPU 0 instructions: 1300000164 cycles: 1160477942 heartbeat IPC: 1.291 cumulative IPC: 1.12 (Simulation time: 02 hr 19 min 27 sec)
[ERROR_CYCLE] Error added at CPU cycle 1164212406, next at 1164864924, pending count: 1
[DRAM_CYCLE_ERROR] Cycle-based error applied! address=0x3e844a380 additional_latency=1990500 cycles
[ERROR_CYCLE] Error added at CPU cycle 1164864924, next at 1167706555, pending count: 1
[DRAM_CYCLE_ERROR] Cycle-based error applied! address=0x191e7c9200 additional_latency=1990500 cycles
[ERROR_CYCLE] Error added at CPU cycle 1167706555, next at 1176468137, pending count: 1
Heartbeat CPU 0 instructions: 1310000165 cycles: 1168216187 heartbeat IPC: 1.292 cumulative IPC: 1.121 (Simulation time: 02 hr 20 min 05 sec)
[DRAM_CYCLE_ERROR] Cycle-based error applied! address=0x3e844a440 additional_latency=1990500 cycles
Heartbeat CPU 0 instructions: 1320000166 cycles: 1175931598 heartbeat IPC: 1.296 cumulative IPC: 1.123 (Simulation time: 02 hr 20 min 43 sec)
[ERROR_CYCLE] Error added at CPU cycle 1176468137, next at 1178359731, pending count: 1
[DRAM_CYCLE_ERROR] Cycle-based error applied! address=0x3e844a5c0 additional_latency=1990500 cycles
[ERROR_CYCLE] Error added at CPU cycle 1178359731, next at 1186538523, pending count: 1
[DRAM_CYCLE_ERROR] Cycle-based error applied! address=0x3e844a600 additional_latency=1990500 cycles
Heartbeat CPU 0 instructions: 1330000168 cycles: 1183635756 heartbeat IPC: 1.298 cumulative IPC: 1.124 (Simulation time: 02 hr 21 min 21 sec)
[ERROR_CYCLE] Error added at CPU cycle 1186538524, next at 1187608946, pending count: 1
[DRAM_CYCLE_ERROR] Cycle-based error applied! address=0x3e844a780 additional_latency=1990500 cycles
[ERROR_CYCLE] Error added at CPU cycle 1187608947, next at 1193860883, pending count: 1
[DRAM_CYCLE_ERROR] Cycle-based error applied! address=0xc4553b700 additional_latency=1990500 cycles
Heartbeat CPU 0 instructions: 1340000169 cycles: 1191330431 heartbeat IPC: 1.3 cumulative IPC: 1.125 (Simulation time: 02 hr 21 min 58 sec)
[ERROR_CYCLE] Error added at CPU cycle 1193860883, next at 1198722524, pending count: 1
[DRAM_CYCLE_ERROR] Cycle-based error applied! address=0x3e844a8c0 additional_latency=1990500 cycles
[ERROR_CYCLE] Error added at CPU cycle 1198722525, next at 1200139371, pending count: 1
Heartbeat CPU 0 instructions: 1350000172 cycles: 1199004509 heartbeat IPC: 1.303 cumulative IPC: 1.126 (Simulation time: 02 hr 22 min 35 sec)
[DRAM_CYCLE_ERROR] Cycle-based error applied! address=0x3e844a9c0 additional_latency=1990500 cycles
[ERROR_CYCLE] Error added at CPU cycle 1200139371, next at 1203745576, pending count: 1
[DRAM_CYCLE_ERROR] Cycle-based error applied! address=0xc4553b940 additional_latency=1990500 cycles
[ERROR_CYCLE] Error added at CPU cycle 1203745577, next at 1206541145, pending count: 1
[DRAM_CYCLE_ERROR] Cycle-based error applied! address=0x191e7bbe64 additional_latency=1990500 cycles
[ERROR_CYCLE] Error added at CPU cycle 1206541145, next at 1208784502, pending count: 1
Heartbeat CPU 0 instructions: 1360000174 cycles: 1206667943 heartbeat IPC: 1.305 cumulative IPC: 1.127 (Simulation time: 02 hr 23 min 12 sec)
[DRAM_CYCLE_ERROR] Cycle-based error applied! address=0x191e7c9980 additional_latency=1990500 cycles
[ERROR_CYCLE] Error added at CPU cycle 1208784502, next at 1232405280, pending count: 1
[DRAM_CYCLE_ERROR] Cycle-based error applied! address=0xc4553bac0 additional_latency=1990500 cycles
Heartbeat CPU 0 instructions: 1370000176 cycles: 1214352202 heartbeat IPC: 1.301 cumulative IPC: 1.128 (Simulation time: 02 hr 23 min 50 sec)
Heartbeat CPU 0 instructions: 1380000179 cycles: 1222015622 heartbeat IPC: 1.305 cumulative IPC: 1.129 (Simulation time: 02 hr 24 min 27 sec)
Heartbeat CPU 0 instructions: 1390000181 cycles: 1229682728 heartbeat IPC: 1.304 cumulative IPC: 1.13 (Simulation time: 02 hr 25 min 05 sec)
[ERROR_CYCLE] Error added at CPU cycle 1232405281, next at 1236507134, pending count: 1
[DRAM_CYCLE_ERROR] Cycle-based error applied! address=0xc4553bf00 additional_latency=1990500 cycles
[ERROR_CYCLE] Error added at CPU cycle 1236507134, next at 1244305712, pending count: 1
[DRAM_CYCLE_ERROR] Cycle-based error applied! address=0x3e844b080 additional_latency=1990500 cycles
Heartbeat CPU 0 instructions: 1400000185 cycles: 1237360194 heartbeat IPC: 1.303 cumulative IPC: 1.131 (Simulation time: 02 hr 25 min 42 sec)
[ERROR_CYCLE] Error added at CPU cycle 1244305712, next at 1247503943, pending count: 1
[DRAM_CYCLE_ERROR] Cycle-based error applied! address=0x191e7ca040 additional_latency=1990500 cycles
Heartbeat CPU 0 instructions: 1410000187 cycles: 1245039434 heartbeat IPC: 1.302 cumulative IPC: 1.132 (Simulation time: 02 hr 26 min 19 sec)
[ERROR_CYCLE] Error added at CPU cycle 1247503943, next at 1254600384, pending count: 1
[DRAM_CYCLE_ERROR] Cycle-based error applied! address=0x191e7ca0c0 additional_latency=1990500 cycles
Heartbeat CPU 0 instructions: 1420000188 cycles: 1252731032 heartbeat IPC: 1.3 cumulative IPC: 1.134 (Simulation time: 02 hr 26 min 57 sec)
[ERROR_CYCLE] Error added at CPU cycle 1254600384, next at 1254717674, pending count: 1
[ERROR_CYCLE] Error added at CPU cycle 1254717674, next at 1256963700, pending count: 2
[DRAM_CYCLE_ERROR] Cycle-based error applied! address=0x191e7ca208 additional_latency=1990500 cycles
[DRAM_CYCLE_ERROR] Cycle-based error applied! address=0xc4540a204 additional_latency=1990500 cycles
[ERROR_CYCLE] Error added at CPU cycle 1256963700, next at 1257921434, pending count: 1
[DRAM_CYCLE_ERROR] Cycle-based error applied! address=0x191e7ca280 additional_latency=1990500 cycles
[ERROR_CYCLE] Error added at CPU cycle 1257921435, next at 1268455648, pending count: 1
[DRAM_CYCLE_ERROR] Cycle-based error applied! address=0x3e844b440 additional_latency=1990500 cycles
Heartbeat CPU 0 instructions: 1430000188 cycles: 1260431918 heartbeat IPC: 1.299 cumulative IPC: 1.135 (Simulation time: 02 hr 27 min 34 sec)
Heartbeat CPU 0 instructions: 1440000188 cycles: 1268118032 heartbeat IPC: 1.301 cumulative IPC: 1.136 (Simulation time: 02 hr 28 min 11 sec)
[ERROR_CYCLE] Error added at CPU cycle 1268455648, next at 1269143707, pending count: 1
[DRAM_CYCLE_ERROR] Cycle-based error applied! address=0x3e844b600 additional_latency=1990500 cycles
[ERROR_CYCLE] Error added at CPU cycle 1269143707, next at 1278558868, pending count: 1
[DRAM_CYCLE_ERROR] Cycle-based error applied! address=0xc4553c580 additional_latency=1990500 cycles
Heartbeat CPU 0 instructions: 1450000191 cycles: 1275798606 heartbeat IPC: 1.302 cumulative IPC: 1.137 (Simulation time: 02 hr 28 min 48 sec)
[ERROR_CYCLE] Error added at CPU cycle 1278558869, next at 1287946456, pending count: 1
[DRAM_CYCLE_ERROR] Cycle-based error applied! address=0xc4553c740 additional_latency=1990500 cycles
Heartbeat CPU 0 instructions: 1460000194 cycles: 1283479838 heartbeat IPC: 1.302 cumulative IPC: 1.138 (Simulation time: 02 hr 29 min 25 sec)
[ERROR_CYCLE] Error added at CPU cycle 1287946456, next at 1300702152, pending count: 1
[DRAM_CYCLE_ERROR] Cycle-based error applied! address=0x3e844b980 additional_latency=1990500 cycles
Heartbeat CPU 0 instructions: 1470000194 cycles: 1291160646 heartbeat IPC: 1.302 cumulative IPC: 1.139 (Simulation time: 02 hr 30 min 03 sec)
Heartbeat CPU 0 instructions: 1480000194 cycles: 1298844097 heartbeat IPC: 1.301 cumulative IPC: 1.139 (Simulation time: 02 hr 30 min 40 sec)
[ERROR_CYCLE] Error added at CPU cycle 1300702153, next at 1309431894, pending count: 1
[DRAM_CYCLE_ERROR] Cycle-based error applied! address=0x191e7caa40 additional_latency=1990500 cycles
Heartbeat CPU 0 instructions: 1490000195 cycles: 1306539522 heartbeat IPC: 1.299 cumulative IPC: 1.14 (Simulation time: 02 hr 31 min 17 sec)
[ERROR_CYCLE] Error added at CPU cycle 1309431894, next at 1315837204, pending count: 1
[DRAM_CYCLE_ERROR] Cycle-based error applied! address=0x3e844bd40 additional_latency=1990500 cycles
Heartbeat CPU 0 instructions: 1500000196 cycles: 1314224857 heartbeat IPC: 1.301 cumulative IPC: 1.141 (Simulation time: 02 hr 31 min 54 sec)
[ERROR_CYCLE] Error added at CPU cycle 1315837204, next at 1321488363, pending count: 1
[DRAM_CYCLE_ERROR] Cycle-based error applied! address=0x3e844be80 additional_latency=1990500 cycles
[ERROR_CYCLE] Error added at CPU cycle 1321488363, next at 1323047984, pending count: 1
[DRAM_CYCLE_ERROR] Cycle-based error applied! address=0x3e844bf40 additional_latency=1990500 cycles
Heartbeat CPU 0 instructions: 1510000196 cycles: 1321911306 heartbeat IPC: 1.301 cumulative IPC: 1.142 (Simulation time: 02 hr 32 min 31 sec)
[ERROR_CYCLE] Error added at CPU cycle 1323047984, next at 1325903536, pending count: 1
[DRAM_CYCLE_ERROR] Cycle-based error applied! address=0xc4553cf04 additional_latency=1990500 cycles
[ERROR_CYCLE] Error added at CPU cycle 1325903536, next at 1326611268, pending count: 1
[DRAM_CYCLE_ERROR] Cycle-based error applied! address=0xc4553cf80 additional_latency=1990500 cycles
[ERROR_CYCLE] Error added at CPU cycle 1326611268, next at 1332705889, pending count: 1
[DRAM_CYCLE_ERROR] Cycle-based error applied! address=0x3e844c040 additional_latency=1990500 cycles
Heartbeat CPU 0 instructions: 1520000196 cycles: 1329596061 heartbeat IPC: 1.301 cumulative IPC: 1.143 (Simulation time: 02 hr 33 min 08 sec)
[ERROR_CYCLE] Error added at CPU cycle 1332705890, next at 1340847840, pending count: 1
[DRAM_CYCLE_ERROR] Cycle-based error applied! address=0x191e7cafc0 additional_latency=1990500 cycles
Heartbeat CPU 0 instructions: 1530000196 cycles: 1337286393 heartbeat IPC: 1.3 cumulative IPC: 1.144 (Simulation time: 02 hr 33 min 45 sec)
[ERROR_CYCLE] Error added at CPU cycle 1340847840, next at 1345469816, pending count: 1
[DRAM_CYCLE_ERROR] Cycle-based error applied! address=0x3e844c2c0 additional_latency=1990500 cycles
Heartbeat CPU 0 instructions: 1540000197 cycles: 1344960804 heartbeat IPC: 1.303 cumulative IPC: 1.145 (Simulation time: 02 hr 34 min 22 sec)
[ERROR_CYCLE] Error added at CPU cycle 1345469816, next at 1345959592, pending count: 1
[DRAM_CYCLE_ERROR] Cycle-based error applied! address=0x3e844c394 additional_latency=1990500 cycles
[ERROR_CYCLE] Error added at CPU cycle 1345959593, next at 1347625360, pending count: 1
[DRAM_CYCLE_ERROR] Cycle-based error applied! address=0x3e844c3c0 additional_latency=1990500 cycles
[ERROR_CYCLE] Error added at CPU cycle 1347625360, next at 1351706167, pending count: 1
[DRAM_CYCLE_ERROR] Cycle-based error applied! address=0x3e844c400 additional_latency=1990500 cycles
[ERROR_CYCLE] Error added at CPU cycle 1351706167, next at 1358933144, pending count: 1
[DRAM_CYCLE_ERROR] Cycle-based error applied! address=0xc4553d400 additional_latency=1990500 cycles
Heartbeat CPU 0 instructions: 1550000197 cycles: 1352633217 heartbeat IPC: 1.303 cumulative IPC: 1.146 (Simulation time: 02 hr 34 min 59 sec)
[ERROR_CYCLE] Error added at CPU cycle 1358933144, next at 1370326360, pending count: 1
[DRAM_CYCLE_ERROR] Cycle-based error applied! address=0xc4553d540 additional_latency=1990500 cycles
Heartbeat CPU 0 instructions: 1560000199 cycles: 1360272239 heartbeat IPC: 1.309 cumulative IPC: 1.147 (Simulation time: 02 hr 35 min 36 sec)
Heartbeat CPU 0 instructions: 1570000199 cycles: 1367907712 heartbeat IPC: 1.31 cumulative IPC: 1.148 (Simulation time: 02 hr 36 min 13 sec)
[ERROR_CYCLE] Error added at CPU cycle 1370326360, next at 1379014015, pending count: 1
[DRAM_CYCLE_ERROR] Cycle-based error applied! address=0x3e844c800 additional_latency=1990500 cycles
Heartbeat CPU 0 instructions: 1580000199 cycles: 1375556451 heartbeat IPC: 1.307 cumulative IPC: 1.149 (Simulation time: 02 hr 36 min 50 sec)
[ERROR_CYCLE] Error added at CPU cycle 1379014016, next at 1379564513, pending count: 1
[DRAM_CYCLE_ERROR] Cycle-based error applied! address=0x3e844c980 additional_latency=1990500 cycles
[ERROR_CYCLE] Error added at CPU cycle 1379564514, next at 1386176235, pending count: 1
[DRAM_CYCLE_ERROR] Cycle-based error applied! address=0x191e7cb800 additional_latency=1990500 cycles
Heartbeat CPU 0 instructions: 1590000200 cycles: 1383213833 heartbeat IPC: 1.306 cumulative IPC: 1.149 (Simulation time: 02 hr 37 min 26 sec)
[ERROR_CYCLE] Error added at CPU cycle 1386176235, next at 1386297657, pending count: 1
[ERROR_CYCLE] Error added at CPU cycle 1386297657, next at 1408852266, pending count: 2
[DRAM_CYCLE_ERROR] Cycle-based error applied! address=0x3e844cac0 additional_latency=1990500 cycles
[DRAM_CYCLE_ERROR] Cycle-based error applied! address=0x191e7cb940 additional_latency=1990500 cycles
Heartbeat CPU 0 instructions: 1600000200 cycles: 1390863657 heartbeat IPC: 1.307 cumulative IPC: 1.15 (Simulation time: 02 hr 38 min 03 sec)
Heartbeat CPU 0 instructions: 1610000200 cycles: 1398508510 heartbeat IPC: 1.308 cumulative IPC: 1.151 (Simulation time: 02 hr 38 min 40 sec)
Heartbeat CPU 0 instructions: 1620000200 cycles: 1406144197 heartbeat IPC: 1.31 cumulative IPC: 1.152 (Simulation time: 02 hr 39 min 17 sec)
[ERROR_CYCLE] Error added at CPU cycle 1408852267, next at 1434518356, pending count: 1
[DRAM_CYCLE_ERROR] Cycle-based error applied! address=0x3e844cec0 additional_latency=1990500 cycles
Heartbeat CPU 0 instructions: 1630000202 cycles: 1413789019 heartbeat IPC: 1.308 cumulative IPC: 1.153 (Simulation time: 02 hr 39 min 54 sec)
Heartbeat CPU 0 instructions: 1640000206 cycles: 1421435792 heartbeat IPC: 1.308 cumulative IPC: 1.154 (Simulation time: 02 hr 40 min 31 sec)
Heartbeat CPU 0 instructions: 1650000206 cycles: 1429086710 heartbeat IPC: 1.307 cumulative IPC: 1.155 (Simulation time: 02 hr 41 min 08 sec)
[ERROR_CYCLE] Error added at CPU cycle 1434518357, next at 1435050701, pending count: 1
[DRAM_CYCLE_ERROR] Cycle-based error applied! address=0xc4553e280 additional_latency=1990500 cycles
[ERROR_CYCLE] Error added at CPU cycle 1435050702, next at 1438242552, pending count: 1
[DRAM_CYCLE_ERROR] Cycle-based error applied! address=0xc4553e2c0 additional_latency=1990500 cycles
Heartbeat CPU 0 instructions: 1660000210 cycles: 1436755758 heartbeat IPC: 1.304 cumulative IPC: 1.155 (Simulation time: 02 hr 41 min 45 sec)
[ERROR_CYCLE] Error added at CPU cycle 1438242552, next at 1439973246, pending count: 1
[DRAM_CYCLE_ERROR] Cycle-based error applied! address=0xc4553e340 additional_latency=1990500 cycles
[ERROR_CYCLE] Error added at CPU cycle 1439973247, next at 1453079371, pending count: 1
[DRAM_CYCLE_ERROR] Cycle-based error applied! address=0xc4553e380 additional_latency=1990500 cycles
Heartbeat CPU 0 instructions: 1670000210 cycles: 1444431260 heartbeat IPC: 1.303 cumulative IPC: 1.156 (Simulation time: 02 hr 42 min 22 sec)
Heartbeat CPU 0 instructions: 1680000210 cycles: 1452107100 heartbeat IPC: 1.303 cumulative IPC: 1.157 (Simulation time: 02 hr 42 min 59 sec)
[ERROR_CYCLE] Error added at CPU cycle 1453079372, next at 1460423027, pending count: 1
[DRAM_CYCLE_ERROR] Cycle-based error applied! address=0x3e844d680 additional_latency=1990500 cycles
Heartbeat CPU 0 instructions: 1690000210 cycles: 1459790260 heartbeat IPC: 1.302 cumulative IPC: 1.158 (Simulation time: 02 hr 43 min 36 sec)
[ERROR_CYCLE] Error added at CPU cycle 1460423028, next at 1467814764, pending count: 1
[DRAM_CYCLE_ERROR] Cycle-based error applied! address=0x3e844d7c0 additional_latency=1990500 cycles
Heartbeat CPU 0 instructions: 1700000211 cycles: 1467463560 heartbeat IPC: 1.303 cumulative IPC: 1.158 (Simulation time: 02 hr 44 min 13 sec)
[ERROR_CYCLE] Error added at CPU cycle 1467814764, next at 1475620213, pending count: 1
[DRAM_CYCLE_ERROR] Cycle-based error applied! address=0x3e844d900 additional_latency=1990500 cycles
Heartbeat CPU 0 instructions: 1710000214 cycles: 1475139689 heartbeat IPC: 1.303 cumulative IPC: 1.159 (Simulation time: 02 hr 44 min 50 sec)
[ERROR_CYCLE] Error added at CPU cycle 1475620214, next at 1480513243, pending count: 1
[DRAM_CYCLE_ERROR] Cycle-based error applied! address=0xc4553e9c0 additional_latency=1990500 cycles
[ERROR_CYCLE] Error added at CPU cycle 1480513244, next at 1511248733, pending count: 1
[DRAM_CYCLE_ERROR] Cycle-based error applied! address=0x3e844db40 additional_latency=1990500 cycles
Heartbeat CPU 0 instructions: 1720000215 cycles: 1482820075 heartbeat IPC: 1.302 cumulative IPC: 1.16 (Simulation time: 02 hr 45 min 27 sec)
Heartbeat CPU 0 instructions: 1730000215 cycles: 1490494790 heartbeat IPC: 1.303 cumulative IPC: 1.161 (Simulation time: 02 hr 46 min 03 sec)
Heartbeat CPU 0 instructions: 1740000215 cycles: 1498169635 heartbeat IPC: 1.303 cumulative IPC: 1.161 (Simulation time: 02 hr 46 min 39 sec)
Heartbeat CPU 0 instructions: 1750000216 cycles: 1505844607 heartbeat IPC: 1.303 cumulative IPC: 1.162 (Simulation time: 02 hr 47 min 16 sec)
[ERROR_CYCLE] Error added at CPU cycle 1511248733, next at 1514446758, pending count: 1
[DRAM_CYCLE_ERROR] Cycle-based error applied! address=0x191e7ccf00 additional_latency=1990500 cycles
Heartbeat CPU 0 instructions: 1760000220 cycles: 1513527831 heartbeat IPC: 1.302 cumulative IPC: 1.163 (Simulation time: 02 hr 47 min 53 sec)
[ERROR_CYCLE] Error added at CPU cycle 1514446758, next at 1515078884, pending count: 1
[DRAM_CYCLE_ERROR] Cycle-based error applied! address=0x191e7ccf80 additional_latency=1990500 cycles
[ERROR_CYCLE] Error added at CPU cycle 1515078885, next at 1517294807, pending count: 1
[DRAM_CYCLE_ERROR] Cycle-based error applied! address=0x3e844e140 additional_latency=1990500 cycles
[ERROR_CYCLE] Error added at CPU cycle 1517294807, next at 1519651159, pending count: 1
[DRAM_CYCLE_ERROR] Cycle-based error applied! address=0x3e844e180 additional_latency=1990500 cycles
[ERROR_CYCLE] Error added at CPU cycle 1519651159, next at 1533218412, pending count: 1
[DRAM_CYCLE_ERROR] Cycle-based error applied! address=0x3e844e200 additional_latency=1990500 cycles
Heartbeat CPU 0 instructions: 1770000220 cycles: 1521215808 heartbeat IPC: 1.301 cumulative IPC: 1.164 (Simulation time: 02 hr 48 min 30 sec)
Heartbeat CPU 0 instructions: 1780000220 cycles: 1528891456 heartbeat IPC: 1.303 cumulative IPC: 1.164 (Simulation time: 02 hr 49 min 08 sec)
[ERROR_CYCLE] Error added at CPU cycle 1533218412, next at 1535994456, pending count: 1
[DRAM_CYCLE_ERROR] Cycle-based error applied! address=0x191e7b1ec4 additional_latency=1990500 cycles
[ERROR_CYCLE] Error added at CPU cycle 1535994457, next at 1562717751, pending count: 1
[DRAM_CYCLE_ERROR] Cycle-based error applied! address=0x191e7cd340 additional_latency=1990500 cycles
Heartbeat CPU 0 instructions: 1790000221 cycles: 1536584454 heartbeat IPC: 1.3 cumulative IPC: 1.165 (Simulation time: 02 hr 49 min 45 sec)
Heartbeat CPU 0 instructions: 1800000221 cycles: 1544258352 heartbeat IPC: 1.303 cumulative IPC: 1.166 (Simulation time: 02 hr 50 min 22 sec)
Heartbeat CPU 0 instructions: 1810000221 cycles: 1551932290 heartbeat IPC: 1.303 cumulative IPC: 1.166 (Simulation time: 02 hr 50 min 58 sec)
Heartbeat CPU 0 instructions: 1820000221 cycles: 1559609696 heartbeat IPC: 1.303 cumulative IPC: 1.167 (Simulation time: 02 hr 51 min 35 sec)
[ERROR_CYCLE] Error added at CPU cycle 1562717751, next at 1566368072, pending count: 1
[DRAM_CYCLE_ERROR] Cycle-based error applied! address=0xc4553f8c0 additional_latency=1990500 cycles
[ERROR_CYCLE] Error added at CPU cycle 1566368073, next at 1571530525, pending count: 1
[DRAM_CYCLE_ERROR] Cycle-based error applied! address=0x206ba9240 additional_latency=1990500 cycles
Heartbeat CPU 0 instructions: 1830000223 cycles: 1566719651 heartbeat IPC: 1.406 cumulative IPC: 1.168 (Simulation time: 02 hr 52 min 12 sec)
[ERROR_CYCLE] Error added at CPU cycle 1571530526, next at 1580555846, pending count: 1
[DRAM_CYCLE_ERROR] Cycle-based error applied! address=0x1c788d4d80 additional_latency=1990500 cycles
Heartbeat CPU 0 instructions: 1840000224 cycles: 1572848786 heartbeat IPC: 1.632 cumulative IPC: 1.17 (Simulation time: 02 hr 52 min 47 sec)
Heartbeat CPU 0 instructions: 1850000225 cycles: 1579133658 heartbeat IPC: 1.591 cumulative IPC: 1.172 (Simulation time: 02 hr 53 min 22 sec)
[ERROR_CYCLE] Error added at CPU cycle 1580555846, next at 1582872549, pending count: 1
[DRAM_CYCLE_ERROR] Cycle-based error applied! address=0x1c788f74c0 additional_latency=1990500 cycles
[ERROR_CYCLE] Error added at CPU cycle 1582872550, next at 1599922964, pending count: 1
[DRAM_CYCLE_ERROR] Cycle-based error applied! address=0x1ec257a700 additional_latency=1990500 cycles
Heartbeat CPU 0 instructions: 1860000226 cycles: 1585513759 heartbeat IPC: 1.567 cumulative IPC: 1.173 (Simulation time: 02 hr 53 min 58 sec)
Heartbeat CPU 0 instructions: 1870000227 cycles: 1591922259 heartbeat IPC: 1.56 cumulative IPC: 1.175 (Simulation time: 02 hr 54 min 34 sec)
Heartbeat CPU 0 instructions: 1880000228 cycles: 1598443859 heartbeat IPC: 1.533 cumulative IPC: 1.176 (Simulation time: 02 hr 55 min 11 sec)
[ERROR_CYCLE] Error added at CPU cycle 1599922964, next at 1631974949, pending count: 1
[DRAM_CYCLE_ERROR] Cycle-based error applied! address=0x8ba816cc0 additional_latency=1990500 cycles
Heartbeat CPU 0 instructions: 1890000228 cycles: 1604973187 heartbeat IPC: 1.532 cumulative IPC: 1.178 (Simulation time: 02 hr 55 min 48 sec)
Heartbeat CPU 0 instructions: 1900000230 cycles: 1610287750 heartbeat IPC: 1.882 cumulative IPC: 1.18 (Simulation time: 02 hr 56 min 20 sec)
Heartbeat CPU 0 instructions: 1910000230 cycles: 1615547233 heartbeat IPC: 1.901 cumulative IPC: 1.182 (Simulation time: 02 hr 56 min 52 sec)
Heartbeat CPU 0 instructions: 1920000232 cycles: 1620952588 heartbeat IPC: 1.85 cumulative IPC: 1.184 (Simulation time: 02 hr 57 min 24 sec)
Heartbeat CPU 0 instructions: 1930000233 cycles: 1626262919 heartbeat IPC: 1.883 cumulative IPC: 1.187 (Simulation time: 02 hr 57 min 55 sec)
Heartbeat CPU 0 instructions: 1940000236 cycles: 1631524532 heartbeat IPC: 1.901 cumulative IPC: 1.189 (Simulation time: 02 hr 58 min 27 sec)
[ERROR_CYCLE] Error added at CPU cycle 1631974950, next at 1633180686, pending count: 1
[DRAM_CYCLE_ERROR] Cycle-based error applied! address=0x1e50c7fc4 additional_latency=1990500 cycles
[ERROR_CYCLE] Error added at CPU cycle 1633180686, next at 1638048642, pending count: 1
[DRAM_CYCLE_ERROR] Cycle-based error applied! address=0x1e502a280 additional_latency=1990500 cycles
Heartbeat CPU 0 instructions: 1950000236 cycles: 1636872583 heartbeat IPC: 1.87 cumulative IPC: 1.191 (Simulation time: 02 hr 58 min 59 sec)
[ERROR_CYCLE] Error added at CPU cycle 1638048642, next at 1645854556, pending count: 1
[DRAM_CYCLE_ERROR] Cycle-based error applied! address=0x28dffdfc0 additional_latency=1990500 cycles
Heartbeat CPU 0 instructions: 1960000239 cycles: 1642177878 heartbeat IPC: 1.885 cumulative IPC: 1.194 (Simulation time: 02 hr 59 min 31 sec)
[ERROR_CYCLE] Error added at CPU cycle 1645854557, next at 1648355040, pending count: 1
[DRAM_CYCLE_ERROR] Cycle-based error applied! address=0x1e5042d00 additional_latency=1990500 cycles
Heartbeat CPU 0 instructions: 1970000239 cycles: 1647473236 heartbeat IPC: 1.888 cumulative IPC: 1.196 (Simulation time: 03 hr 00 min 03 sec)
[ERROR_CYCLE] Error added at CPU cycle 1648355040, next at 1665069057, pending count: 1
[DRAM_CYCLE_ERROR] Cycle-based error applied! address=0x28dff8180 additional_latency=1990500 cycles
Heartbeat CPU 0 instructions: 1980000239 cycles: 1652725240 heartbeat IPC: 1.904 cumulative IPC: 1.198 (Simulation time: 03 hr 00 min 35 sec)
Heartbeat CPU 0 instructions: 1990000240 cycles: 1657955695 heartbeat IPC: 1.912 cumulative IPC: 1.2 (Simulation time: 03 hr 01 min 07 sec)
[ERROR_CYCLE] Error added at CPU cycle 1665069058, next at 1669208916, pending count: 1
[DRAM_CYCLE_ERROR] Cycle-based error applied! address=0x1d1b25f40 additional_latency=1990500 cycles

=== ERROR PAGE STATISTICS ===
Mode: CYCLE
Error Cycle Interval: 8000000 CPU cycles
Total Error Accesses: 226
==============================
Simulation finished CPU 0 instructions: 1999999880 cycles: 1666370177 cumulative IPC: 1.2 (Simulation time: 03 hr 01 min 53 sec)
Simulation complete CPU 0 instructions: 1999999880 cycles: 1666370177 cumulative IPC: 1.2 (Simulation time: 03 hr 01 min 53 sec)

ChampSim completed all CPUs

=== Simulation ===
CPU 0 runs test_traces/621.wrf_s-6673B.champsimtrace.xz

Region of Interest Statistics

CPU 0 cumulative IPC: 1.2 instructions: 1999999880 cycles: 1666370177
CPU 0 Branch Prediction Accuracy: 93.25% MPKI: 6.743 Average ROB Occupancy at Mispredict: 67.09
Branch type MPKI
BRANCH_DIRECT_JUMP: 0.00112
BRANCH_INDIRECT: 6.95e-05
BRANCH_CONDITIONAL: 5.98
BRANCH_DIRECT_CALL: 0.002089
BRANCH_INDIRECT_CALL: 2e-06
BRANCH_RETURN: 0.7595

cpu0->cpu0_STLB TOTAL        ACCESS:        124 HIT:         45 MISS:         79 MSHR_MERGE:          0
cpu0->cpu0_STLB LOAD         ACCESS:        124 HIT:         45 MISS:         79 MSHR_MERGE:          0
cpu0->cpu0_STLB RFO          ACCESS:          0 HIT:          0 MISS:          0 MSHR_MERGE:          0
cpu0->cpu0_STLB PREFETCH     ACCESS:          0 HIT:          0 MISS:          0 MSHR_MERGE:          0
cpu0->cpu0_STLB WRITE        ACCESS:          0 HIT:          0 MISS:          0 MSHR_MERGE:          0
cpu0->cpu0_STLB TRANSLATION  ACCESS:          0 HIT:          0 MISS:          0 MSHR_MERGE:          0
cpu0->cpu0_STLB PREFETCH REQUESTED:          0 ISSUED:          0 USEFUL:          0 USELESS:          0
cpu0->cpu0_STLB AVERAGE MISS LATENCY: 9397 cycles
cpu0->cpu0_L2C TOTAL        ACCESS:   24599506 HIT:   13033034 MISS:   11566472 MSHR_MERGE:          0
cpu0->cpu0_L2C LOAD         ACCESS:   13806179 HIT:    4693557 MISS:    9112622 MSHR_MERGE:          0
cpu0->cpu0_L2C RFO          ACCESS:    3870402 HIT:    1420547 MISS:    2449855 MSHR_MERGE:          0
cpu0->cpu0_L2C PREFETCH     ACCESS:          0 HIT:          0 MISS:          0 MSHR_MERGE:          0
cpu0->cpu0_L2C WRITE        ACCESS:    6922925 HIT:    6918930 MISS:       3995 MSHR_MERGE:          0
cpu0->cpu0_L2C TRANSLATION  ACCESS:          0 HIT:          0 MISS:          0 MSHR_MERGE:          0
cpu0->cpu0_L2C PREFETCH REQUESTED:          0 ISSUED:          0 USEFUL:          0 USELESS:          0
cpu0->cpu0_L2C AVERAGE MISS LATENCY: 114.3 cycles
cpu0->cpu0_L1I TOTAL        ACCESS:  172481564 HIT:  171355342 MISS:    1126222 MSHR_MERGE:     423926
cpu0->cpu0_L1I LOAD         ACCESS:  172481564 HIT:  171355342 MISS:    1126222 MSHR_MERGE:     423926
cpu0->cpu0_L1I RFO          ACCESS:          0 HIT:          0 MISS:          0 MSHR_MERGE:          0
cpu0->cpu0_L1I PREFETCH     ACCESS:          0 HIT:          0 MISS:          0 MSHR_MERGE:          0
cpu0->cpu0_L1I WRITE        ACCESS:          0 HIT:          0 MISS:          0 MSHR_MERGE:          0
cpu0->cpu0_L1I TRANSLATION  ACCESS:          0 HIT:          0 MISS:          0 MSHR_MERGE:          0
cpu0->cpu0_L1I PREFETCH REQUESTED:          0 ISSUED:          0 USEFUL:          0 USELESS:          0
cpu0->cpu0_L1I AVERAGE MISS LATENCY: 13.87 cycles
cpu0->cpu0_L1D TOTAL        ACCESS:  525673007 HIT:  487981793 MISS:   37691214 MSHR_MERGE:   20716723
cpu0->cpu0_L1D LOAD         ACCESS:  412505748 HIT:  388572747 MISS:   23933001 MSHR_MERGE:   10829033
cpu0->cpu0_L1D RFO          ACCESS:          0 HIT:          0 MISS:          0 MSHR_MERGE:          0
cpu0->cpu0_L1D PREFETCH     ACCESS:          0 HIT:          0 MISS:          0 MSHR_MERGE:          0
cpu0->cpu0_L1D WRITE        ACCESS:  113167259 HIT:   99409046 MISS:   13758213 MSHR_MERGE:    9887690
cpu0->cpu0_L1D TRANSLATION  ACCESS:          0 HIT:          0 MISS:          0 MSHR_MERGE:          0
cpu0->cpu0_L1D PREFETCH REQUESTED:          0 ISSUED:          0 USEFUL:          0 USELESS:          0
cpu0->cpu0_L1D AVERAGE MISS LATENCY: 86.43 cycles
cpu0->cpu0_ITLB TOTAL        ACCESS:  147559442 HIT:  147559413 MISS:         29 MSHR_MERGE:         20
cpu0->cpu0_ITLB LOAD         ACCESS:  147559442 HIT:  147559413 MISS:         29 MSHR_MERGE:         20
cpu0->cpu0_ITLB RFO          ACCESS:          0 HIT:          0 MISS:          0 MSHR_MERGE:          0
cpu0->cpu0_ITLB PREFETCH     ACCESS:          0 HIT:          0 MISS:          0 MSHR_MERGE:          0
cpu0->cpu0_ITLB WRITE        ACCESS:          0 HIT:          0 MISS:          0 MSHR_MERGE:          0
cpu0->cpu0_ITLB TRANSLATION  ACCESS:          0 HIT:          0 MISS:          0 MSHR_MERGE:          0
cpu0->cpu0_ITLB PREFETCH REQUESTED:          0 ISSUED:          0 USEFUL:          0 USELESS:          0
cpu0->cpu0_ITLB AVERAGE MISS LATENCY: 8665 cycles
cpu0->cpu0_DTLB TOTAL        ACCESS:  450925074 HIT:  450924713 MISS:        361 MSHR_MERGE:        246
cpu0->cpu0_DTLB LOAD         ACCESS:  450925074 HIT:  450924713 MISS:        361 MSHR_MERGE:        246
cpu0->cpu0_DTLB RFO          ACCESS:          0 HIT:          0 MISS:          0 MSHR_MERGE:          0
cpu0->cpu0_DTLB PREFETCH     ACCESS:          0 HIT:          0 MISS:          0 MSHR_MERGE:          0
cpu0->cpu0_DTLB WRITE        ACCESS:          0 HIT:          0 MISS:          0 MSHR_MERGE:          0
cpu0->cpu0_DTLB TRANSLATION  ACCESS:          0 HIT:          0 MISS:          0 MSHR_MERGE:          0
cpu0->cpu0_DTLB PREFETCH REQUESTED:          0 ISSUED:          0 USEFUL:          0 USELESS:          0
cpu0->cpu0_DTLB AVERAGE MISS LATENCY: 5783 cycles
cpu0->LLC TOTAL        ACCESS:   16402598 HIT:    6357175 MISS:   10045423 MSHR_MERGE:          0
cpu0->LLC LOAD         ACCESS:    9112622 HIT:    1198598 MISS:    7914024 MSHR_MERGE:          0
cpu0->LLC RFO          ACCESS:    2449855 HIT:     330212 MISS:    2119643 MSHR_MERGE:          0
cpu0->LLC PREFETCH     ACCESS:          0 HIT:          0 MISS:          0 MSHR_MERGE:          0
cpu0->LLC WRITE        ACCESS:    4840121 HIT:    4828365 MISS:      11756 MSHR_MERGE:          0
cpu0->LLC TRANSLATION  ACCESS:          0 HIT:          0 MISS:          0 MSHR_MERGE:          0
cpu0->LLC PREFETCH REQUESTED:          0 ISSUED:          0 USEFUL:          0 USELESS:          0
cpu0->LLC AVERAGE MISS LATENCY: 113.3 cycles

DRAM Statistics

Channel 0 RQ ROW_BUFFER_HIT:     271146
  ROW_BUFFER_MISS:    4745410
  AVG DBUS CONGESTED CYCLE: 10.67
Channel 0 WQ ROW_BUFFER_HIT:     577631
  ROW_BUFFER_MISS:    1429531
  FULL:        736
Channel 0 REFRESHES ISSUED:     138855

Channel 1 RQ ROW_BUFFER_HIT:     273856
  ROW_BUFFER_MISS:    4743212
  AVG DBUS CONGESTED CYCLE: 10.67
Channel 1 WQ ROW_BUFFER_HIT:     581215
  ROW_BUFFER_MISS:    1425748
  FULL:          0
Channel 1 REFRESHES ISSUED:     138855
