
*** ChampSim Multicore Out-of-Order Simulator ***
Warmup Instructions: 0
Simulation Instructions: 9223372036854775807
Number of CPUs: 1
Page size: 2097152

Off-chip DRAM Size: 64 GiB Channels: 2 Width: 32-bit Data Rate: 4807 MT/s
[ERROR_PAGE_MANAGER] Error latency: 1990500 
[ERROR_PAGE_MANAGER] Random seed: 54321 (fixed for preload reproducibility)
[ERROR_PAGE_MANAGER] Cycle-based error modeling enabled
[ERROR_PAGE_MANAGER] Errors per interval: 1
[ERROR_PAGE_MANAGER] Error cycle interval: 10000000000 cycles

=== ERROR PAGE STATISTICS ===
Mode: CYCLE
Error Cycle Interval: 10000000000 CPU cycles
Total Error Accesses: 0
==============================
Warmup finished CPU 0 instructions: 0 cycles: 1 cumulative IPC: 0 (Simulation time: 00 hr 00 min 00 sec)
Warmup complete CPU 0 instructions: 0 cycles: 1 cumulative IPC: 0 (Simulation time: 00 hr 00 min 00 sec)
Heartbeat CPU 0 instructions: 10000001 cycles: 10784574 heartbeat IPC: 0.9273 cumulative IPC: 0.9273 (Simulation time: 00 hr 01 min 20 sec)
Heartbeat CPU 0 instructions: 20000002 cycles: 23184647 heartbeat IPC: 0.8064 cumulative IPC: 0.8626 (Simulation time: 00 hr 02 min 50 sec)
Heartbeat CPU 0 instructions: 30000002 cycles: 37957363 heartbeat IPC: 0.6769 cumulative IPC: 0.7904 (Simulation time: 00 hr 04 min 30 sec)
Heartbeat CPU 0 instructions: 40000005 cycles: 48132396 heartbeat IPC: 0.9828 cumulative IPC: 0.831 (Simulation time: 00 hr 05 min 46 sec)
Heartbeat CPU 0 instructions: 50000005 cycles: 83431547 heartbeat IPC: 0.2833 cumulative IPC: 0.5993 (Simulation time: 00 hr 09 min 19 sec)
Heartbeat CPU 0 instructions: 60000005 cycles: 98499048 heartbeat IPC: 0.6637 cumulative IPC: 0.6091 (Simulation time: 00 hr 11 min 02 sec)
Heartbeat CPU 0 instructions: 70000005 cycles: 114190249 heartbeat IPC: 0.6373 cumulative IPC: 0.613 (Simulation time: 00 hr 12 min 49 sec)
Heartbeat CPU 0 instructions: 80000007 cycles: 123976811 heartbeat IPC: 1.022 cumulative IPC: 0.6453 (Simulation time: 00 hr 13 min 56 sec)
Heartbeat CPU 0 instructions: 90000007 cycles: 134366681 heartbeat IPC: 0.9625 cumulative IPC: 0.6698 (Simulation time: 00 hr 15 min 15 sec)
Heartbeat CPU 0 instructions: 100000008 cycles: 143634825 heartbeat IPC: 1.079 cumulative IPC: 0.6962 (Simulation time: 00 hr 16 min 27 sec)
Heartbeat CPU 0 instructions: 110000012 cycles: 163337268 heartbeat IPC: 0.5076 cumulative IPC: 0.6735 (Simulation time: 00 hr 18 min 38 sec)
Heartbeat CPU 0 instructions: 120000014 cycles: 176741076 heartbeat IPC: 0.7461 cumulative IPC: 0.679 (Simulation time: 00 hr 20 min 13 sec)
Heartbeat CPU 0 instructions: 130000016 cycles: 187301630 heartbeat IPC: 0.9469 cumulative IPC: 0.6941 (Simulation time: 00 hr 21 min 34 sec)
Heartbeat CPU 0 instructions: 140000020 cycles: 204420402 heartbeat IPC: 0.5842 cumulative IPC: 0.6849 (Simulation time: 00 hr 23 min 24 sec)
Heartbeat CPU 0 instructions: 150000023 cycles: 230187626 heartbeat IPC: 0.3881 cumulative IPC: 0.6516 (Simulation time: 00 hr 25 min 56 sec)
Heartbeat CPU 0 instructions: 160000024 cycles: 241172617 heartbeat IPC: 0.9103 cumulative IPC: 0.6634 (Simulation time: 00 hr 26 min 57 sec)
Heartbeat CPU 0 instructions: 170000024 cycles: 249247597 heartbeat IPC: 1.238 cumulative IPC: 0.6821 (Simulation time: 00 hr 27 min 44 sec)
Heartbeat CPU 0 instructions: 180000027 cycles: 278169672 heartbeat IPC: 0.3458 cumulative IPC: 0.6471 (Simulation time: 00 hr 30 min 10 sec)
Heartbeat CPU 0 instructions: 190000027 cycles: 286667679 heartbeat IPC: 1.177 cumulative IPC: 0.6628 (Simulation time: 00 hr 31 min 19 sec)
Heartbeat CPU 0 instructions: 200000027 cycles: 297905643 heartbeat IPC: 0.8898 cumulative IPC: 0.6714 (Simulation time: 00 hr 32 min 42 sec)
Heartbeat CPU 0 instructions: 210000027 cycles: 314437164 heartbeat IPC: 0.6049 cumulative IPC: 0.6679 (Simulation time: 00 hr 34 min 36 sec)
Heartbeat CPU 0 instructions: 220000029 cycles: 336405756 heartbeat IPC: 0.4552 cumulative IPC: 0.654 (Simulation time: 00 hr 36 min 59 sec)
Heartbeat CPU 0 instructions: 230000032 cycles: 346809329 heartbeat IPC: 0.9612 cumulative IPC: 0.6632 (Simulation time: 00 hr 38 min 18 sec)
Heartbeat CPU 0 instructions: 240000033 cycles: 358361688 heartbeat IPC: 0.8656 cumulative IPC: 0.6697 (Simulation time: 00 hr 39 min 45 sec)
Heartbeat CPU 0 instructions: 250000033 cycles: 366939805 heartbeat IPC: 1.166 cumulative IPC: 0.6813 (Simulation time: 00 hr 40 min 54 sec)
Heartbeat CPU 0 instructions: 260000033 cycles: 406680820 heartbeat IPC: 0.2516 cumulative IPC: 0.6393 (Simulation time: 00 hr 44 min 36 sec)
Heartbeat CPU 0 instructions: 270000035 cycles: 456144030 heartbeat IPC: 0.2022 cumulative IPC: 0.5919 (Simulation time: 00 hr 49 min 09 sec)
Heartbeat CPU 0 instructions: 280000039 cycles: 473081525 heartbeat IPC: 0.5904 cumulative IPC: 0.5919 (Simulation time: 00 hr 50 min 50 sec)
Heartbeat CPU 0 instructions: 290000039 cycles: 489883536 heartbeat IPC: 0.5952 cumulative IPC: 0.592 (Simulation time: 00 hr 52 min 30 sec)
Heartbeat CPU 0 instructions: 300000040 cycles: 508043279 heartbeat IPC: 0.5507 cumulative IPC: 0.5905 (Simulation time: 00 hr 54 min 30 sec)
Heartbeat CPU 0 instructions: 310000043 cycles: 518788664 heartbeat IPC: 0.9306 cumulative IPC: 0.5975 (Simulation time: 00 hr 55 min 50 sec)
Heartbeat CPU 0 instructions: 320000043 cycles: 529426879 heartbeat IPC: 0.94 cumulative IPC: 0.6044 (Simulation time: 00 hr 57 min 10 sec)
Heartbeat CPU 0 instructions: 330000046 cycles: 552246351 heartbeat IPC: 0.4382 cumulative IPC: 0.5976 (Simulation time: 00 hr 59 min 38 sec)
Heartbeat CPU 0 instructions: 340000049 cycles: 562934447 heartbeat IPC: 0.9356 cumulative IPC: 0.604 (Simulation time: 01 hr 00 min 59 sec)
Heartbeat CPU 0 instructions: 350000049 cycles: 571047022 heartbeat IPC: 1.233 cumulative IPC: 0.6129 (Simulation time: 01 hr 02 min 04 sec)
Heartbeat CPU 0 instructions: 360000050 cycles: 591590285 heartbeat IPC: 0.4868 cumulative IPC: 0.6085 (Simulation time: 01 hr 04 min 19 sec)
Heartbeat CPU 0 instructions: 370000050 cycles: 603906957 heartbeat IPC: 0.8119 cumulative IPC: 0.6127 (Simulation time: 01 hr 05 min 48 sec)
Heartbeat CPU 0 instructions: 380000050 cycles: 613266753 heartbeat IPC: 1.068 cumulative IPC: 0.6196 (Simulation time: 01 hr 07 min 01 sec)
Heartbeat CPU 0 instructions: 390000052 cycles: 637957414 heartbeat IPC: 0.405 cumulative IPC: 0.6113 (Simulation time: 01 hr 09 min 38 sec)
Heartbeat CPU 0 instructions: 400000054 cycles: 662088721 heartbeat IPC: 0.4144 cumulative IPC: 0.6041 (Simulation time: 01 hr 12 min 17 sec)
Heartbeat CPU 0 instructions: 410000054 cycles: 672609557 heartbeat IPC: 0.9505 cumulative IPC: 0.6096 (Simulation time: 01 hr 13 min 37 sec)
Heartbeat CPU 0 instructions: 420000055 cycles: 681486839 heartbeat IPC: 1.126 cumulative IPC: 0.6163 (Simulation time: 01 hr 14 min 30 sec)
Heartbeat CPU 0 instructions: 430000056 cycles: 695031779 heartbeat IPC: 0.7383 cumulative IPC: 0.6187 (Simulation time: 01 hr 16 min 00 sec)
Heartbeat CPU 0 instructions: 440000056 cycles: 726919236 heartbeat IPC: 0.3136 cumulative IPC: 0.6053 (Simulation time: 01 hr 19 min 00 sec)
Heartbeat CPU 0 instructions: 450000059 cycles: 735364793 heartbeat IPC: 1.184 cumulative IPC: 0.6119 (Simulation time: 01 hr 19 min 55 sec)
Heartbeat CPU 0 instructions: 460000059 cycles: 748794938 heartbeat IPC: 0.7446 cumulative IPC: 0.6143 (Simulation time: 01 hr 21 min 32 sec)
Heartbeat CPU 0 instructions: 470000061 cycles: 757661092 heartbeat IPC: 1.128 cumulative IPC: 0.6203 (Simulation time: 01 hr 22 min 23 sec)
Heartbeat CPU 0 instructions: 480000061 cycles: 767509542 heartbeat IPC: 1.015 cumulative IPC: 0.6254 (Simulation time: 01 hr 23 min 36 sec)
Heartbeat CPU 0 instructions: 490000061 cycles: 792875181 heartbeat IPC: 0.3942 cumulative IPC: 0.618 (Simulation time: 01 hr 26 min 18 sec)
Heartbeat CPU 0 instructions: 500000064 cycles: 802881243 heartbeat IPC: 0.9994 cumulative IPC: 0.6228 (Simulation time: 01 hr 27 min 34 sec)
Heartbeat CPU 0 instructions: 510000067 cycles: 814112307 heartbeat IPC: 0.8904 cumulative IPC: 0.6264 (Simulation time: 01 hr 28 min 57 sec)
Heartbeat CPU 0 instructions: 520000068 cycles: 822664171 heartbeat IPC: 1.169 cumulative IPC: 0.6321 (Simulation time: 01 hr 30 min 04 sec)
Heartbeat CPU 0 instructions: 530000072 cycles: 832941388 heartbeat IPC: 0.973 cumulative IPC: 0.6363 (Simulation time: 01 hr 31 min 21 sec)
Heartbeat CPU 0 instructions: 540000073 cycles: 864979280 heartbeat IPC: 0.3121 cumulative IPC: 0.6243 (Simulation time: 01 hr 34 min 18 sec)
Heartbeat CPU 0 instructions: 550000073 cycles: 908122659 heartbeat IPC: 0.2318 cumulative IPC: 0.6056 (Simulation time: 01 hr 38 min 29 sec)
Heartbeat CPU 0 instructions: 560000073 cycles: 951281735 heartbeat IPC: 0.2317 cumulative IPC: 0.5887 (Simulation time: 01 hr 41 min 49 sec)
Heartbeat CPU 0 instructions: 570000073 cycles: 995109521 heartbeat IPC: 0.2282 cumulative IPC: 0.5728 (Simulation time: 01 hr 46 min 01 sec)
Heartbeat CPU 0 instructions: 580000076 cycles: 1038099847 heartbeat IPC: 0.2326 cumulative IPC: 0.5587 (Simulation time: 01 hr 50 min 11 sec)
Heartbeat CPU 0 instructions: 590000079 cycles: 1081777873 heartbeat IPC: 0.2289 cumulative IPC: 0.5454 (Simulation time: 01 hr 54 min 03 sec)
Heartbeat CPU 0 instructions: 600000079 cycles: 1124717584 heartbeat IPC: 0.2329 cumulative IPC: 0.5335 (Simulation time: 01 hr 57 min 58 sec)
Heartbeat CPU 0 instructions: 610000079 cycles: 1167905441 heartbeat IPC: 0.2315 cumulative IPC: 0.5223 (Simulation time: 02 hr 02 min 10 sec)
Heartbeat CPU 0 instructions: 620000081 cycles: 1207447093 heartbeat IPC: 0.2529 cumulative IPC: 0.5135 (Simulation time: 02 hr 05 min 59 sec)
Heartbeat CPU 0 instructions: 630000082 cycles: 1246451543 heartbeat IPC: 0.2564 cumulative IPC: 0.5054 (Simulation time: 02 hr 09 min 51 sec)
Heartbeat CPU 0 instructions: 640000085 cycles: 1283821148 heartbeat IPC: 0.2676 cumulative IPC: 0.4985 (Simulation time: 02 hr 13 min 36 sec)
Heartbeat CPU 0 instructions: 650000085 cycles: 1326623286 heartbeat IPC: 0.2336 cumulative IPC: 0.49 (Simulation time: 02 hr 17 min 11 sec)
Heartbeat CPU 0 instructions: 660000085 cycles: 1373328220 heartbeat IPC: 0.2141 cumulative IPC: 0.4806 (Simulation time: 02 hr 21 min 45 sec)
Heartbeat CPU 0 instructions: 670000085 cycles: 1420713802 heartbeat IPC: 0.211 cumulative IPC: 0.4716 (Simulation time: 02 hr 25 min 16 sec)
Heartbeat CPU 0 instructions: 680000088 cycles: 1466819701 heartbeat IPC: 0.2169 cumulative IPC: 0.4636 (Simulation time: 02 hr 29 min 34 sec)
Heartbeat CPU 0 instructions: 690000088 cycles: 1499160484 heartbeat IPC: 0.3092 cumulative IPC: 0.4603 (Simulation time: 02 hr 33 min 04 sec)
Heartbeat CPU 0 instructions: 700000089 cycles: 1514292489 heartbeat IPC: 0.6609 cumulative IPC: 0.4623 (Simulation time: 02 hr 34 min 50 sec)
Heartbeat CPU 0 instructions: 710000089 cycles: 1523511189 heartbeat IPC: 1.085 cumulative IPC: 0.466 (Simulation time: 02 hr 36 min 02 sec)
Heartbeat CPU 0 instructions: 720000089 cycles: 1536405040 heartbeat IPC: 0.7756 cumulative IPC: 0.4686 (Simulation time: 02 hr 37 min 36 sec)
Heartbeat CPU 0 instructions: 730000090 cycles: 1547849361 heartbeat IPC: 0.8738 cumulative IPC: 0.4716 (Simulation time: 02 hr 38 min 50 sec)
Heartbeat CPU 0 instructions: 740000091 cycles: 1556271805 heartbeat IPC: 1.187 cumulative IPC: 0.4755 (Simulation time: 02 hr 39 min 34 sec)
Heartbeat CPU 0 instructions: 750000093 cycles: 1571795578 heartbeat IPC: 0.6442 cumulative IPC: 0.4772 (Simulation time: 02 hr 40 min 48 sec)
Heartbeat CPU 0 instructions: 760000093 cycles: 1580238248 heartbeat IPC: 1.184 cumulative IPC: 0.4809 (Simulation time: 02 hr 41 min 49 sec)
Heartbeat CPU 0 instructions: 770000094 cycles: 1589714078 heartbeat IPC: 1.055 cumulative IPC: 0.4844 (Simulation time: 02 hr 42 min 37 sec)
Heartbeat CPU 0 instructions: 780000094 cycles: 1602939925 heartbeat IPC: 0.7561 cumulative IPC: 0.4866 (Simulation time: 02 hr 43 min 39 sec)
Heartbeat CPU 0 instructions: 790000095 cycles: 1615655879 heartbeat IPC: 0.7864 cumulative IPC: 0.489 (Simulation time: 02 hr 44 min 39 sec)
Heartbeat CPU 0 instructions: 800000097 cycles: 1642141650 heartbeat IPC: 0.3776 cumulative IPC: 0.4872 (Simulation time: 02 hr 47 min 08 sec)
Heartbeat CPU 0 instructions: 810000099 cycles: 1662315053 heartbeat IPC: 0.4957 cumulative IPC: 0.4873 (Simulation time: 02 hr 49 min 17 sec)
Heartbeat CPU 0 instructions: 820000099 cycles: 1676675980 heartbeat IPC: 0.6963 cumulative IPC: 0.4891 (Simulation time: 02 hr 50 min 55 sec)
Heartbeat CPU 0 instructions: 830000099 cycles: 1687308098 heartbeat IPC: 0.9405 cumulative IPC: 0.4919 (Simulation time: 02 hr 52 min 13 sec)
Heartbeat CPU 0 instructions: 840000102 cycles: 1711997095 heartbeat IPC: 0.405 cumulative IPC: 0.4907 (Simulation time: 02 hr 54 min 48 sec)
Heartbeat CPU 0 instructions: 850000102 cycles: 1731682507 heartbeat IPC: 0.508 cumulative IPC: 0.4909 (Simulation time: 02 hr 57 min 01 sec)
Heartbeat CPU 0 instructions: 860000105 cycles: 1742743969 heartbeat IPC: 0.904 cumulative IPC: 0.4935 (Simulation time: 02 hr 58 min 23 sec)
Heartbeat CPU 0 instructions: 870000108 cycles: 1750819066 heartbeat IPC: 1.238 cumulative IPC: 0.4969 (Simulation time: 02 hr 59 min 28 sec)
Heartbeat CPU 0 instructions: 880000108 cycles: 1764231522 heartbeat IPC: 0.7456 cumulative IPC: 0.4988 (Simulation time: 03 hr 01 min 02 sec)
Heartbeat CPU 0 instructions: 890000108 cycles: 1774423632 heartbeat IPC: 0.9812 cumulative IPC: 0.5016 (Simulation time: 03 hr 02 min 18 sec)
Heartbeat CPU 0 instructions: 900000112 cycles: 1792917778 heartbeat IPC: 0.5407 cumulative IPC: 0.502 (Simulation time: 03 hr 04 min 16 sec)
Heartbeat CPU 0 instructions: 910000112 cycles: 1801845320 heartbeat IPC: 1.12 cumulative IPC: 0.505 (Simulation time: 03 hr 05 min 12 sec)
Heartbeat CPU 0 instructions: 920000112 cycles: 1814136865 heartbeat IPC: 0.8136 cumulative IPC: 0.5071 (Simulation time: 03 hr 06 min 21 sec)
Heartbeat CPU 0 instructions: 930000112 cycles: 1823425791 heartbeat IPC: 1.077 cumulative IPC: 0.51 (Simulation time: 03 hr 07 min 14 sec)
Heartbeat CPU 0 instructions: 940000115 cycles: 1861576780 heartbeat IPC: 0.2621 cumulative IPC: 0.5049 (Simulation time: 03 hr 10 min 50 sec)
Heartbeat CPU 0 instructions: 950000115 cycles: 1902642189 heartbeat IPC: 0.2435 cumulative IPC: 0.4993 (Simulation time: 03 hr 14 min 25 sec)
Heartbeat CPU 0 instructions: 960000116 cycles: 1920791446 heartbeat IPC: 0.551 cumulative IPC: 0.4998 (Simulation time: 03 hr 16 min 24 sec)
Heartbeat CPU 0 instructions: 970000116 cycles: 1930580674 heartbeat IPC: 1.022 cumulative IPC: 0.5024 (Simulation time: 03 hr 17 min 21 sec)
Heartbeat CPU 0 instructions: 980000117 cycles: 1939620869 heartbeat IPC: 1.106 cumulative IPC: 0.5053 (Simulation time: 03 hr 18 min 23 sec)
Heartbeat CPU 0 instructions: 990000117 cycles: 1955559815 heartbeat IPC: 0.6274 cumulative IPC: 0.5062 (Simulation time: 03 hr 20 min 06 sec)
Heartbeat CPU 0 instructions: 1000000120 cycles: 1966221898 heartbeat IPC: 0.9379 cumulative IPC: 0.5086 (Simulation time: 03 hr 21 min 17 sec)
Heartbeat CPU 0 instructions: 1010000121 cycles: 1977072657 heartbeat IPC: 0.9216 cumulative IPC: 0.5109 (Simulation time: 03 hr 22 min 30 sec)
Heartbeat CPU 0 instructions: 1020000121 cycles: 1988536075 heartbeat IPC: 0.8723 cumulative IPC: 0.5129 (Simulation time: 03 hr 23 min 29 sec)
Heartbeat CPU 0 instructions: 1030000121 cycles: 1999324566 heartbeat IPC: 0.9269 cumulative IPC: 0.5152 (Simulation time: 03 hr 24 min 41 sec)
Heartbeat CPU 0 instructions: 1040000123 cycles: 2013094770 heartbeat IPC: 0.7262 cumulative IPC: 0.5166 (Simulation time: 03 hr 26 min 17 sec)
Heartbeat CPU 0 instructions: 1050000126 cycles: 2062204751 heartbeat IPC: 0.2036 cumulative IPC: 0.5092 (Simulation time: 03 hr 29 min 49 sec)
Heartbeat CPU 0 instructions: 1060000130 cycles: 2095861305 heartbeat IPC: 0.2971 cumulative IPC: 0.5058 (Simulation time: 03 hr 33 min 08 sec)
Heartbeat CPU 0 instructions: 1070000134 cycles: 2104489105 heartbeat IPC: 1.159 cumulative IPC: 0.5084 (Simulation time: 03 hr 34 min 16 sec)
Heartbeat CPU 0 instructions: 1080000134 cycles: 2114036809 heartbeat IPC: 1.047 cumulative IPC: 0.5109 (Simulation time: 03 hr 35 min 27 sec)
Heartbeat CPU 0 instructions: 1090000134 cycles: 2148733856 heartbeat IPC: 0.2882 cumulative IPC: 0.5073 (Simulation time: 03 hr 38 min 21 sec)
Heartbeat CPU 0 instructions: 1100000134 cycles: 2163707490 heartbeat IPC: 0.6678 cumulative IPC: 0.5084 (Simulation time: 03 hr 40 min 06 sec)
Heartbeat CPU 0 instructions: 1110000135 cycles: 2174258342 heartbeat IPC: 0.9478 cumulative IPC: 0.5105 (Simulation time: 03 hr 41 min 21 sec)
Heartbeat CPU 0 instructions: 1120000135 cycles: 2183711148 heartbeat IPC: 1.058 cumulative IPC: 0.5129 (Simulation time: 03 hr 42 min 34 sec)
Heartbeat CPU 0 instructions: 1130000136 cycles: 2191914466 heartbeat IPC: 1.219 cumulative IPC: 0.5155 (Simulation time: 03 hr 43 min 39 sec)
Heartbeat CPU 0 instructions: 1140000137 cycles: 2215329572 heartbeat IPC: 0.4271 cumulative IPC: 0.5146 (Simulation time: 03 hr 45 min 59 sec)
Heartbeat CPU 0 instructions: 1150000137 cycles: 2225568347 heartbeat IPC: 0.9767 cumulative IPC: 0.5167 (Simulation time: 03 hr 47 min 15 sec)
Heartbeat CPU 0 instructions: 1160000139 cycles: 2242155836 heartbeat IPC: 0.6029 cumulative IPC: 0.5174 (Simulation time: 03 hr 48 min 51 sec)
Heartbeat CPU 0 instructions: 1170000141 cycles: 2250574708 heartbeat IPC: 1.188 cumulative IPC: 0.5199 (Simulation time: 03 hr 49 min 47 sec)
Heartbeat CPU 0 instructions: 1180000142 cycles: 2260302943 heartbeat IPC: 1.028 cumulative IPC: 0.5221 (Simulation time: 03 hr 50 min 44 sec)
Heartbeat CPU 0 instructions: 1190000146 cycles: 2289444297 heartbeat IPC: 0.3432 cumulative IPC: 0.5198 (Simulation time: 03 hr 53 min 13 sec)
Heartbeat CPU 0 instructions: 1200000147 cycles: 2299145916 heartbeat IPC: 1.031 cumulative IPC: 0.5219 (Simulation time: 03 hr 54 min 25 sec)
Heartbeat CPU 0 instructions: 1210000151 cycles: 2314215120 heartbeat IPC: 0.6636 cumulative IPC: 0.5229 (Simulation time: 03 hr 56 min 08 sec)
Heartbeat CPU 0 instructions: 1220000151 cycles: 2328131228 heartbeat IPC: 0.7186 cumulative IPC: 0.524 (Simulation time: 03 hr 57 min 47 sec)
Heartbeat CPU 0 instructions: 1230000154 cycles: 2336070884 heartbeat IPC: 1.26 cumulative IPC: 0.5265 (Simulation time: 03 hr 58 min 43 sec)
Heartbeat CPU 0 instructions: 1240000154 cycles: 2345745880 heartbeat IPC: 1.034 cumulative IPC: 0.5286 (Simulation time: 03 hr 59 min 45 sec)
Heartbeat CPU 0 instructions: 1250000157 cycles: 2366592362 heartbeat IPC: 0.4797 cumulative IPC: 0.5282 (Simulation time: 04 hr 01 min 46 sec)
Heartbeat CPU 0 instructions: 1260000157 cycles: 2375698699 heartbeat IPC: 1.098 cumulative IPC: 0.5304 (Simulation time: 04 hr 02 min 47 sec)
Heartbeat CPU 0 instructions: 1270000157 cycles: 2387826077 heartbeat IPC: 0.8246 cumulative IPC: 0.5319 (Simulation time: 04 hr 04 min 09 sec)
Heartbeat CPU 0 instructions: 1280000159 cycles: 2406415984 heartbeat IPC: 0.5379 cumulative IPC: 0.5319 (Simulation time: 04 hr 06 min 12 sec)
Heartbeat CPU 0 instructions: 1290000163 cycles: 2438064860 heartbeat IPC: 0.316 cumulative IPC: 0.5291 (Simulation time: 04 hr 09 min 15 sec)
Heartbeat CPU 0 instructions: 1300000165 cycles: 2447174837 heartbeat IPC: 1.098 cumulative IPC: 0.5312 (Simulation time: 04 hr 10 min 15 sec)
Heartbeat CPU 0 instructions: 1310000166 cycles: 2456762310 heartbeat IPC: 1.043 cumulative IPC: 0.5332 (Simulation time: 04 hr 11 min 06 sec)
Heartbeat CPU 0 instructions: 1320000166 cycles: 2464994406 heartbeat IPC: 1.215 cumulative IPC: 0.5355 (Simulation time: 04 hr 11 min 51 sec)
Heartbeat CPU 0 instructions: 1330000167 cycles: 2485614337 heartbeat IPC: 0.485 cumulative IPC: 0.5351 (Simulation time: 04 hr 13 min 27 sec)
Heartbeat CPU 0 instructions: 1340000168 cycles: 2521419870 heartbeat IPC: 0.2793 cumulative IPC: 0.5314 (Simulation time: 04 hr 16 min 39 sec)
Heartbeat CPU 0 instructions: 1350000171 cycles: 2543169464 heartbeat IPC: 0.4598 cumulative IPC: 0.5308 (Simulation time: 04 hr 18 min 31 sec)
Heartbeat CPU 0 instructions: 1360000171 cycles: 2552487994 heartbeat IPC: 1.073 cumulative IPC: 0.5328 (Simulation time: 04 hr 19 min 29 sec)
Heartbeat CPU 0 instructions: 1370000175 cycles: 2567021496 heartbeat IPC: 0.6881 cumulative IPC: 0.5337 (Simulation time: 04 hr 20 min 44 sec)
Heartbeat CPU 0 instructions: 1380000177 cycles: 2577172700 heartbeat IPC: 0.9851 cumulative IPC: 0.5355 (Simulation time: 04 hr 21 min 36 sec)
Heartbeat CPU 0 instructions: 1390000181 cycles: 2585385368 heartbeat IPC: 1.218 cumulative IPC: 0.5376 (Simulation time: 04 hr 22 min 23 sec)
Heartbeat CPU 0 instructions: 1400000181 cycles: 2594901469 heartbeat IPC: 1.051 cumulative IPC: 0.5395 (Simulation time: 04 hr 23 min 33 sec)
Heartbeat CPU 0 instructions: 1410000183 cycles: 2610254112 heartbeat IPC: 0.6514 cumulative IPC: 0.5402 (Simulation time: 04 hr 25 min 12 sec)
Heartbeat CPU 0 instructions: 1420000187 cycles: 2619431907 heartbeat IPC: 1.09 cumulative IPC: 0.5421 (Simulation time: 04 hr 26 min 12 sec)
Heartbeat CPU 0 instructions: 1430000189 cycles: 2627981785 heartbeat IPC: 1.17 cumulative IPC: 0.5441 (Simulation time: 04 hr 27 min 21 sec)
Heartbeat CPU 0 instructions: 1440000189 cycles: 2655501535 heartbeat IPC: 0.3634 cumulative IPC: 0.5423 (Simulation time: 04 hr 29 min 51 sec)
Heartbeat CPU 0 instructions: 1450000189 cycles: 2669563733 heartbeat IPC: 0.7111 cumulative IPC: 0.5432 (Simulation time: 04 hr 31 min 29 sec)
Heartbeat CPU 0 instructions: 1460000191 cycles: 2679215360 heartbeat IPC: 1.036 cumulative IPC: 0.5449 (Simulation time: 04 hr 32 min 45 sec)
Heartbeat CPU 0 instructions: 1470000194 cycles: 2688162313 heartbeat IPC: 1.118 cumulative IPC: 0.5468 (Simulation time: 04 hr 33 min 57 sec)
Heartbeat CPU 0 instructions: 1480000194 cycles: 2698063923 heartbeat IPC: 1.01 cumulative IPC: 0.5485 (Simulation time: 04 hr 35 min 13 sec)
Heartbeat CPU 0 instructions: 1490000196 cycles: 2724976056 heartbeat IPC: 0.3716 cumulative IPC: 0.5468 (Simulation time: 04 hr 38 min 04 sec)
Heartbeat CPU 0 instructions: 1500000198 cycles: 2733244346 heartbeat IPC: 1.209 cumulative IPC: 0.5488 (Simulation time: 04 hr 39 min 11 sec)
Heartbeat CPU 0 instructions: 1510000201 cycles: 2742254854 heartbeat IPC: 1.11 cumulative IPC: 0.5506 (Simulation time: 04 hr 40 min 22 sec)
Heartbeat CPU 0 instructions: 1520000201 cycles: 2752483479 heartbeat IPC: 0.9776 cumulative IPC: 0.5522 (Simulation time: 04 hr 41 min 40 sec)
Heartbeat CPU 0 instructions: 1530000203 cycles: 2786268847 heartbeat IPC: 0.296 cumulative IPC: 0.5491 (Simulation time: 04 hr 44 min 32 sec)
Heartbeat CPU 0 instructions: 1540000207 cycles: 2828100928 heartbeat IPC: 0.2391 cumulative IPC: 0.5445 (Simulation time: 04 hr 47 min 55 sec)
Heartbeat CPU 0 instructions: 1550000208 cycles: 2870904252 heartbeat IPC: 0.2336 cumulative IPC: 0.5399 (Simulation time: 04 hr 52 min 07 sec)
Heartbeat CPU 0 instructions: 1560000210 cycles: 2913494403 heartbeat IPC: 0.2348 cumulative IPC: 0.5354 (Simulation time: 04 hr 56 min 17 sec)
Heartbeat CPU 0 instructions: 1570000210 cycles: 2956786724 heartbeat IPC: 0.231 cumulative IPC: 0.531 (Simulation time: 05 hr 00 min 27 sec)
Heartbeat CPU 0 instructions: 1580000212 cycles: 3008144769 heartbeat IPC: 0.1947 cumulative IPC: 0.5252 (Simulation time: 05 hr 05 min 08 sec)
Heartbeat CPU 0 instructions: 1590000216 cycles: 3057322272 heartbeat IPC: 0.2033 cumulative IPC: 0.5201 (Simulation time: 05 hr 09 min 51 sec)
Heartbeat CPU 0 instructions: 1600000218 cycles: 3090442586 heartbeat IPC: 0.3019 cumulative IPC: 0.5177 (Simulation time: 05 hr 13 min 17 sec)
Heartbeat CPU 0 instructions: 1610000218 cycles: 3102037038 heartbeat IPC: 0.8625 cumulative IPC: 0.519 (Simulation time: 05 hr 14 min 29 sec)
Heartbeat CPU 0 instructions: 1620000222 cycles: 3111306202 heartbeat IPC: 1.079 cumulative IPC: 0.5207 (Simulation time: 05 hr 15 min 41 sec)
Heartbeat CPU 0 instructions: 1630000222 cycles: 3128765967 heartbeat IPC: 0.5727 cumulative IPC: 0.521 (Simulation time: 05 hr 17 min 37 sec)
Heartbeat CPU 0 instructions: 1640000224 cycles: 3138762170 heartbeat IPC: 1 cumulative IPC: 0.5225 (Simulation time: 05 hr 18 min 53 sec)
Heartbeat CPU 0 instructions: 1650000228 cycles: 3148618875 heartbeat IPC: 1.015 cumulative IPC: 0.524 (Simulation time: 05 hr 20 min 07 sec)
Heartbeat CPU 0 instructions: 1660000230 cycles: 3160785244 heartbeat IPC: 0.8219 cumulative IPC: 0.5252 (Simulation time: 05 hr 21 min 35 sec)
Heartbeat CPU 0 instructions: 1670000231 cycles: 3187891845 heartbeat IPC: 0.3689 cumulative IPC: 0.5239 (Simulation time: 05 hr 24 min 21 sec)
Heartbeat CPU 0 instructions: 1680000231 cycles: 3210702962 heartbeat IPC: 0.4384 cumulative IPC: 0.5232 (Simulation time: 05 hr 26 min 39 sec)
Heartbeat CPU 0 instructions: 1690000231 cycles: 3219125600 heartbeat IPC: 1.187 cumulative IPC: 0.525 (Simulation time: 05 hr 27 min 33 sec)
Heartbeat CPU 0 instructions: 1700000232 cycles: 3231890755 heartbeat IPC: 0.7834 cumulative IPC: 0.526 (Simulation time: 05 hr 28 min 50 sec)
Heartbeat CPU 0 instructions: 1710000233 cycles: 3243303720 heartbeat IPC: 0.8762 cumulative IPC: 0.5272 (Simulation time: 05 hr 29 min 58 sec)
Heartbeat CPU 0 instructions: 1720000233 cycles: 3253362434 heartbeat IPC: 0.9942 cumulative IPC: 0.5287 (Simulation time: 05 hr 31 min 12 sec)
Heartbeat CPU 0 instructions: 1730000235 cycles: 3261969185 heartbeat IPC: 1.162 cumulative IPC: 0.5304 (Simulation time: 05 hr 32 min 21 sec)
Heartbeat CPU 0 instructions: 1740000235 cycles: 3280992068 heartbeat IPC: 0.5257 cumulative IPC: 0.5303 (Simulation time: 05 hr 34 min 01 sec)
Heartbeat CPU 0 instructions: 1750000236 cycles: 3289617446 heartbeat IPC: 1.159 cumulative IPC: 0.532 (Simulation time: 05 hr 35 min 05 sec)
Heartbeat CPU 0 instructions: 1760000236 cycles: 3302831353 heartbeat IPC: 0.7568 cumulative IPC: 0.5329 (Simulation time: 05 hr 36 min 39 sec)
Heartbeat CPU 0 instructions: 1770000237 cycles: 3312658755 heartbeat IPC: 1.018 cumulative IPC: 0.5343 (Simulation time: 05 hr 37 min 53 sec)
Heartbeat CPU 0 instructions: 1780000237 cycles: 3333314322 heartbeat IPC: 0.4841 cumulative IPC: 0.534 (Simulation time: 05 hr 40 min 06 sec)
Heartbeat CPU 0 instructions: 1790000238 cycles: 3381169938 heartbeat IPC: 0.209 cumulative IPC: 0.5294 (Simulation time: 05 hr 44 min 40 sec)
Heartbeat CPU 0 instructions: 1800000240 cycles: 3403251181 heartbeat IPC: 0.4529 cumulative IPC: 0.5289 (Simulation time: 05 hr 47 min 03 sec)
Heartbeat CPU 0 instructions: 1810000240 cycles: 3413113466 heartbeat IPC: 1.014 cumulative IPC: 0.5303 (Simulation time: 05 hr 48 min 15 sec)
Heartbeat CPU 0 instructions: 1820000242 cycles: 3433049817 heartbeat IPC: 0.5016 cumulative IPC: 0.5301 (Simulation time: 05 hr 50 min 20 sec)
Heartbeat CPU 0 instructions: 1830000243 cycles: 3442753127 heartbeat IPC: 1.031 cumulative IPC: 0.5316 (Simulation time: 05 hr 51 min 34 sec)
Heartbeat CPU 0 instructions: 1840000243 cycles: 3450577774 heartbeat IPC: 1.278 cumulative IPC: 0.5332 (Simulation time: 05 hr 52 min 37 sec)
Heartbeat CPU 0 instructions: 1850000243 cycles: 3460453521 heartbeat IPC: 1.013 cumulative IPC: 0.5346 (Simulation time: 05 hr 53 min 52 sec)
Heartbeat CPU 0 instructions: 1860000245 cycles: 3475495441 heartbeat IPC: 0.6648 cumulative IPC: 0.5352 (Simulation time: 05 hr 55 min 37 sec)
Heartbeat CPU 0 instructions: 1870000249 cycles: 3491093217 heartbeat IPC: 0.6411 cumulative IPC: 0.5356 (Simulation time: 05 hr 57 min 27 sec)
Heartbeat CPU 0 instructions: 1880000253 cycles: 3499884367 heartbeat IPC: 1.138 cumulative IPC: 0.5372 (Simulation time: 05 hr 58 min 35 sec)
Heartbeat CPU 0 instructions: 1890000255 cycles: 3516632701 heartbeat IPC: 0.5971 cumulative IPC: 0.5374 (Simulation time: 06 hr 00 min 31 sec)
Heartbeat CPU 0 instructions: 1900000258 cycles: 3525131276 heartbeat IPC: 1.177 cumulative IPC: 0.539 (Simulation time: 06 hr 01 min 38 sec)
Heartbeat CPU 0 instructions: 1910000258 cycles: 3536033388 heartbeat IPC: 0.9173 cumulative IPC: 0.5402 (Simulation time: 06 hr 02 min 58 sec)
Heartbeat CPU 0 instructions: 1920000259 cycles: 3545467367 heartbeat IPC: 1.06 cumulative IPC: 0.5415 (Simulation time: 06 hr 04 min 11 sec)
Heartbeat CPU 0 instructions: 1930000261 cycles: 3561318277 heartbeat IPC: 0.6309 cumulative IPC: 0.5419 (Simulation time: 06 hr 05 min 57 sec)
Heartbeat CPU 0 instructions: 1940000262 cycles: 3570117227 heartbeat IPC: 1.136 cumulative IPC: 0.5434 (Simulation time: 06 hr 06 min 49 sec)
Heartbeat CPU 0 instructions: 1950000263 cycles: 3582138505 heartbeat IPC: 0.8319 cumulative IPC: 0.5444 (Simulation time: 06 hr 07 min 59 sec)
Heartbeat CPU 0 instructions: 1960000263 cycles: 3592325773 heartbeat IPC: 0.9816 cumulative IPC: 0.5456 (Simulation time: 06 hr 09 min 05 sec)
Heartbeat CPU 0 instructions: 1970000266 cycles: 3618071649 heartbeat IPC: 0.3884 cumulative IPC: 0.5445 (Simulation time: 06 hr 11 min 41 sec)
Heartbeat CPU 0 instructions: 1980000267 cycles: 3665689353 heartbeat IPC: 0.21 cumulative IPC: 0.5401 (Simulation time: 06 hr 15 min 31 sec)
Heartbeat CPU 0 instructions: 1990000270 cycles: 3713804236 heartbeat IPC: 0.2078 cumulative IPC: 0.5358 (Simulation time: 06 hr 19 min 24 sec)

=== ERROR PAGE STATISTICS ===
Mode: CYCLE
Error Cycle Interval: 10000000000 CPU cycles
Total Error Accesses: 0
==============================
Simulation finished CPU 0 instructions: 1999999916 cycles: 3758104297 cumulative IPC: 0.5322 (Simulation time: 06 hr 23 min 42 sec)
Simulation complete CPU 0 instructions: 1999999916 cycles: 3758104297 cumulative IPC: 0.5322 (Simulation time: 06 hr 23 min 42 sec)

ChampSim completed all CPUs

=== Simulation ===
CPU 0 runs test_traces/605.mcf_s-994B.champsimtrace.xz

Region of Interest Statistics

CPU 0 cumulative IPC: 0.5322 instructions: 1999999916 cycles: 3758104297
CPU 0 Branch Prediction Accuracy: 92.62% MPKI: 18.99 Average ROB Occupancy at Mispredict: 32.65
Branch type MPKI
BRANCH_DIRECT_JUMP: 0.123
BRANCH_INDIRECT: 0
BRANCH_CONDITIONAL: 18.86
BRANCH_DIRECT_CALL: 6.5e-06
BRANCH_INDIRECT_CALL: 0.0004185
BRANCH_RETURN: 1e-05

cpu0->cpu0_STLB TOTAL        ACCESS:    5250157 HIT:    5249275 MISS:        882 MSHR_MERGE:          0
cpu0->cpu0_STLB LOAD         ACCESS:    5250157 HIT:    5249275 MISS:        882 MSHR_MERGE:          0
cpu0->cpu0_STLB RFO          ACCESS:          0 HIT:          0 MISS:          0 MSHR_MERGE:          0
cpu0->cpu0_STLB PREFETCH     ACCESS:          0 HIT:          0 MISS:          0 MSHR_MERGE:          0
cpu0->cpu0_STLB WRITE        ACCESS:          0 HIT:          0 MISS:          0 MSHR_MERGE:          0
cpu0->cpu0_STLB TRANSLATION  ACCESS:          0 HIT:          0 MISS:          0 MSHR_MERGE:          0
cpu0->cpu0_STLB PREFETCH REQUESTED:          0 ISSUED:          0 USEFUL:          0 USELESS:          0
cpu0->cpu0_STLB AVERAGE MISS LATENCY: 8687 cycles
cpu0->cpu0_L2C TOTAL        ACCESS:   81180838 HIT:   27540035 MISS:   53640803 MSHR_MERGE:          0
cpu0->cpu0_L2C LOAD         ACCESS:   75043374 HIT:   21467025 MISS:   53576349 MSHR_MERGE:          0
cpu0->cpu0_L2C RFO          ACCESS:     492486 HIT:     432317 MISS:      60169 MSHR_MERGE:          0
cpu0->cpu0_L2C PREFETCH     ACCESS:          0 HIT:          0 MISS:          0 MSHR_MERGE:          0
cpu0->cpu0_L2C WRITE        ACCESS:    5644978 HIT:    5640693 MISS:       4285 MSHR_MERGE:          0
cpu0->cpu0_L2C TRANSLATION  ACCESS:          0 HIT:          0 MISS:          0 MSHR_MERGE:          0
cpu0->cpu0_L2C PREFETCH REQUESTED:          0 ISSUED:          0 USEFUL:          0 USELESS:          0
cpu0->cpu0_L2C AVERAGE MISS LATENCY: 94.06 cycles
cpu0->cpu0_L1I TOTAL        ACCESS:    2873358 HIT:    2873266 MISS:         92 MSHR_MERGE:         26
cpu0->cpu0_L1I LOAD         ACCESS:    2873358 HIT:    2873266 MISS:         92 MSHR_MERGE:         26
cpu0->cpu0_L1I RFO          ACCESS:          0 HIT:          0 MISS:          0 MSHR_MERGE:          0
cpu0->cpu0_L1I PREFETCH     ACCESS:          0 HIT:          0 MISS:          0 MSHR_MERGE:          0
cpu0->cpu0_L1I WRITE        ACCESS:          0 HIT:          0 MISS:          0 MSHR_MERGE:          0
cpu0->cpu0_L1I TRANSLATION  ACCESS:          0 HIT:          0 MISS:          0 MSHR_MERGE:          0
cpu0->cpu0_L1I PREFETCH REQUESTED:          0 ISSUED:          0 USEFUL:          0 USELESS:          0
cpu0->cpu0_L1I AVERAGE MISS LATENCY: 115.7 cycles
cpu0->cpu0_L1D TOTAL        ACCESS:  810914133 HIT:  728552912 MISS:   82361221 MSHR_MERGE:    6824248
cpu0->cpu0_L1D LOAD         ACCESS:  610330356 HIT:  529345817 MISS:   80984539 MSHR_MERGE:    5941210
cpu0->cpu0_L1D RFO          ACCESS:          0 HIT:          0 MISS:          0 MSHR_MERGE:          0
cpu0->cpu0_L1D PREFETCH     ACCESS:          0 HIT:          0 MISS:          0 MSHR_MERGE:          0
cpu0->cpu0_L1D WRITE        ACCESS:  200583777 HIT:  199207095 MISS:    1376682 MSHR_MERGE:     883038
cpu0->cpu0_L1D TRANSLATION  ACCESS:          0 HIT:          0 MISS:          0 MSHR_MERGE:          0
cpu0->cpu0_L1D PREFETCH REQUESTED:          0 ISSUED:          0 USEFUL:          0 USELESS:          0
cpu0->cpu0_L1D AVERAGE MISS LATENCY: 75.63 cycles
cpu0->cpu0_ITLB TOTAL        ACCESS:    2722799 HIT:    2722798 MISS:          1 MSHR_MERGE:          0
cpu0->cpu0_ITLB LOAD         ACCESS:    2722799 HIT:    2722798 MISS:          1 MSHR_MERGE:          0
cpu0->cpu0_ITLB RFO          ACCESS:          0 HIT:          0 MISS:          0 MSHR_MERGE:          0
cpu0->cpu0_ITLB PREFETCH     ACCESS:          0 HIT:          0 MISS:          0 MSHR_MERGE:          0
cpu0->cpu0_ITLB WRITE        ACCESS:          0 HIT:          0 MISS:          0 MSHR_MERGE:          0
cpu0->cpu0_ITLB TRANSLATION  ACCESS:          0 HIT:          0 MISS:          0 MSHR_MERGE:          0
cpu0->cpu0_ITLB PREFETCH REQUESTED:          0 ISSUED:          0 USEFUL:          0 USELESS:          0
cpu0->cpu0_ITLB AVERAGE MISS LATENCY: 1.722e+04 cycles
cpu0->cpu0_DTLB TOTAL        ACCESS:  704841104 HIT:  699167159 MISS:    5673945 MSHR_MERGE:     423789
cpu0->cpu0_DTLB LOAD         ACCESS:  704841104 HIT:  699167159 MISS:    5673945 MSHR_MERGE:     423789
cpu0->cpu0_DTLB RFO          ACCESS:          0 HIT:          0 MISS:          0 MSHR_MERGE:          0
cpu0->cpu0_DTLB PREFETCH     ACCESS:          0 HIT:          0 MISS:          0 MSHR_MERGE:          0
cpu0->cpu0_DTLB WRITE        ACCESS:          0 HIT:          0 MISS:          0 MSHR_MERGE:          0
cpu0->cpu0_DTLB TRANSLATION  ACCESS:          0 HIT:          0 MISS:          0 MSHR_MERGE:          0
cpu0->cpu0_DTLB PREFETCH REQUESTED:          0 ISSUED:          0 USEFUL:          0 USELESS:          0
cpu0->cpu0_DTLB AVERAGE MISS LATENCY: 6.464 cycles
cpu0->LLC TOTAL        ACCESS:   57571111 HIT:   16528556 MISS:   41042555 MSHR_MERGE:          0
cpu0->LLC LOAD         ACCESS:   53576349 HIT:   12553504 MISS:   41022845 MSHR_MERGE:          0
cpu0->LLC RFO          ACCESS:      60169 HIT:      41694 MISS:      18475 MSHR_MERGE:          0
cpu0->LLC PREFETCH     ACCESS:          0 HIT:          0 MISS:          0 MSHR_MERGE:          0
cpu0->LLC WRITE        ACCESS:    3934593 HIT:    3933358 MISS:       1235 MSHR_MERGE:          0
cpu0->LLC TRANSLATION  ACCESS:          0 HIT:          0 MISS:          0 MSHR_MERGE:          0
cpu0->LLC PREFETCH REQUESTED:          0 ISSUED:          0 USEFUL:          0 USELESS:          0
cpu0->LLC AVERAGE MISS LATENCY: 102.3 cycles

DRAM Statistics

Channel 0 RQ ROW_BUFFER_HIT:     274419
  ROW_BUFFER_MISS:   20244583
  AVG DBUS CONGESTED CYCLE: 9.324
Channel 0 WQ ROW_BUFFER_HIT:     332941
  ROW_BUFFER_MISS:    1234983
  FULL:          0
Channel 0 REFRESHES ISSUED:     313155

Channel 1 RQ ROW_BUFFER_HIT:     274542
  ROW_BUFFER_MISS:   20249492
  AVG DBUS CONGESTED CYCLE: 9.321
Channel 1 WQ ROW_BUFFER_HIT:     332178
  ROW_BUFFER_MISS:    1235538
  FULL:          0
Channel 1 REFRESHES ISSUED:     313155
