[VMEM] WARNING: physical memory size is smaller than virtual memory size.

*** ChampSim Multicore Out-of-Order Simulator ***
Warmup Instructions: 0
Simulation Instructions: 9223372036854775807
Number of CPUs: 1
Page size: 4096

Off-chip DRAM Size: 64 GiB Channels: 2 Width: 32-bit Data Rate: 4807 MT/s
[ERROR_PAGE_MANAGER] Error latency: 173500 
[ERROR_PAGE_MANAGER] Random seed: 54321 (fixed for preload reproducibility)
[ERROR_PAGE_MANAGER] Cycle-based error modeling enabled
[ERROR_PAGE_MANAGER] Errors per interval: 1
[ERROR_PAGE_MANAGER] Error cycle interval: 1000000000 cycles

=== ERROR PAGE STATISTICS ===
Mode: CYCLE
Error Cycle Interval: 1000000000 CPU cycles
Total Error Accesses: 0
==============================
Warmup finished CPU 0 instructions: 0 cycles: 1 cumulative IPC: 0 (Simulation time: 00 hr 00 min 01 sec)
Warmup complete CPU 0 instructions: 0 cycles: 1 cumulative IPC: 0 (Simulation time: 00 hr 00 min 01 sec)
Heartbeat CPU 0 instructions: 10000003 cycles: 9267110 heartbeat IPC: 1.079 cumulative IPC: 1.079 (Simulation time: 00 hr 01 min 27 sec)
Heartbeat CPU 0 instructions: 20000006 cycles: 19900777 heartbeat IPC: 0.9404 cumulative IPC: 1.005 (Simulation time: 00 hr 03 min 00 sec)
Heartbeat CPU 0 instructions: 30000006 cycles: 32036301 heartbeat IPC: 0.824 cumulative IPC: 0.9364 (Simulation time: 00 hr 04 min 43 sec)
Heartbeat CPU 0 instructions: 40000008 cycles: 48170100 heartbeat IPC: 0.6198 cumulative IPC: 0.8304 (Simulation time: 00 hr 07 min 03 sec)
Heartbeat CPU 0 instructions: 50000009 cycles: 59509392 heartbeat IPC: 0.8819 cumulative IPC: 0.8402 (Simulation time: 00 hr 08 min 40 sec)
Heartbeat CPU 0 instructions: 60000012 cycles: 71628635 heartbeat IPC: 0.8251 cumulative IPC: 0.8377 (Simulation time: 00 hr 09 min 59 sec)
Heartbeat CPU 0 instructions: 70000012 cycles: 86224985 heartbeat IPC: 0.6851 cumulative IPC: 0.8118 (Simulation time: 00 hr 11 min 48 sec)
Heartbeat CPU 0 instructions: 80000013 cycles: 98234120 heartbeat IPC: 0.8327 cumulative IPC: 0.8144 (Simulation time: 00 hr 13 min 21 sec)
Heartbeat CPU 0 instructions: 90000015 cycles: 110693802 heartbeat IPC: 0.8026 cumulative IPC: 0.8131 (Simulation time: 00 hr 15 min 00 sec)
Heartbeat CPU 0 instructions: 100000015 cycles: 128020170 heartbeat IPC: 0.5772 cumulative IPC: 0.7811 (Simulation time: 00 hr 16 min 49 sec)
Heartbeat CPU 0 instructions: 110000019 cycles: 134471366 heartbeat IPC: 1.55 cumulative IPC: 0.818 (Simulation time: 00 hr 17 min 32 sec)
Heartbeat CPU 0 instructions: 120000021 cycles: 142649434 heartbeat IPC: 1.223 cumulative IPC: 0.8412 (Simulation time: 00 hr 18 min 34 sec)
Heartbeat CPU 0 instructions: 130000021 cycles: 148733229 heartbeat IPC: 1.644 cumulative IPC: 0.874 (Simulation time: 00 hr 19 min 15 sec)
Heartbeat CPU 0 instructions: 140000021 cycles: 157004561 heartbeat IPC: 1.209 cumulative IPC: 0.8917 (Simulation time: 00 hr 20 min 30 sec)
Heartbeat CPU 0 instructions: 150000024 cycles: 163606223 heartbeat IPC: 1.515 cumulative IPC: 0.9168 (Simulation time: 00 hr 21 min 27 sec)
Heartbeat CPU 0 instructions: 160000027 cycles: 171013135 heartbeat IPC: 1.35 cumulative IPC: 0.9356 (Simulation time: 00 hr 22 min 38 sec)
Heartbeat CPU 0 instructions: 170000028 cycles: 178948823 heartbeat IPC: 1.26 cumulative IPC: 0.95 (Simulation time: 00 hr 23 min 51 sec)
Heartbeat CPU 0 instructions: 180000028 cycles: 185146501 heartbeat IPC: 1.614 cumulative IPC: 0.9722 (Simulation time: 00 hr 24 min 53 sec)
Heartbeat CPU 0 instructions: 190000028 cycles: 193896848 heartbeat IPC: 1.143 cumulative IPC: 0.9799 (Simulation time: 00 hr 26 min 08 sec)
Heartbeat CPU 0 instructions: 200000028 cycles: 200252857 heartbeat IPC: 1.573 cumulative IPC: 0.9987 (Simulation time: 00 hr 27 min 12 sec)
Heartbeat CPU 0 instructions: 210000028 cycles: 206637345 heartbeat IPC: 1.566 cumulative IPC: 1.016 (Simulation time: 00 hr 28 min 11 sec)
Heartbeat CPU 0 instructions: 220000030 cycles: 213126273 heartbeat IPC: 1.541 cumulative IPC: 1.032 (Simulation time: 00 hr 28 min 59 sec)
Heartbeat CPU 0 instructions: 230000031 cycles: 225712423 heartbeat IPC: 0.7945 cumulative IPC: 1.019 (Simulation time: 00 hr 30 min 36 sec)
Heartbeat CPU 0 instructions: 240000032 cycles: 238484752 heartbeat IPC: 0.7829 cumulative IPC: 1.006 (Simulation time: 00 hr 32 min 23 sec)
Heartbeat CPU 0 instructions: 250000033 cycles: 244784115 heartbeat IPC: 1.587 cumulative IPC: 1.021 (Simulation time: 00 hr 33 min 18 sec)
Heartbeat CPU 0 instructions: 260000037 cycles: 251866038 heartbeat IPC: 1.412 cumulative IPC: 1.032 (Simulation time: 00 hr 34 min 27 sec)
Heartbeat CPU 0 instructions: 270000040 cycles: 258747676 heartbeat IPC: 1.453 cumulative IPC: 1.043 (Simulation time: 00 hr 35 min 34 sec)
Heartbeat CPU 0 instructions: 280000044 cycles: 264938398 heartbeat IPC: 1.615 cumulative IPC: 1.057 (Simulation time: 00 hr 36 min 29 sec)
Heartbeat CPU 0 instructions: 290000047 cycles: 271771805 heartbeat IPC: 1.463 cumulative IPC: 1.067 (Simulation time: 00 hr 37 min 31 sec)
Heartbeat CPU 0 instructions: 300000049 cycles: 279917411 heartbeat IPC: 1.228 cumulative IPC: 1.072 (Simulation time: 00 hr 38 min 37 sec)
Heartbeat CPU 0 instructions: 310000049 cycles: 292388687 heartbeat IPC: 0.8018 cumulative IPC: 1.06 (Simulation time: 00 hr 39 min 56 sec)
Heartbeat CPU 0 instructions: 320000053 cycles: 301301300 heartbeat IPC: 1.122 cumulative IPC: 1.062 (Simulation time: 00 hr 41 min 03 sec)
Heartbeat CPU 0 instructions: 330000055 cycles: 312053666 heartbeat IPC: 0.93 cumulative IPC: 1.058 (Simulation time: 00 hr 42 min 25 sec)
Heartbeat CPU 0 instructions: 340000057 cycles: 324110048 heartbeat IPC: 0.8294 cumulative IPC: 1.049 (Simulation time: 00 hr 43 min 54 sec)
Heartbeat CPU 0 instructions: 350000057 cycles: 339927843 heartbeat IPC: 0.6322 cumulative IPC: 1.03 (Simulation time: 00 hr 45 min 57 sec)
Heartbeat CPU 0 instructions: 360000059 cycles: 351613007 heartbeat IPC: 0.8558 cumulative IPC: 1.024 (Simulation time: 00 hr 47 min 37 sec)
Heartbeat CPU 0 instructions: 370000059 cycles: 363925704 heartbeat IPC: 0.8122 cumulative IPC: 1.017 (Simulation time: 00 hr 49 min 18 sec)
Heartbeat CPU 0 instructions: 380000060 cycles: 378691923 heartbeat IPC: 0.6772 cumulative IPC: 1.003 (Simulation time: 00 hr 51 min 21 sec)
Heartbeat CPU 0 instructions: 390000060 cycles: 391102034 heartbeat IPC: 0.8058 cumulative IPC: 0.9972 (Simulation time: 00 hr 52 min 58 sec)
Heartbeat CPU 0 instructions: 400000060 cycles: 403919935 heartbeat IPC: 0.7802 cumulative IPC: 0.9903 (Simulation time: 00 hr 54 min 42 sec)
Heartbeat CPU 0 instructions: 410000063 cycles: 418350777 heartbeat IPC: 0.693 cumulative IPC: 0.98 (Simulation time: 00 hr 56 min 27 sec)
Heartbeat CPU 0 instructions: 420000066 cycles: 430722981 heartbeat IPC: 0.8083 cumulative IPC: 0.9751 (Simulation time: 00 hr 58 min 05 sec)
Heartbeat CPU 0 instructions: 430000068 cycles: 445178822 heartbeat IPC: 0.6918 cumulative IPC: 0.9659 (Simulation time: 00 hr 59 min 56 sec)
Heartbeat CPU 0 instructions: 440000069 cycles: 458848573 heartbeat IPC: 0.7315 cumulative IPC: 0.9589 (Simulation time: 01 hr 01 min 45 sec)
Heartbeat CPU 0 instructions: 450000069 cycles: 471076992 heartbeat IPC: 0.8178 cumulative IPC: 0.9553 (Simulation time: 01 hr 03 min 21 sec)
Heartbeat CPU 0 instructions: 460000072 cycles: 486833451 heartbeat IPC: 0.6347 cumulative IPC: 0.9449 (Simulation time: 01 hr 05 min 18 sec)
Heartbeat CPU 0 instructions: 470000074 cycles: 504232285 heartbeat IPC: 0.5748 cumulative IPC: 0.9321 (Simulation time: 01 hr 07 min 30 sec)
Heartbeat CPU 0 instructions: 480000074 cycles: 510604623 heartbeat IPC: 1.569 cumulative IPC: 0.9401 (Simulation time: 01 hr 08 min 24 sec)
Heartbeat CPU 0 instructions: 490000078 cycles: 517754220 heartbeat IPC: 1.399 cumulative IPC: 0.9464 (Simulation time: 01 hr 09 min 32 sec)
Heartbeat CPU 0 instructions: 500000080 cycles: 526603999 heartbeat IPC: 1.13 cumulative IPC: 0.9495 (Simulation time: 01 hr 10 min 55 sec)
Heartbeat CPU 0 instructions: 510000083 cycles: 538151619 heartbeat IPC: 0.866 cumulative IPC: 0.9477 (Simulation time: 01 hr 12 min 29 sec)
Heartbeat CPU 0 instructions: 520000087 cycles: 544583313 heartbeat IPC: 1.555 cumulative IPC: 0.9549 (Simulation time: 01 hr 13 min 31 sec)
Heartbeat CPU 0 instructions: 530000091 cycles: 551851831 heartbeat IPC: 1.376 cumulative IPC: 0.9604 (Simulation time: 01 hr 14 min 47 sec)
Heartbeat CPU 0 instructions: 540000092 cycles: 561423233 heartbeat IPC: 1.045 cumulative IPC: 0.9618 (Simulation time: 01 hr 16 min 12 sec)
Heartbeat CPU 0 instructions: 550000092 cycles: 573359155 heartbeat IPC: 0.8378 cumulative IPC: 0.9593 (Simulation time: 01 hr 17 min 50 sec)
Heartbeat CPU 0 instructions: 560000093 cycles: 579794038 heartbeat IPC: 1.554 cumulative IPC: 0.9659 (Simulation time: 01 hr 18 min 58 sec)
Heartbeat CPU 0 instructions: 570000093 cycles: 587053315 heartbeat IPC: 1.378 cumulative IPC: 0.971 (Simulation time: 01 hr 20 min 13 sec)
Heartbeat CPU 0 instructions: 580000093 cycles: 596663796 heartbeat IPC: 1.041 cumulative IPC: 0.9721 (Simulation time: 01 hr 21 min 39 sec)
Heartbeat CPU 0 instructions: 590000093 cycles: 608304985 heartbeat IPC: 0.859 cumulative IPC: 0.9699 (Simulation time: 01 hr 23 min 16 sec)
Heartbeat CPU 0 instructions: 600000094 cycles: 614809955 heartbeat IPC: 1.537 cumulative IPC: 0.9759 (Simulation time: 01 hr 24 min 25 sec)
Heartbeat CPU 0 instructions: 610000096 cycles: 622057652 heartbeat IPC: 1.38 cumulative IPC: 0.9806 (Simulation time: 01 hr 25 min 40 sec)
Heartbeat CPU 0 instructions: 620000096 cycles: 631955006 heartbeat IPC: 1.01 cumulative IPC: 0.9811 (Simulation time: 01 hr 26 min 44 sec)
Heartbeat CPU 0 instructions: 630000097 cycles: 643745993 heartbeat IPC: 0.8481 cumulative IPC: 0.9786 (Simulation time: 01 hr 27 min 55 sec)
Heartbeat CPU 0 instructions: 640000097 cycles: 650269752 heartbeat IPC: 1.533 cumulative IPC: 0.9842 (Simulation time: 01 hr 28 min 57 sec)
Heartbeat CPU 0 instructions: 650000098 cycles: 657579812 heartbeat IPC: 1.368 cumulative IPC: 0.9885 (Simulation time: 01 hr 30 min 12 sec)
Heartbeat CPU 0 instructions: 660000099 cycles: 667533295 heartbeat IPC: 1.005 cumulative IPC: 0.9887 (Simulation time: 01 hr 31 min 38 sec)
Heartbeat CPU 0 instructions: 670000103 cycles: 679776695 heartbeat IPC: 0.8168 cumulative IPC: 0.9856 (Simulation time: 01 hr 33 min 16 sec)
Heartbeat CPU 0 instructions: 680000105 cycles: 686178231 heartbeat IPC: 1.562 cumulative IPC: 0.991 (Simulation time: 01 hr 34 min 19 sec)
Heartbeat CPU 0 instructions: 690000106 cycles: 692605420 heartbeat IPC: 1.556 cumulative IPC: 0.9962 (Simulation time: 01 hr 35 min 20 sec)
Heartbeat CPU 0 instructions: 700000110 cycles: 699014646 heartbeat IPC: 1.56 cumulative IPC: 1.001 (Simulation time: 01 hr 36 min 11 sec)
Heartbeat CPU 0 instructions: 710000110 cycles: 706450220 heartbeat IPC: 1.345 cumulative IPC: 1.005 (Simulation time: 01 hr 37 min 23 sec)
[ERROR_CYCLE] Error added at CPU cycle 712780568, next at 915330628, pending count: 1
[DRAM_CYCLE_ERROR] Cycle-based error applied! address=0x269f0b1c0 additional_latency=173500 cycles
Heartbeat CPU 0 instructions: 720000110 cycles: 713290720 heartbeat IPC: 1.462 cumulative IPC: 1.009 (Simulation time: 01 hr 38 min 32 sec)
Heartbeat CPU 0 instructions: 730000110 cycles: 720151424 heartbeat IPC: 1.458 cumulative IPC: 1.014 (Simulation time: 01 hr 39 min 35 sec)
Heartbeat CPU 0 instructions: 740000110 cycles: 728034946 heartbeat IPC: 1.268 cumulative IPC: 1.016 (Simulation time: 01 hr 40 min 42 sec)
Heartbeat CPU 0 instructions: 750000110 cycles: 735859679 heartbeat IPC: 1.278 cumulative IPC: 1.019 (Simulation time: 01 hr 41 min 41 sec)
Heartbeat CPU 0 instructions: 760000110 cycles: 743806321 heartbeat IPC: 1.258 cumulative IPC: 1.022 (Simulation time: 01 hr 42 min 41 sec)
Heartbeat CPU 0 instructions: 770000110 cycles: 751705988 heartbeat IPC: 1.266 cumulative IPC: 1.024 (Simulation time: 01 hr 43 min 43 sec)
Heartbeat CPU 0 instructions: 780000114 cycles: 759639763 heartbeat IPC: 1.26 cumulative IPC: 1.027 (Simulation time: 01 hr 44 min 36 sec)
Heartbeat CPU 0 instructions: 790000115 cycles: 767646708 heartbeat IPC: 1.249 cumulative IPC: 1.029 (Simulation time: 01 hr 45 min 18 sec)
Heartbeat CPU 0 instructions: 800000115 cycles: 775539146 heartbeat IPC: 1.267 cumulative IPC: 1.032 (Simulation time: 01 hr 46 min 18 sec)
Heartbeat CPU 0 instructions: 810000115 cycles: 783495345 heartbeat IPC: 1.257 cumulative IPC: 1.034 (Simulation time: 01 hr 47 min 17 sec)
Heartbeat CPU 0 instructions: 820000115 cycles: 791569841 heartbeat IPC: 1.238 cumulative IPC: 1.036 (Simulation time: 01 hr 48 min 18 sec)
Heartbeat CPU 0 instructions: 830000115 cycles: 799363251 heartbeat IPC: 1.283 cumulative IPC: 1.038 (Simulation time: 01 hr 49 min 19 sec)
Heartbeat CPU 0 instructions: 840000119 cycles: 807574159 heartbeat IPC: 1.218 cumulative IPC: 1.04 (Simulation time: 01 hr 50 min 22 sec)
Heartbeat CPU 0 instructions: 850000122 cycles: 815442468 heartbeat IPC: 1.271 cumulative IPC: 1.042 (Simulation time: 01 hr 51 min 15 sec)
Heartbeat CPU 0 instructions: 860000126 cycles: 823657697 heartbeat IPC: 1.217 cumulative IPC: 1.044 (Simulation time: 01 hr 52 min 01 sec)
Heartbeat CPU 0 instructions: 870000127 cycles: 831576053 heartbeat IPC: 1.263 cumulative IPC: 1.046 (Simulation time: 01 hr 52 min 41 sec)
Heartbeat CPU 0 instructions: 880000130 cycles: 839694243 heartbeat IPC: 1.232 cumulative IPC: 1.048 (Simulation time: 01 hr 53 min 34 sec)
Heartbeat CPU 0 instructions: 890000130 cycles: 847885277 heartbeat IPC: 1.221 cumulative IPC: 1.05 (Simulation time: 01 hr 54 min 35 sec)
Heartbeat CPU 0 instructions: 900000134 cycles: 855760372 heartbeat IPC: 1.27 cumulative IPC: 1.052 (Simulation time: 01 hr 55 min 37 sec)
Heartbeat CPU 0 instructions: 910000134 cycles: 864228052 heartbeat IPC: 1.181 cumulative IPC: 1.053 (Simulation time: 01 hr 56 min 43 sec)
Heartbeat CPU 0 instructions: 920000138 cycles: 872298541 heartbeat IPC: 1.239 cumulative IPC: 1.055 (Simulation time: 01 hr 57 min 46 sec)
Heartbeat CPU 0 instructions: 930000142 cycles: 880413595 heartbeat IPC: 1.232 cumulative IPC: 1.056 (Simulation time: 01 hr 58 min 49 sec)
Heartbeat CPU 0 instructions: 940000145 cycles: 888627098 heartbeat IPC: 1.218 cumulative IPC: 1.058 (Simulation time: 01 hr 59 min 53 sec)
Heartbeat CPU 0 instructions: 950000148 cycles: 896606177 heartbeat IPC: 1.253 cumulative IPC: 1.06 (Simulation time: 02 hr 00 min 43 sec)
Heartbeat CPU 0 instructions: 960000148 cycles: 904896652 heartbeat IPC: 1.206 cumulative IPC: 1.061 (Simulation time: 02 hr 01 min 43 sec)
Heartbeat CPU 0 instructions: 970000150 cycles: 912850576 heartbeat IPC: 1.257 cumulative IPC: 1.063 (Simulation time: 02 hr 02 min 29 sec)
[ERROR_CYCLE] Error added at CPU cycle 915330628, next at 2569606398, pending count: 1
[DRAM_CYCLE_ERROR] Cycle-based error applied! address=0xc39c54c70 additional_latency=173500 cycles
Heartbeat CPU 0 instructions: 980000151 cycles: 921230221 heartbeat IPC: 1.193 cumulative IPC: 1.064 (Simulation time: 02 hr 03 min 18 sec)
Heartbeat CPU 0 instructions: 990000151 cycles: 929109361 heartbeat IPC: 1.269 cumulative IPC: 1.066 (Simulation time: 02 hr 04 min 10 sec)
Heartbeat CPU 0 instructions: 1000000152 cycles: 937477552 heartbeat IPC: 1.195 cumulative IPC: 1.067 (Simulation time: 02 hr 05 min 12 sec)
Heartbeat CPU 0 instructions: 1010000154 cycles: 945310653 heartbeat IPC: 1.277 cumulative IPC: 1.068 (Simulation time: 02 hr 06 min 13 sec)
Heartbeat CPU 0 instructions: 1020000155 cycles: 953578085 heartbeat IPC: 1.21 cumulative IPC: 1.07 (Simulation time: 02 hr 07 min 15 sec)
Heartbeat CPU 0 instructions: 1030000157 cycles: 961593973 heartbeat IPC: 1.248 cumulative IPC: 1.071 (Simulation time: 02 hr 08 min 16 sec)
Heartbeat CPU 0 instructions: 1040000157 cycles: 969930975 heartbeat IPC: 1.199 cumulative IPC: 1.072 (Simulation time: 02 hr 09 min 20 sec)
Heartbeat CPU 0 instructions: 1050000157 cycles: 978049992 heartbeat IPC: 1.232 cumulative IPC: 1.074 (Simulation time: 02 hr 10 min 22 sec)
Heartbeat CPU 0 instructions: 1060000158 cycles: 985932673 heartbeat IPC: 1.269 cumulative IPC: 1.075 (Simulation time: 02 hr 11 min 24 sec)
Heartbeat CPU 0 instructions: 1070000161 cycles: 994203623 heartbeat IPC: 1.209 cumulative IPC: 1.076 (Simulation time: 02 hr 12 min 28 sec)
Heartbeat CPU 0 instructions: 1080000163 cycles: 1002268135 heartbeat IPC: 1.24 cumulative IPC: 1.078 (Simulation time: 02 hr 13 min 31 sec)
Heartbeat CPU 0 instructions: 1090000163 cycles: 1010366573 heartbeat IPC: 1.235 cumulative IPC: 1.079 (Simulation time: 02 hr 14 min 34 sec)
Heartbeat CPU 0 instructions: 1100000167 cycles: 1018310706 heartbeat IPC: 1.259 cumulative IPC: 1.08 (Simulation time: 02 hr 15 min 32 sec)
Heartbeat CPU 0 instructions: 1110000170 cycles: 1026395767 heartbeat IPC: 1.237 cumulative IPC: 1.081 (Simulation time: 02 hr 16 min 21 sec)
Heartbeat CPU 0 instructions: 1120000170 cycles: 1034171305 heartbeat IPC: 1.286 cumulative IPC: 1.083 (Simulation time: 02 hr 17 min 21 sec)
Heartbeat CPU 0 instructions: 1130000172 cycles: 1042734906 heartbeat IPC: 1.168 cumulative IPC: 1.084 (Simulation time: 02 hr 18 min 29 sec)
Heartbeat CPU 0 instructions: 1140000172 cycles: 1050575886 heartbeat IPC: 1.275 cumulative IPC: 1.085 (Simulation time: 02 hr 19 min 44 sec)
Heartbeat CPU 0 instructions: 1150000172 cycles: 1056941331 heartbeat IPC: 1.571 cumulative IPC: 1.088 (Simulation time: 02 hr 20 min 49 sec)
Heartbeat CPU 0 instructions: 1160000172 cycles: 1063332748 heartbeat IPC: 1.565 cumulative IPC: 1.091 (Simulation time: 02 hr 21 min 54 sec)
Heartbeat CPU 0 instructions: 1170000173 cycles: 1074002834 heartbeat IPC: 0.9372 cumulative IPC: 1.089 (Simulation time: 02 hr 23 min 36 sec)
Heartbeat CPU 0 instructions: 1180000173 cycles: 1089542394 heartbeat IPC: 0.6435 cumulative IPC: 1.083 (Simulation time: 02 hr 25 min 19 sec)
Heartbeat CPU 0 instructions: 1190000173 cycles: 1099204462 heartbeat IPC: 1.035 cumulative IPC: 1.083 (Simulation time: 02 hr 26 min 30 sec)
Heartbeat CPU 0 instructions: 1200000175 cycles: 1106298330 heartbeat IPC: 1.41 cumulative IPC: 1.085 (Simulation time: 02 hr 27 min 29 sec)
Heartbeat CPU 0 instructions: 1210000175 cycles: 1113382788 heartbeat IPC: 1.412 cumulative IPC: 1.087 (Simulation time: 02 hr 28 min 25 sec)
Heartbeat CPU 0 instructions: 1220000176 cycles: 1120473507 heartbeat IPC: 1.41 cumulative IPC: 1.089 (Simulation time: 02 hr 29 min 13 sec)
Heartbeat CPU 0 instructions: 1230000176 cycles: 1136794666 heartbeat IPC: 0.6127 cumulative IPC: 1.082 (Simulation time: 02 hr 30 min 49 sec)
Heartbeat CPU 0 instructions: 1240000176 cycles: 1149067846 heartbeat IPC: 0.8148 cumulative IPC: 1.079 (Simulation time: 02 hr 32 min 15 sec)
Heartbeat CPU 0 instructions: 1250000176 cycles: 1157035702 heartbeat IPC: 1.255 cumulative IPC: 1.08 (Simulation time: 02 hr 32 min 58 sec)
Heartbeat CPU 0 instructions: 1260000180 cycles: 1164923737 heartbeat IPC: 1.268 cumulative IPC: 1.082 (Simulation time: 02 hr 33 min 43 sec)
Heartbeat CPU 0 instructions: 1270000180 cycles: 1172809397 heartbeat IPC: 1.268 cumulative IPC: 1.083 (Simulation time: 02 hr 34 min 43 sec)
Heartbeat CPU 0 instructions: 1280000181 cycles: 1180693131 heartbeat IPC: 1.268 cumulative IPC: 1.084 (Simulation time: 02 hr 35 min 33 sec)
Heartbeat CPU 0 instructions: 1290000182 cycles: 1188570357 heartbeat IPC: 1.269 cumulative IPC: 1.085 (Simulation time: 02 hr 36 min 16 sec)
Heartbeat CPU 0 instructions: 1300000182 cycles: 1196450137 heartbeat IPC: 1.269 cumulative IPC: 1.087 (Simulation time: 02 hr 37 min 15 sec)
Heartbeat CPU 0 instructions: 1310000185 cycles: 1204312552 heartbeat IPC: 1.272 cumulative IPC: 1.088 (Simulation time: 02 hr 38 min 16 sec)
Heartbeat CPU 0 instructions: 1320000186 cycles: 1212159527 heartbeat IPC: 1.274 cumulative IPC: 1.089 (Simulation time: 02 hr 39 min 04 sec)
Heartbeat CPU 0 instructions: 1330000186 cycles: 1219994031 heartbeat IPC: 1.276 cumulative IPC: 1.09 (Simulation time: 02 hr 39 min 53 sec)
Heartbeat CPU 0 instructions: 1340000188 cycles: 1227814373 heartbeat IPC: 1.279 cumulative IPC: 1.091 (Simulation time: 02 hr 40 min 43 sec)
Heartbeat CPU 0 instructions: 1350000188 cycles: 1235618163 heartbeat IPC: 1.281 cumulative IPC: 1.093 (Simulation time: 02 hr 41 min 44 sec)
Heartbeat CPU 0 instructions: 1360000188 cycles: 1243404935 heartbeat IPC: 1.284 cumulative IPC: 1.094 (Simulation time: 02 hr 42 min 44 sec)
Heartbeat CPU 0 instructions: 1370000190 cycles: 1251204485 heartbeat IPC: 1.282 cumulative IPC: 1.095 (Simulation time: 02 hr 43 min 36 sec)
Heartbeat CPU 0 instructions: 1380000194 cycles: 1258995708 heartbeat IPC: 1.283 cumulative IPC: 1.096 (Simulation time: 02 hr 44 min 33 sec)
Heartbeat CPU 0 instructions: 1390000196 cycles: 1266790516 heartbeat IPC: 1.283 cumulative IPC: 1.097 (Simulation time: 02 hr 45 min 29 sec)
Heartbeat CPU 0 instructions: 1400000200 cycles: 1274589121 heartbeat IPC: 1.282 cumulative IPC: 1.098 (Simulation time: 02 hr 46 min 23 sec)
Heartbeat CPU 0 instructions: 1410000200 cycles: 1282388575 heartbeat IPC: 1.282 cumulative IPC: 1.1 (Simulation time: 02 hr 47 min 23 sec)
Heartbeat CPU 0 instructions: 1420000200 cycles: 1290201547 heartbeat IPC: 1.28 cumulative IPC: 1.101 (Simulation time: 02 hr 48 min 19 sec)
Heartbeat CPU 0 instructions: 1430000200 cycles: 1298016851 heartbeat IPC: 1.28 cumulative IPC: 1.102 (Simulation time: 02 hr 49 min 18 sec)
Heartbeat CPU 0 instructions: 1440000204 cycles: 1305832109 heartbeat IPC: 1.28 cumulative IPC: 1.103 (Simulation time: 02 hr 50 min 19 sec)
Heartbeat CPU 0 instructions: 1450000204 cycles: 1313637741 heartbeat IPC: 1.281 cumulative IPC: 1.104 (Simulation time: 02 hr 51 min 20 sec)
Heartbeat CPU 0 instructions: 1460000205 cycles: 1321444256 heartbeat IPC: 1.281 cumulative IPC: 1.105 (Simulation time: 02 hr 52 min 14 sec)
Heartbeat CPU 0 instructions: 1470000205 cycles: 1329253627 heartbeat IPC: 1.281 cumulative IPC: 1.106 (Simulation time: 02 hr 53 min 03 sec)
Heartbeat CPU 0 instructions: 1480000207 cycles: 1337067541 heartbeat IPC: 1.28 cumulative IPC: 1.107 (Simulation time: 02 hr 54 min 00 sec)
Heartbeat CPU 0 instructions: 1490000209 cycles: 1344884862 heartbeat IPC: 1.279 cumulative IPC: 1.108 (Simulation time: 02 hr 54 min 47 sec)
Heartbeat CPU 0 instructions: 1500000209 cycles: 1352701316 heartbeat IPC: 1.279 cumulative IPC: 1.109 (Simulation time: 02 hr 55 min 36 sec)
Heartbeat CPU 0 instructions: 1510000210 cycles: 1360518447 heartbeat IPC: 1.279 cumulative IPC: 1.11 (Simulation time: 02 hr 56 min 24 sec)
Heartbeat CPU 0 instructions: 1520000211 cycles: 1368323799 heartbeat IPC: 1.281 cumulative IPC: 1.111 (Simulation time: 02 hr 57 min 15 sec)
Heartbeat CPU 0 instructions: 1530000211 cycles: 1376135564 heartbeat IPC: 1.28 cumulative IPC: 1.112 (Simulation time: 02 hr 58 min 01 sec)
Heartbeat CPU 0 instructions: 1540000211 cycles: 1383937762 heartbeat IPC: 1.282 cumulative IPC: 1.113 (Simulation time: 02 hr 58 min 51 sec)
Heartbeat CPU 0 instructions: 1550000213 cycles: 1391732833 heartbeat IPC: 1.283 cumulative IPC: 1.114 (Simulation time: 02 hr 59 min 37 sec)
Heartbeat CPU 0 instructions: 1560000215 cycles: 1399496001 heartbeat IPC: 1.288 cumulative IPC: 1.115 (Simulation time: 03 hr 00 min 34 sec)
Heartbeat CPU 0 instructions: 1570000218 cycles: 1407259610 heartbeat IPC: 1.288 cumulative IPC: 1.116 (Simulation time: 03 hr 01 min 33 sec)
Heartbeat CPU 0 instructions: 1580000219 cycles: 1415037430 heartbeat IPC: 1.286 cumulative IPC: 1.117 (Simulation time: 03 hr 02 min 33 sec)
Heartbeat CPU 0 instructions: 1590000219 cycles: 1422817381 heartbeat IPC: 1.285 cumulative IPC: 1.118 (Simulation time: 03 hr 03 min 25 sec)
Heartbeat CPU 0 instructions: 1600000219 cycles: 1430588510 heartbeat IPC: 1.287 cumulative IPC: 1.118 (Simulation time: 03 hr 04 min 18 sec)
Heartbeat CPU 0 instructions: 1610000219 cycles: 1438364645 heartbeat IPC: 1.286 cumulative IPC: 1.119 (Simulation time: 03 hr 05 min 04 sec)
Heartbeat CPU 0 instructions: 1620000221 cycles: 1446131756 heartbeat IPC: 1.287 cumulative IPC: 1.12 (Simulation time: 03 hr 05 min 50 sec)
Heartbeat CPU 0 instructions: 1630000222 cycles: 1453907525 heartbeat IPC: 1.286 cumulative IPC: 1.121 (Simulation time: 03 hr 06 min 34 sec)
Heartbeat CPU 0 instructions: 1640000222 cycles: 1461686797 heartbeat IPC: 1.285 cumulative IPC: 1.122 (Simulation time: 03 hr 07 min 25 sec)
Heartbeat CPU 0 instructions: 1650000224 cycles: 1469471235 heartbeat IPC: 1.285 cumulative IPC: 1.123 (Simulation time: 03 hr 08 min 08 sec)
Heartbeat CPU 0 instructions: 1660000224 cycles: 1477266543 heartbeat IPC: 1.283 cumulative IPC: 1.124 (Simulation time: 03 hr 08 min 48 sec)
Heartbeat CPU 0 instructions: 1670000225 cycles: 1485067904 heartbeat IPC: 1.282 cumulative IPC: 1.125 (Simulation time: 03 hr 09 min 34 sec)
Heartbeat CPU 0 instructions: 1680000228 cycles: 1492880434 heartbeat IPC: 1.28 cumulative IPC: 1.125 (Simulation time: 03 hr 10 min 35 sec)
Heartbeat CPU 0 instructions: 1690000228 cycles: 1500699706 heartbeat IPC: 1.279 cumulative IPC: 1.126 (Simulation time: 03 hr 11 min 30 sec)
Heartbeat CPU 0 instructions: 1700000229 cycles: 1508510743 heartbeat IPC: 1.28 cumulative IPC: 1.127 (Simulation time: 03 hr 12 min 20 sec)
Heartbeat CPU 0 instructions: 1710000233 cycles: 1516324292 heartbeat IPC: 1.28 cumulative IPC: 1.128 (Simulation time: 03 hr 13 min 08 sec)
Heartbeat CPU 0 instructions: 1720000234 cycles: 1524137913 heartbeat IPC: 1.28 cumulative IPC: 1.129 (Simulation time: 03 hr 14 min 08 sec)
Heartbeat CPU 0 instructions: 1730000234 cycles: 1531951624 heartbeat IPC: 1.28 cumulative IPC: 1.129 (Simulation time: 03 hr 15 min 06 sec)
Heartbeat CPU 0 instructions: 1740000234 cycles: 1539763273 heartbeat IPC: 1.28 cumulative IPC: 1.13 (Simulation time: 03 hr 16 min 05 sec)
Heartbeat CPU 0 instructions: 1750000238 cycles: 1547575508 heartbeat IPC: 1.28 cumulative IPC: 1.131 (Simulation time: 03 hr 16 min 52 sec)
Heartbeat CPU 0 instructions: 1760000238 cycles: 1555388953 heartbeat IPC: 1.28 cumulative IPC: 1.132 (Simulation time: 03 hr 17 min 50 sec)
Heartbeat CPU 0 instructions: 1770000238 cycles: 1563207184 heartbeat IPC: 1.279 cumulative IPC: 1.132 (Simulation time: 03 hr 18 min 52 sec)
Heartbeat CPU 0 instructions: 1780000240 cycles: 1571020740 heartbeat IPC: 1.28 cumulative IPC: 1.133 (Simulation time: 03 hr 19 min 53 sec)
Heartbeat CPU 0 instructions: 1790000242 cycles: 1578843400 heartbeat IPC: 1.278 cumulative IPC: 1.134 (Simulation time: 03 hr 20 min 54 sec)
Heartbeat CPU 0 instructions: 1800000246 cycles: 1586655537 heartbeat IPC: 1.28 cumulative IPC: 1.134 (Simulation time: 03 hr 21 min 39 sec)
Heartbeat CPU 0 instructions: 1810000248 cycles: 1594468584 heartbeat IPC: 1.28 cumulative IPC: 1.135 (Simulation time: 03 hr 22 min 28 sec)
Heartbeat CPU 0 instructions: 1820000248 cycles: 1602284022 heartbeat IPC: 1.28 cumulative IPC: 1.136 (Simulation time: 03 hr 23 min 20 sec)
Heartbeat CPU 0 instructions: 1830000248 cycles: 1609591092 heartbeat IPC: 1.369 cumulative IPC: 1.137 (Simulation time: 03 hr 24 min 17 sec)
Heartbeat CPU 0 instructions: 1840000251 cycles: 1615894254 heartbeat IPC: 1.587 cumulative IPC: 1.139 (Simulation time: 03 hr 25 min 06 sec)
Heartbeat CPU 0 instructions: 1850000251 cycles: 1622350442 heartbeat IPC: 1.549 cumulative IPC: 1.14 (Simulation time: 03 hr 25 min 51 sec)
Heartbeat CPU 0 instructions: 1860000252 cycles: 1628880861 heartbeat IPC: 1.531 cumulative IPC: 1.142 (Simulation time: 03 hr 26 min 42 sec)
Heartbeat CPU 0 instructions: 1870000252 cycles: 1635456838 heartbeat IPC: 1.521 cumulative IPC: 1.143 (Simulation time: 03 hr 27 min 27 sec)
Heartbeat CPU 0 instructions: 1880000253 cycles: 1642161767 heartbeat IPC: 1.491 cumulative IPC: 1.145 (Simulation time: 03 hr 28 min 13 sec)
Heartbeat CPU 0 instructions: 1890000257 cycles: 1649153881 heartbeat IPC: 1.43 cumulative IPC: 1.146 (Simulation time: 03 hr 29 min 13 sec)
Heartbeat CPU 0 instructions: 1900000258 cycles: 1654767203 heartbeat IPC: 1.781 cumulative IPC: 1.148 (Simulation time: 03 hr 29 min 55 sec)
Heartbeat CPU 0 instructions: 1910000258 cycles: 1660341124 heartbeat IPC: 1.794 cumulative IPC: 1.15 (Simulation time: 03 hr 30 min 37 sec)
Heartbeat CPU 0 instructions: 1920000258 cycles: 1666048814 heartbeat IPC: 1.752 cumulative IPC: 1.152 (Simulation time: 03 hr 31 min 32 sec)
Heartbeat CPU 0 instructions: 1930000261 cycles: 1671667677 heartbeat IPC: 1.78 cumulative IPC: 1.155 (Simulation time: 03 hr 32 min 27 sec)
Heartbeat CPU 0 instructions: 1940000264 cycles: 1677251437 heartbeat IPC: 1.791 cumulative IPC: 1.157 (Simulation time: 03 hr 33 min 13 sec)
Heartbeat CPU 0 instructions: 1950000264 cycles: 1682892095 heartbeat IPC: 1.773 cumulative IPC: 1.159 (Simulation time: 03 hr 34 min 01 sec)
Heartbeat CPU 0 instructions: 1960000264 cycles: 1688503221 heartbeat IPC: 1.782 cumulative IPC: 1.161 (Simulation time: 03 hr 34 min 55 sec)
Heartbeat CPU 0 instructions: 1970000267 cycles: 1694122889 heartbeat IPC: 1.779 cumulative IPC: 1.163 (Simulation time: 03 hr 35 min 49 sec)
Heartbeat CPU 0 instructions: 1980000268 cycles: 1699706503 heartbeat IPC: 1.791 cumulative IPC: 1.165 (Simulation time: 03 hr 36 min 27 sec)
Heartbeat CPU 0 instructions: 1990000270 cycles: 1705258800 heartbeat IPC: 1.801 cumulative IPC: 1.167 (Simulation time: 03 hr 37 min 05 sec)

=== ERROR PAGE STATISTICS ===
Mode: CYCLE
Error Cycle Interval: 1000000000 CPU cycles
Total Error Accesses: 2
==============================
Simulation finished CPU 0 instructions: 1999999905 cycles: 1714470443 cumulative IPC: 1.167 (Simulation time: 03 hr 38 min 18 sec)
Simulation complete CPU 0 instructions: 1999999905 cycles: 1714470443 cumulative IPC: 1.167 (Simulation time: 03 hr 38 min 18 sec)

ChampSim completed all CPUs

=== Simulation ===
CPU 0 runs test_traces/621.wrf_s-6673B.champsimtrace.xz

Region of Interest Statistics

CPU 0 cumulative IPC: 1.167 instructions: 1999999905 cycles: 1714470443
CPU 0 Branch Prediction Accuracy: 93.25% MPKI: 6.743 Average ROB Occupancy at Mispredict: 68.22
Branch type MPKI
BRANCH_DIRECT_JUMP: 0.00112
BRANCH_INDIRECT: 6.95e-05
BRANCH_CONDITIONAL: 5.98
BRANCH_DIRECT_CALL: 0.002089
BRANCH_INDIRECT_CALL: 2e-06
BRANCH_RETURN: 0.7595

cpu0->cpu0_STLB TOTAL        ACCESS:    1304307 HIT:    1183698 MISS:     120609 MSHR_MERGE:          0
cpu0->cpu0_STLB LOAD         ACCESS:    1304307 HIT:    1183698 MISS:     120609 MSHR_MERGE:          0
cpu0->cpu0_STLB RFO          ACCESS:          0 HIT:          0 MISS:          0 MSHR_MERGE:          0
cpu0->cpu0_STLB PREFETCH     ACCESS:          0 HIT:          0 MISS:          0 MSHR_MERGE:          0
cpu0->cpu0_STLB WRITE        ACCESS:          0 HIT:          0 MISS:          0 MSHR_MERGE:          0
cpu0->cpu0_STLB TRANSLATION  ACCESS:          0 HIT:          0 MISS:          0 MSHR_MERGE:          0
cpu0->cpu0_STLB PREFETCH REQUESTED:          0 ISSUED:          0 USEFUL:          0 USELESS:          0
cpu0->cpu0_STLB AVERAGE MISS LATENCY: 267.4 cycles
cpu0->cpu0_L2C TOTAL        ACCESS:   24598633 HIT:   12902578 MISS:   11696055 MSHR_MERGE:          0
cpu0->cpu0_L2C LOAD         ACCESS:   13804950 HIT:    4638942 MISS:    9166008 MSHR_MERGE:          0
cpu0->cpu0_L2C RFO          ACCESS:    3870272 HIT:    1344345 MISS:    2525927 MSHR_MERGE:          0
cpu0->cpu0_L2C PREFETCH     ACCESS:          0 HIT:          0 MISS:          0 MSHR_MERGE:          0
cpu0->cpu0_L2C WRITE        ACCESS:    6923411 HIT:    6919291 MISS:       4120 MSHR_MERGE:          0
cpu0->cpu0_L2C TRANSLATION  ACCESS:          0 HIT:          0 MISS:          0 MSHR_MERGE:          0
cpu0->cpu0_L2C PREFETCH REQUESTED:          0 ISSUED:          0 USEFUL:          0 USELESS:          0
cpu0->cpu0_L2C AVERAGE MISS LATENCY: 111.3 cycles
cpu0->cpu0_L1I TOTAL        ACCESS:  174631243 HIT:  173503405 MISS:    1127838 MSHR_MERGE:     425543
cpu0->cpu0_L1I LOAD         ACCESS:  174631243 HIT:  173503405 MISS:    1127838 MSHR_MERGE:     425543
cpu0->cpu0_L1I RFO          ACCESS:          0 HIT:          0 MISS:          0 MSHR_MERGE:          0
cpu0->cpu0_L1I PREFETCH     ACCESS:          0 HIT:          0 MISS:          0 MSHR_MERGE:          0
cpu0->cpu0_L1I WRITE        ACCESS:          0 HIT:          0 MISS:          0 MSHR_MERGE:          0
cpu0->cpu0_L1I TRANSLATION  ACCESS:          0 HIT:          0 MISS:          0 MSHR_MERGE:          0
cpu0->cpu0_L1I PREFETCH REQUESTED:          0 ISSUED:          0 USEFUL:          0 USELESS:          0
cpu0->cpu0_L1I AVERAGE MISS LATENCY: 13.83 cycles
cpu0->cpu0_L1D TOTAL        ACCESS:  520563496 HIT:  483422453 MISS:   37141043 MSHR_MERGE:   20167912
cpu0->cpu0_L1D LOAD         ACCESS:  407440944 HIT:  384024561 MISS:   23416383 MSHR_MERGE:   10313611
cpu0->cpu0_L1D RFO          ACCESS:          0 HIT:          0 MISS:          0 MSHR_MERGE:          0
cpu0->cpu0_L1D PREFETCH     ACCESS:          0 HIT:          0 MISS:          0 MSHR_MERGE:          0
cpu0->cpu0_L1D WRITE        ACCESS:  113122552 HIT:   99397892 MISS:   13724660 MSHR_MERGE:    9854301
cpu0->cpu0_L1D TRANSLATION  ACCESS:          0 HIT:          0 MISS:          0 MSHR_MERGE:          0
cpu0->cpu0_L1D PREFETCH REQUESTED:          0 ISSUED:          0 USEFUL:          0 USELESS:          0
cpu0->cpu0_L1D AVERAGE MISS LATENCY: 85.22 cycles
cpu0->cpu0_ITLB TOTAL        ACCESS:  150102359 HIT:  150098921 MISS:       3438 MSHR_MERGE:       2433
cpu0->cpu0_ITLB LOAD         ACCESS:  150102359 HIT:  150098921 MISS:       3438 MSHR_MERGE:       2433
cpu0->cpu0_ITLB RFO          ACCESS:          0 HIT:          0 MISS:          0 MSHR_MERGE:          0
cpu0->cpu0_ITLB PREFETCH     ACCESS:          0 HIT:          0 MISS:          0 MSHR_MERGE:          0
cpu0->cpu0_ITLB WRITE        ACCESS:          0 HIT:          0 MISS:          0 MSHR_MERGE:          0
cpu0->cpu0_ITLB TRANSLATION  ACCESS:          0 HIT:          0 MISS:          0 MSHR_MERGE:          0
cpu0->cpu0_ITLB PREFETCH REQUESTED:          0 ISSUED:          0 USEFUL:          0 USELESS:          0
cpu0->cpu0_ITLB AVERAGE MISS LATENCY: 411 cycles
cpu0->cpu0_DTLB TOTAL        ACCESS:  475785021 HIT:  473794334 MISS:    1990687 MSHR_MERGE:     687385
cpu0->cpu0_DTLB LOAD         ACCESS:  475785021 HIT:  473794334 MISS:    1990687 MSHR_MERGE:     687385
cpu0->cpu0_DTLB RFO          ACCESS:          0 HIT:          0 MISS:          0 MSHR_MERGE:          0
cpu0->cpu0_DTLB PREFETCH     ACCESS:          0 HIT:          0 MISS:          0 MSHR_MERGE:          0
cpu0->cpu0_DTLB WRITE        ACCESS:          0 HIT:          0 MISS:          0 MSHR_MERGE:          0
cpu0->cpu0_DTLB TRANSLATION  ACCESS:          0 HIT:          0 MISS:          0 MSHR_MERGE:          0
cpu0->cpu0_DTLB PREFETCH REQUESTED:          0 ISSUED:          0 USEFUL:          0 USELESS:          0
cpu0->cpu0_DTLB AVERAGE MISS LATENCY: 29.57 cycles
cpu0->LLC TOTAL        ACCESS:   16638695 HIT:    6513229 MISS:   10125466 MSHR_MERGE:          0
cpu0->LLC LOAD         ACCESS:    9166008 HIT:    1166726 MISS:    7999282 MSHR_MERGE:          0
cpu0->LLC RFO          ACCESS:    2525927 HIT:     413219 MISS:    2112708 MSHR_MERGE:          0
cpu0->LLC PREFETCH     ACCESS:          0 HIT:          0 MISS:          0 MSHR_MERGE:          0
cpu0->LLC WRITE        ACCESS:    4946760 HIT:    4933284 MISS:      13476 MSHR_MERGE:          0
cpu0->LLC TRANSLATION  ACCESS:          0 HIT:          0 MISS:          0 MSHR_MERGE:          0
cpu0->LLC PREFETCH REQUESTED:          0 ISSUED:          0 USEFUL:          0 USELESS:          0
cpu0->LLC AVERAGE MISS LATENCY: 110.2 cycles

DRAM Statistics

Channel 0 RQ ROW_BUFFER_HIT:       5229
  ROW_BUFFER_MISS:    5171482
  AVG DBUS CONGESTED CYCLE: 9.835
Channel 0 WQ ROW_BUFFER_HIT:     397097
  ROW_BUFFER_MISS:    1639367
  FULL:        542
Channel 0 REFRESHES ISSUED:     142863

Channel 1 RQ ROW_BUFFER_HIT:       5016
  ROW_BUFFER_MISS:    5170089
  AVG DBUS CONGESTED CYCLE: 9.851
Channel 1 WQ ROW_BUFFER_HIT:     396609
  ROW_BUFFER_MISS:    1640115
  FULL:          0
Channel 1 REFRESHES ISSUED:     142863
