
*** ChampSim Multicore Out-of-Order Simulator ***
Warmup Instructions: 0
Simulation Instructions: 9223372036854775807
Number of CPUs: 1
Page size: 2097152

Off-chip DRAM Size: 128 GiB Channels: 2 Width: 32-bit Data Rate: 4807 MT/s
[ERROR_PAGE_MANAGER] Error latency: 1990500 
[ERROR_PAGE_MANAGER] Random seed: 54321 (fixed for preload reproducibility)
[ERROR_PAGE_MANAGER] Cycle-based error modeling enabled
[ERROR_PAGE_MANAGER] Errors per interval: 1
[ERROR_PAGE_MANAGER] Error cycle interval: 8000000 cycles

=== ERROR PAGE STATISTICS ===
Mode: CYCLE
Error Cycle Interval: 8000000 CPU cycles
Total Error Accesses: 0
==============================
Warmup finished CPU 0 instructions: 0 cycles: 1 cumulative IPC: 0 (Simulation time: 00 hr 00 min 00 sec)
Warmup complete CPU 0 instructions: 0 cycles: 1 cumulative IPC: 0 (Simulation time: 00 hr 00 min 00 sec)
[ERROR_CYCLE] Error added at CPU cycle 5702245, next at 7322645, pending count: 1
[DRAM_CYCLE_ERROR] Cycle-based error applied! address=0x1c0685f230 additional_latency=1990500 cycles
[ERROR_CYCLE] Error added at CPU cycle 7322646, next at 20556852, pending count: 1
[DRAM_CYCLE_ERROR] Cycle-based error applied! address=0x13b42f8338 additional_latency=1990500 cycles
Heartbeat CPU 0 instructions: 10000001 cycles: 10849016 heartbeat IPC: 0.9217 cumulative IPC: 0.9217 (Simulation time: 00 hr 01 min 11 sec)
[ERROR_CYCLE] Error added at CPU cycle 20556852, next at 42774152, pending count: 1
[DRAM_CYCLE_ERROR] Cycle-based error applied! address=0x13b42f9ac8 additional_latency=1990500 cycles
Heartbeat CPU 0 instructions: 20000002 cycles: 23346597 heartbeat IPC: 0.8002 cumulative IPC: 0.8567 (Simulation time: 00 hr 02 min 22 sec)
Heartbeat CPU 0 instructions: 30000002 cycles: 38223609 heartbeat IPC: 0.6722 cumulative IPC: 0.7849 (Simulation time: 00 hr 03 min 33 sec)
[ERROR_CYCLE] Error added at CPU cycle 42774153, next at 43014581, pending count: 1
[DRAM_CYCLE_ERROR] Cycle-based error applied! address=0x149905cb8 additional_latency=1990500 cycles
[ERROR_CYCLE] Error added at CPU cycle 43014581, next at 55310914, pending count: 1
[DRAM_CYCLE_ERROR] Cycle-based error applied! address=0x6189c068 additional_latency=1990500 cycles
Heartbeat CPU 0 instructions: 40000005 cycles: 48475774 heartbeat IPC: 0.9754 cumulative IPC: 0.8252 (Simulation time: 00 hr 04 min 42 sec)
[ERROR_CYCLE] Error added at CPU cycle 55310914, next at 56742755, pending count: 1
[DRAM_CYCLE_ERROR] Cycle-based error applied! address=0x6a321e780 additional_latency=1990500 cycles
[ERROR_CYCLE] Error added at CPU cycle 56742756, next at 61293938, pending count: 1
[DRAM_CYCLE_ERROR] Cycle-based error applied! address=0x1534963820 additional_latency=1990500 cycles
[ERROR_CYCLE] Error added at CPU cycle 61293939, next at 68125490, pending count: 1
[DRAM_CYCLE_ERROR] Cycle-based error applied! address=0xb92067c20 additional_latency=1990500 cycles
[ERROR_CYCLE] Error added at CPU cycle 68125491, next at 70082703, pending count: 1
[DRAM_CYCLE_ERROR] Cycle-based error applied! address=0x14bdbf0bd0 additional_latency=1990500 cycles
[ERROR_CYCLE] Error added at CPU cycle 70082704, next at 84290367, pending count: 1
[DRAM_CYCLE_ERROR] Cycle-based error applied! address=0x6a32c69f8 additional_latency=1990500 cycles
Heartbeat CPU 0 instructions: 50000005 cycles: 84280524 heartbeat IPC: 0.2793 cumulative IPC: 0.5933 (Simulation time: 00 hr 07 min 47 sec)
[ERROR_CYCLE] Error added at CPU cycle 84290367, next at 87138513, pending count: 1
[DRAM_CYCLE_ERROR] Cycle-based error applied! address=0x1772d522d8 additional_latency=1990500 cycles
[ERROR_CYCLE] Error added at CPU cycle 87138513, next at 90719201, pending count: 1
[DRAM_CYCLE_ERROR] Cycle-based error applied! address=0xee7dcebe0 additional_latency=1990500 cycles
[ERROR_CYCLE] Error added at CPU cycle 90719201, next at 107001469, pending count: 1
[DRAM_CYCLE_ERROR] Cycle-based error applied! address=0x6a321ed00 additional_latency=1990500 cycles
Heartbeat CPU 0 instructions: 60000005 cycles: 99519246 heartbeat IPC: 0.6562 cumulative IPC: 0.6029 (Simulation time: 00 hr 09 min 11 sec)
[ERROR_CYCLE] Error added at CPU cycle 107001469, next at 107099488, pending count: 1
[DRAM_CYCLE_ERROR] Cycle-based error applied! address=0x6a3251c78 additional_latency=1990500 cycles
[ERROR_CYCLE] Error added at CPU cycle 107099489, next at 116099092, pending count: 1
[DRAM_CYCLE_ERROR] Cycle-based error applied! address=0xa12120428 additional_latency=1990500 cycles
Heartbeat CPU 0 instructions: 70000005 cycles: 115382044 heartbeat IPC: 0.6304 cumulative IPC: 0.6067 (Simulation time: 00 hr 10 min 46 sec)
[ERROR_CYCLE] Error added at CPU cycle 116099092, next at 121349692, pending count: 1
[DRAM_CYCLE_ERROR] Cycle-based error applied! address=0x13b42f9170 additional_latency=1990500 cycles
[ERROR_CYCLE] Error added at CPU cycle 121349692, next at 151621187, pending count: 1
[DRAM_CYCLE_ERROR] Cycle-based error applied! address=0xe0b5f958 additional_latency=1990500 cycles
Heartbeat CPU 0 instructions: 80000007 cycles: 125233109 heartbeat IPC: 1.015 cumulative IPC: 0.6388 (Simulation time: 00 hr 12 min 01 sec)
Heartbeat CPU 0 instructions: 90000007 cycles: 135695160 heartbeat IPC: 0.9558 cumulative IPC: 0.6633 (Simulation time: 00 hr 13 min 18 sec)
Heartbeat CPU 0 instructions: 100000007 cycles: 145012383 heartbeat IPC: 1.073 cumulative IPC: 0.6896 (Simulation time: 00 hr 14 min 17 sec)
[ERROR_CYCLE] Error added at CPU cycle 151621187, next at 153516742, pending count: 1
[DRAM_CYCLE_ERROR] Cycle-based error applied! address=0x14184b6e20 additional_latency=1990500 cycles
[ERROR_CYCLE] Error added at CPU cycle 153516742, next at 155437621, pending count: 1
[DRAM_CYCLE_ERROR] Cycle-based error applied! address=0x1a81613b80 additional_latency=1990500 cycles
[ERROR_CYCLE] Error added at CPU cycle 155437621, next at 178495226, pending count: 1
[DRAM_CYCLE_ERROR] Cycle-based error applied! address=0x13554bd0e8 additional_latency=1990500 cycles
Heartbeat CPU 0 instructions: 110000007 cycles: 164980457 heartbeat IPC: 0.5008 cumulative IPC: 0.6667 (Simulation time: 00 hr 15 min 51 sec)
[ERROR_CYCLE] Error added at CPU cycle 178495226, next at 181653365, pending count: 1
Heartbeat CPU 0 instructions: 120000009 cycles: 178503873 heartbeat IPC: 0.7395 cumulative IPC: 0.6723 (Simulation time: 00 hr 17 min 17 sec)
[DRAM_CYCLE_ERROR] Cycle-based error applied! address=0x372e99358 additional_latency=1990500 cycles
[ERROR_CYCLE] Error added at CPU cycle 181653365, next at 215877191, pending count: 1
[DRAM_CYCLE_ERROR] Cycle-based error applied! address=0x146d461510 additional_latency=1990500 cycles
Heartbeat CPU 0 instructions: 130000011 cycles: 189159405 heartbeat IPC: 0.9385 cumulative IPC: 0.6873 (Simulation time: 00 hr 18 min 24 sec)
Heartbeat CPU 0 instructions: 140000012 cycles: 206455079 heartbeat IPC: 0.5782 cumulative IPC: 0.6781 (Simulation time: 00 hr 20 min 11 sec)
[ERROR_CYCLE] Error added at CPU cycle 215877191, next at 220477735, pending count: 1
[DRAM_CYCLE_ERROR] Cycle-based error applied! address=0x14185addf8 additional_latency=1990500 cycles
[ERROR_CYCLE] Error added at CPU cycle 220477735, next at 247385306, pending count: 1
[DRAM_CYCLE_ERROR] Cycle-based error applied! address=0x6a3391b40 additional_latency=1990500 cycles
Heartbeat CPU 0 instructions: 150000014 cycles: 232563161 heartbeat IPC: 0.383 cumulative IPC: 0.645 (Simulation time: 00 hr 22 min 48 sec)
Heartbeat CPU 0 instructions: 160000017 cycles: 243634161 heartbeat IPC: 0.9033 cumulative IPC: 0.6567 (Simulation time: 00 hr 24 min 06 sec)
[ERROR_CYCLE] Error added at CPU cycle 247385307, next at 249771807, pending count: 1
[DRAM_CYCLE_ERROR] Cycle-based error applied! address=0x6a3367540 additional_latency=1990500 cycles
[ERROR_CYCLE] Error added at CPU cycle 249771808, next at 261187612, pending count: 1
[DRAM_CYCLE_ERROR] Cycle-based error applied! address=0x13a4e790e8 additional_latency=1990500 cycles
Heartbeat CPU 0 instructions: 170000020 cycles: 251746049 heartbeat IPC: 1.233 cumulative IPC: 0.6753 (Simulation time: 00 hr 25 min 02 sec)
[ERROR_CYCLE] Error added at CPU cycle 261187613, next at 262895406, pending count: 1
[DRAM_CYCLE_ERROR] Cycle-based error applied! address=0x1d2c86ab68 additional_latency=1990500 cycles
[ERROR_CYCLE] Error added at CPU cycle 262895406, next at 265556270, pending count: 1
[DRAM_CYCLE_ERROR] Cycle-based error applied! address=0xc372aae90 additional_latency=1990500 cycles
[ERROR_CYCLE] Error added at CPU cycle 265556270, next at 277297613, pending count: 1
[DRAM_CYCLE_ERROR] Cycle-based error applied! address=0x222b887c8 additional_latency=1990500 cycles
[ERROR_CYCLE] Error added at CPU cycle 277297614, next at 277363337, pending count: 1
[DRAM_CYCLE_ERROR] Cycle-based error applied! address=0x13bc848950 additional_latency=1990500 cycles
[ERROR_CYCLE] Error added at CPU cycle 277363337, next at 280844445, pending count: 1
[DRAM_CYCLE_ERROR] Cycle-based error applied! address=0x13bc85eac8 additional_latency=1990500 cycles
[ERROR_CYCLE] Error added at CPU cycle 280844445, next at 282972414, pending count: 1
[DRAM_CYCLE_ERROR] Cycle-based error applied! address=0x1e6672b540 additional_latency=1990500 cycles
Heartbeat CPU 0 instructions: 180000022 cycles: 281099737 heartbeat IPC: 0.3407 cumulative IPC: 0.6403 (Simulation time: 00 hr 27 min 44 sec)
[ERROR_CYCLE] Error added at CPU cycle 282972415, next at 286862856, pending count: 1
[DRAM_CYCLE_ERROR] Cycle-based error applied! address=0xe0eba3a08 additional_latency=1990500 cycles
[ERROR_CYCLE] Error added at CPU cycle 286862857, next at 287787267, pending count: 1
[DRAM_CYCLE_ERROR] Cycle-based error applied! address=0x13b42f9c38 additional_latency=1990500 cycles
[ERROR_CYCLE] Error added at CPU cycle 287787267, next at 291972450, pending count: 1
[DRAM_CYCLE_ERROR] Cycle-based error applied! address=0x6a33addc0 additional_latency=1990500 cycles
Heartbeat CPU 0 instructions: 190000022 cycles: 289654979 heartbeat IPC: 1.169 cumulative IPC: 0.656 (Simulation time: 00 hr 28 min 50 sec)
[ERROR_CYCLE] Error added at CPU cycle 291972450, next at 296131102, pending count: 1
[DRAM_CYCLE_ERROR] Cycle-based error applied! address=0x1355378178 additional_latency=1990500 cycles
[ERROR_CYCLE] Error added at CPU cycle 296131102, next at 307889350, pending count: 1
[DRAM_CYCLE_ERROR] Cycle-based error applied! address=0x1d2c8213d8 additional_latency=1990500 cycles
Heartbeat CPU 0 instructions: 200000022 cycles: 300995424 heartbeat IPC: 0.8818 cumulative IPC: 0.6645 (Simulation time: 00 hr 29 min 57 sec)
[ERROR_CYCLE] Error added at CPU cycle 307889350, next at 322644041, pending count: 1
[DRAM_CYCLE_ERROR] Cycle-based error applied! address=0x1f94e20cc0 additional_latency=1990500 cycles
Heartbeat CPU 0 instructions: 210000023 cycles: 317716210 heartbeat IPC: 0.5981 cumulative IPC: 0.661 (Simulation time: 00 hr 31 min 27 sec)
[ERROR_CYCLE] Error added at CPU cycle 322644042, next at 326639280, pending count: 1
[DRAM_CYCLE_ERROR] Cycle-based error applied! address=0x90dd77c8 additional_latency=1990500 cycles
[ERROR_CYCLE] Error added at CPU cycle 326639281, next at 331663090, pending count: 1
[DRAM_CYCLE_ERROR] Cycle-based error applied! address=0x1c924228c8 additional_latency=1990500 cycles
[ERROR_CYCLE] Error added at CPU cycle 331663090, next at 332541815, pending count: 1
[DRAM_CYCLE_ERROR] Cycle-based error applied! address=0x33856338 additional_latency=1990500 cycles
[ERROR_CYCLE] Error added at CPU cycle 332541815, next at 334235178, pending count: 1
[DRAM_CYCLE_ERROR] Cycle-based error applied! address=0x1cc44f5c70 additional_latency=1990500 cycles
[ERROR_CYCLE] Error added at CPU cycle 334235178, next at 343169730, pending count: 1
[DRAM_CYCLE_ERROR] Cycle-based error applied! address=0x17554c25b8 additional_latency=1990500 cycles
Heartbeat CPU 0 instructions: 220000024 cycles: 339992397 heartbeat IPC: 0.4489 cumulative IPC: 0.6471 (Simulation time: 00 hr 33 min 15 sec)
[ERROR_CYCLE] Error added at CPU cycle 343169730, next at 348318977, pending count: 1
[DRAM_CYCLE_ERROR] Cycle-based error applied! address=0x13b42f9df8 additional_latency=1990500 cycles
[ERROR_CYCLE] Error added at CPU cycle 348318978, next at 361256443, pending count: 1
[DRAM_CYCLE_ERROR] Cycle-based error applied! address=0x16308474a8 additional_latency=1990500 cycles
Heartbeat CPU 0 instructions: 230000024 cycles: 350470140 heartbeat IPC: 0.9544 cumulative IPC: 0.6563 (Simulation time: 00 hr 34 min 32 sec)
[ERROR_CYCLE] Error added at CPU cycle 361256443, next at 363532948, pending count: 1
[DRAM_CYCLE_ERROR] Cycle-based error applied! address=0x17570bed90 additional_latency=1990500 cycles
Heartbeat CPU 0 instructions: 240000024 cycles: 362113506 heartbeat IPC: 0.8589 cumulative IPC: 0.6628 (Simulation time: 00 hr 35 min 46 sec)
[ERROR_CYCLE] Error added at CPU cycle 363532948, next at 374354625, pending count: 1
[DRAM_CYCLE_ERROR] Cycle-based error applied! address=0x13b42f8ae0 additional_latency=1990500 cycles
Heartbeat CPU 0 instructions: 250000028 cycles: 370732659 heartbeat IPC: 1.16 cumulative IPC: 0.6743 (Simulation time: 00 hr 36 min 49 sec)
[ERROR_CYCLE] Error added at CPU cycle 374354626, next at 383320275, pending count: 1
[DRAM_CYCLE_ERROR] Cycle-based error applied! address=0x1b2d19ed0 additional_latency=1990500 cycles
[ERROR_CYCLE] Error added at CPU cycle 383320276, next at 391855039, pending count: 1
[DRAM_CYCLE_ERROR] Cycle-based error applied! address=0x473eb3e18 additional_latency=1990500 cycles
[ERROR_CYCLE] Error added at CPU cycle 391855040, next at 393759507, pending count: 1
[DRAM_CYCLE_ERROR] Cycle-based error applied! address=0x23b349148 additional_latency=1990500 cycles
[ERROR_CYCLE] Error added at CPU cycle 393759508, next at 400884047, pending count: 1
[DRAM_CYCLE_ERROR] Cycle-based error applied! address=0x115b0d5a08 additional_latency=1990500 cycles
[ERROR_CYCLE] Error added at CPU cycle 400884047, next at 413131147, pending count: 1
[DRAM_CYCLE_ERROR] Cycle-based error applied! address=0x13ced3f4f8 additional_latency=1990500 cycles
Heartbeat CPU 0 instructions: 260000028 cycles: 411061481 heartbeat IPC: 0.248 cumulative IPC: 0.6325 (Simulation time: 00 hr 40 min 47 sec)
[ERROR_CYCLE] Error added at CPU cycle 413131147, next at 418606511, pending count: 1
[DRAM_CYCLE_ERROR] Cycle-based error applied! address=0x339d3140 additional_latency=1990500 cycles
[ERROR_CYCLE] Error added at CPU cycle 418606511, next at 419456417, pending count: 1
[DRAM_CYCLE_ERROR] Cycle-based error applied! address=0x1f45aac898 additional_latency=1990500 cycles
[ERROR_CYCLE] Error added at CPU cycle 419456417, next at 436337035, pending count: 1
[DRAM_CYCLE_ERROR] Cycle-based error applied! address=0x11c55e470 additional_latency=1990500 cycles
[ERROR_CYCLE] Error added at CPU cycle 436337035, next at 444009234, pending count: 1
[DRAM_CYCLE_ERROR] Cycle-based error applied! address=0x1160329c00 additional_latency=1990500 cycles
[ERROR_CYCLE] Error added at CPU cycle 444009235, next at 453365678, pending count: 1
[DRAM_CYCLE_ERROR] Cycle-based error applied! address=0x16c8dfe140 additional_latency=1990500 cycles
[ERROR_CYCLE] Error added at CPU cycle 453365679, next at 481867585, pending count: 1
[DRAM_CYCLE_ERROR] Cycle-based error applied! address=0x339b5338 additional_latency=1990500 cycles
Heartbeat CPU 0 instructions: 270000028 cycles: 461295170 heartbeat IPC: 0.1991 cumulative IPC: 0.5853 (Simulation time: 00 hr 45 min 22 sec)
Heartbeat CPU 0 instructions: 280000028 cycles: 478419284 heartbeat IPC: 0.584 cumulative IPC: 0.5853 (Simulation time: 00 hr 47 min 14 sec)
[ERROR_CYCLE] Error added at CPU cycle 481867586, next at 486241351, pending count: 1
[DRAM_CYCLE_ERROR] Cycle-based error applied! address=0x1ca5995d08 additional_latency=1990500 cycles
[ERROR_CYCLE] Error added at CPU cycle 486241352, next at 486834828, pending count: 1
[DRAM_CYCLE_ERROR] Cycle-based error applied! address=0x339342b8 additional_latency=1990500 cycles
[ERROR_CYCLE] Error added at CPU cycle 486834829, next at 488524067, pending count: 1
[DRAM_CYCLE_ERROR] Cycle-based error applied! address=0x6871ca640 additional_latency=1990500 cycles
[ERROR_CYCLE] Error added at CPU cycle 488524067, next at 490575473, pending count: 1
[DRAM_CYCLE_ERROR] Cycle-based error applied! address=0x14bdb1c738 additional_latency=1990500 cycles
[ERROR_CYCLE] Error added at CPU cycle 490575473, next at 490984732, pending count: 1
[DRAM_CYCLE_ERROR] Cycle-based error applied! address=0x175719cfc8 additional_latency=1990500 cycles
[ERROR_CYCLE] Error added at CPU cycle 490984732, next at 492549221, pending count: 1
[DRAM_CYCLE_ERROR] Cycle-based error applied! address=0x12bf4c65d0 additional_latency=1990500 cycles
[ERROR_CYCLE] Error added at CPU cycle 492549221, next at 499064308, pending count: 1
[DRAM_CYCLE_ERROR] Cycle-based error applied! address=0x11fcdb0b68 additional_latency=1990500 cycles
Heartbeat CPU 0 instructions: 290000029 cycles: 495465826 heartbeat IPC: 0.5866 cumulative IPC: 0.5853 (Simulation time: 00 hr 49 min 07 sec)
[ERROR_CYCLE] Error added at CPU cycle 499064309, next at 524403665, pending count: 1
[DRAM_CYCLE_ERROR] Cycle-based error applied! address=0x1ab0254bc0 additional_latency=1990500 cycles
Heartbeat CPU 0 instructions: 300000029 cycles: 513824002 heartbeat IPC: 0.5447 cumulative IPC: 0.5839 (Simulation time: 00 hr 50 min 57 sec)
[ERROR_CYCLE] Error added at CPU cycle 524403666, next at 548237136, pending count: 1
[DRAM_CYCLE_ERROR] Cycle-based error applied! address=0x13b42f9790 additional_latency=1990500 cycles
Heartbeat CPU 0 instructions: 310000030 cycles: 524652746 heartbeat IPC: 0.9235 cumulative IPC: 0.5909 (Simulation time: 00 hr 52 min 06 sec)
Heartbeat CPU 0 instructions: 320000030 cycles: 535367302 heartbeat IPC: 0.9333 cumulative IPC: 0.5977 (Simulation time: 00 hr 53 min 09 sec)
[ERROR_CYCLE] Error added at CPU cycle 548237136, next at 553653883, pending count: 1
[DRAM_CYCLE_ERROR] Cycle-based error applied! address=0x8388c8098 additional_latency=1990500 cycles
[ERROR_CYCLE] Error added at CPU cycle 553653884, next at 554848685, pending count: 1
[DRAM_CYCLE_ERROR] Cycle-based error applied! address=0x1a15fd5f0 additional_latency=1990500 cycles
[ERROR_CYCLE] Error added at CPU cycle 554848686, next at 557254087, pending count: 1
[DRAM_CYCLE_ERROR] Cycle-based error applied! address=0x1fa4637790 additional_latency=1990500 cycles
[ERROR_CYCLE] Error added at CPU cycle 557254087, next at 564098204, pending count: 1
[DRAM_CYCLE_ERROR] Cycle-based error applied! address=0x1d5e264698 additional_latency=1990500 cycles
Heartbeat CPU 0 instructions: 330000032 cycles: 558513357 heartbeat IPC: 0.432 cumulative IPC: 0.5909 (Simulation time: 00 hr 55 min 22 sec)
[ERROR_CYCLE] Error added at CPU cycle 564098204, next at 598036750, pending count: 1
[DRAM_CYCLE_ERROR] Cycle-based error applied! address=0x13b42f9e80 additional_latency=1990500 cycles
Heartbeat CPU 0 instructions: 340000032 cycles: 569287361 heartbeat IPC: 0.9282 cumulative IPC: 0.5972 (Simulation time: 00 hr 56 min 31 sec)
Heartbeat CPU 0 instructions: 350000032 cycles: 577426650 heartbeat IPC: 1.229 cumulative IPC: 0.6061 (Simulation time: 00 hr 57 min 32 sec)
[ERROR_CYCLE] Error added at CPU cycle 598036751, next at 598935337, pending count: 1
[DRAM_CYCLE_ERROR] Cycle-based error applied! address=0xa98f81970 additional_latency=1990500 cycles
Heartbeat CPU 0 instructions: 360000032 cycles: 598234193 heartbeat IPC: 0.4806 cumulative IPC: 0.6018 (Simulation time: 00 hr 59 min 44 sec)
[ERROR_CYCLE] Error added at CPU cycle 598935337, next at 604015587, pending count: 1
[DRAM_CYCLE_ERROR] Cycle-based error applied! address=0x395a1950 additional_latency=1990500 cycles
[ERROR_CYCLE] Error added at CPU cycle 604015587, next at 604397660, pending count: 1
[DRAM_CYCLE_ERROR] Cycle-based error applied! address=0x19355cf890 additional_latency=1990500 cycles
[ERROR_CYCLE] Error added at CPU cycle 604397660, next at 607018469, pending count: 1
[DRAM_CYCLE_ERROR] Cycle-based error applied! address=0x13cec18e38 additional_latency=1990500 cycles
[ERROR_CYCLE] Error added at CPU cycle 607018470, next at 614345951, pending count: 1
[DRAM_CYCLE_ERROR] Cycle-based error applied! address=0x13b42fa000 additional_latency=1990500 cycles
Heartbeat CPU 0 instructions: 370000034 cycles: 610672247 heartbeat IPC: 0.804 cumulative IPC: 0.6059 (Simulation time: 01 hr 00 min 53 sec)
[ERROR_CYCLE] Error added at CPU cycle 614345951, next at 614441836, pending count: 1
[DRAM_CYCLE_ERROR] Cycle-based error applied! address=0xe0a7c1a0 additional_latency=1990500 cycles
[ERROR_CYCLE] Error added at CPU cycle 614441837, next at 614480051, pending count: 1
[DRAM_CYCLE_ERROR] Cycle-based error applied! address=0xf143a3fc0 additional_latency=1990500 cycles
[ERROR_CYCLE] Error added at CPU cycle 614480051, next at 614611983, pending count: 1
[DRAM_CYCLE_ERROR] Cycle-based error applied! address=0x13b42f8cb0 additional_latency=1990500 cycles
[ERROR_CYCLE] Error added at CPU cycle 614611983, next at 618781457, pending count: 1
[DRAM_CYCLE_ERROR] Cycle-based error applied! address=0x1621fd8c98 additional_latency=1990500 cycles
[ERROR_CYCLE] Error added at CPU cycle 618781458, next at 620327032, pending count: 1
[DRAM_CYCLE_ERROR] Cycle-based error applied! address=0x13cec19a80 additional_latency=1990500 cycles
Heartbeat CPU 0 instructions: 380000034 cycles: 620115101 heartbeat IPC: 1.059 cumulative IPC: 0.6128 (Simulation time: 01 hr 01 min 49 sec)
[ERROR_CYCLE] Error added at CPU cycle 620327032, next at 621182048, pending count: 1
[DRAM_CYCLE_ERROR] Cycle-based error applied! address=0x18f825a128 additional_latency=1990500 cycles
[ERROR_CYCLE] Error added at CPU cycle 621182049, next at 625644245, pending count: 1
[DRAM_CYCLE_ERROR] Cycle-based error applied! address=0x13cec3c978 additional_latency=1990500 cycles
[ERROR_CYCLE] Error added at CPU cycle 625644246, next at 634692953, pending count: 1
[DRAM_CYCLE_ERROR] Cycle-based error applied! address=0x1b2d53a868 additional_latency=1990500 cycles
[ERROR_CYCLE] Error added at CPU cycle 634692953, next at 640590896, pending count: 1
[DRAM_CYCLE_ERROR] Cycle-based error applied! address=0xd1fab6dc8 additional_latency=1990500 cycles
[ERROR_CYCLE] Error added at CPU cycle 640590897, next at 643762779, pending count: 1
[DRAM_CYCLE_ERROR] Cycle-based error applied! address=0x1bcb86a3d8 additional_latency=1990500 cycles
[ERROR_CYCLE] Error added at CPU cycle 643762780, next at 650107287, pending count: 1
[DRAM_CYCLE_ERROR] Cycle-based error applied! address=0xd46d85518 additional_latency=1990500 cycles
Heartbeat CPU 0 instructions: 390000037 cycles: 645174417 heartbeat IPC: 0.3991 cumulative IPC: 0.6045 (Simulation time: 01 hr 04 min 23 sec)
[ERROR_CYCLE] Error added at CPU cycle 650107288, next at 660201622, pending count: 1
[DRAM_CYCLE_ERROR] Cycle-based error applied! address=0x3b7bd3608 additional_latency=1990500 cycles
[ERROR_CYCLE] Error added at CPU cycle 660201622, next at 664349972, pending count: 1
[DRAM_CYCLE_ERROR] Cycle-based error applied! address=0x12b919d888 additional_latency=1990500 cycles
[ERROR_CYCLE] Error added at CPU cycle 664349973, next at 671148112, pending count: 1
[DRAM_CYCLE_ERROR] Cycle-based error applied! address=0x19eba9d738 additional_latency=1990500 cycles
Heartbeat CPU 0 instructions: 400000039 cycles: 669657339 heartbeat IPC: 0.4084 cumulative IPC: 0.5973 (Simulation time: 01 hr 06 min 22 sec)
[ERROR_CYCLE] Error added at CPU cycle 671148112, next at 689443322, pending count: 1
[DRAM_CYCLE_ERROR] Cycle-based error applied! address=0x15ac5ad5a8 additional_latency=1990500 cycles
Heartbeat CPU 0 instructions: 410000039 cycles: 680260116 heartbeat IPC: 0.9431 cumulative IPC: 0.6027 (Simulation time: 01 hr 07 min 42 sec)
Heartbeat CPU 0 instructions: 420000040 cycles: 689185621 heartbeat IPC: 1.12 cumulative IPC: 0.6094 (Simulation time: 01 hr 08 min 52 sec)
[ERROR_CYCLE] Error added at CPU cycle 689443322, next at 691311391, pending count: 1
[DRAM_CYCLE_ERROR] Cycle-based error applied! address=0x1f5dc51ea8 additional_latency=1990500 cycles
[ERROR_CYCLE] Error added at CPU cycle 691311392, next at 706435840, pending count: 1
[DRAM_CYCLE_ERROR] Cycle-based error applied! address=0x13b42fa1d0 additional_latency=1990500 cycles
Heartbeat CPU 0 instructions: 430000041 cycles: 702862995 heartbeat IPC: 0.7311 cumulative IPC: 0.6118 (Simulation time: 01 hr 10 min 08 sec)
[ERROR_CYCLE] Error added at CPU cycle 706435841, next at 708373709, pending count: 1
[DRAM_CYCLE_ERROR] Cycle-based error applied! address=0x13cecf59c0 additional_latency=1990500 cycles
[ERROR_CYCLE] Error added at CPU cycle 708373709, next at 709740849, pending count: 1
[DRAM_CYCLE_ERROR] Cycle-based error applied! address=0x13cedc9678 additional_latency=1990500 cycles
[ERROR_CYCLE] Error added at CPU cycle 709740849, next at 713146632, pending count: 1
[DRAM_CYCLE_ERROR] Cycle-based error applied! address=0x5446a01e0 additional_latency=1990500 cycles
[ERROR_CYCLE] Error added at CPU cycle 713146633, next at 728113647, pending count: 1
[DRAM_CYCLE_ERROR] Cycle-based error applied! address=0x1004a413d0 additional_latency=1990500 cycles
[ERROR_CYCLE] Error added at CPU cycle 728113647, next at 729964738, pending count: 1
[DRAM_CYCLE_ERROR] Cycle-based error applied! address=0x13ceccbf80 additional_latency=1990500 cycles
[ERROR_CYCLE] Error added at CPU cycle 729964738, next at 736361994, pending count: 1
[DRAM_CYCLE_ERROR] Cycle-based error applied! address=0xa98effd40 additional_latency=1990500 cycles
Heartbeat CPU 0 instructions: 440000041 cycles: 735246685 heartbeat IPC: 0.3088 cumulative IPC: 0.5984 (Simulation time: 01 hr 12 min 28 sec)
[ERROR_CYCLE] Error added at CPU cycle 736361994, next at 740287178, pending count: 1
[DRAM_CYCLE_ERROR] Cycle-based error applied! address=0xca198c5a0 additional_latency=1990500 cycles
[ERROR_CYCLE] Error added at CPU cycle 740287179, next at 742566863, pending count: 1
[DRAM_CYCLE_ERROR] Cycle-based error applied! address=0x13b42f88b8 additional_latency=1990500 cycles
[ERROR_CYCLE] Error added at CPU cycle 742566864, next at 748440995, pending count: 1
[DRAM_CYCLE_ERROR] Cycle-based error applied! address=0x13cecd1d40 additional_latency=1990500 cycles
Heartbeat CPU 0 instructions: 450000044 cycles: 743737352 heartbeat IPC: 1.178 cumulative IPC: 0.6051 (Simulation time: 01 hr 13 min 11 sec)
[ERROR_CYCLE] Error added at CPU cycle 748440995, next at 752222168, pending count: 1
[DRAM_CYCLE_ERROR] Cycle-based error applied! address=0x1621e37ad0 additional_latency=1990500 cycles
[ERROR_CYCLE] Error added at CPU cycle 752222169, next at 753089532, pending count: 1
[DRAM_CYCLE_ERROR] Cycle-based error applied! address=0x1e30e5d820 additional_latency=1990500 cycles
[ERROR_CYCLE] Error added at CPU cycle 753089532, next at 755305368, pending count: 1
[DRAM_CYCLE_ERROR] Cycle-based error applied! address=0x13ced18b00 additional_latency=1990500 cycles
[ERROR_CYCLE] Error added at CPU cycle 755305368, next at 772665000, pending count: 1
[DRAM_CYCLE_ERROR] Cycle-based error applied! address=0x1b053891c8 additional_latency=1990500 cycles
Heartbeat CPU 0 instructions: 460000044 cycles: 757331097 heartbeat IPC: 0.7356 cumulative IPC: 0.6074 (Simulation time: 01 hr 14 min 13 sec)
Heartbeat CPU 0 instructions: 470000044 cycles: 766241862 heartbeat IPC: 1.122 cumulative IPC: 0.6134 (Simulation time: 01 hr 15 min 01 sec)
[ERROR_CYCLE] Error added at CPU cycle 772665001, next at 782584091, pending count: 1
[DRAM_CYCLE_ERROR] Cycle-based error applied! address=0xaa899ab90 additional_latency=1990500 cycles
Heartbeat CPU 0 instructions: 480000045 cycles: 776164467 heartbeat IPC: 1.008 cumulative IPC: 0.6184 (Simulation time: 01 hr 16 min 14 sec)
[ERROR_CYCLE] Error added at CPU cycle 782584092, next at 796276792, pending count: 1
[DRAM_CYCLE_ERROR] Cycle-based error applied! address=0x13cedb0600 additional_latency=1990500 cycles
[ERROR_CYCLE] Error added at CPU cycle 796276792, next at 801187692, pending count: 1
[DRAM_CYCLE_ERROR] Cycle-based error applied! address=0x1a67353cd8 additional_latency=1990500 cycles
[ERROR_CYCLE] Error added at CPU cycle 801187692, next at 808777645, pending count: 1
[DRAM_CYCLE_ERROR] Cycle-based error applied! address=0x13209c0d78 additional_latency=1990500 cycles
Heartbeat CPU 0 instructions: 490000046 cycles: 801891572 heartbeat IPC: 0.3887 cumulative IPC: 0.6111 (Simulation time: 01 hr 18 min 44 sec)
[ERROR_CYCLE] Error added at CPU cycle 808777645, next at 810760668, pending count: 1
[DRAM_CYCLE_ERROR] Cycle-based error applied! address=0x1e2132088 additional_latency=1990500 cycles
[ERROR_CYCLE] Error added at CPU cycle 810760669, next at 822280300, pending count: 1
Heartbeat CPU 0 instructions: 500000046 cycles: 811965564 heartbeat IPC: 0.9927 cumulative IPC: 0.6158 (Simulation time: 01 hr 19 min 41 sec)
[DRAM_CYCLE_ERROR] Cycle-based error applied! address=0x13b42f9c60 additional_latency=1990500 cycles
[ERROR_CYCLE] Error added at CPU cycle 822280301, next at 832288151, pending count: 1
Heartbeat CPU 0 instructions: 510000047 cycles: 823294291 heartbeat IPC: 0.8827 cumulative IPC: 0.6195 (Simulation time: 01 hr 20 min 46 sec)
[DRAM_CYCLE_ERROR] Cycle-based error applied! address=0x6a7a67830 additional_latency=1990500 cycles
Heartbeat CPU 0 instructions: 520000048 cycles: 831889712 heartbeat IPC: 1.163 cumulative IPC: 0.6251 (Simulation time: 01 hr 21 min 37 sec)
[ERROR_CYCLE] Error added at CPU cycle 832288151, next at 838593573, pending count: 1
[DRAM_CYCLE_ERROR] Cycle-based error applied! address=0x13b42fa1b0 additional_latency=1990500 cycles
[ERROR_CYCLE] Error added at CPU cycle 838593573, next at 846086183, pending count: 1
[DRAM_CYCLE_ERROR] Cycle-based error applied! address=0x13554c2398 additional_latency=1990500 cycles
Heartbeat CPU 0 instructions: 530000052 cycles: 842256361 heartbeat IPC: 0.9646 cumulative IPC: 0.6293 (Simulation time: 01 hr 22 min 27 sec)
[ERROR_CYCLE] Error added at CPU cycle 846086184, next at 862431645, pending count: 1
[DRAM_CYCLE_ERROR] Cycle-based error applied! address=0x10761378f8 additional_latency=1990500 cycles
[ERROR_CYCLE] Error added at CPU cycle 862431646, next at 874582316, pending count: 1
[DRAM_CYCLE_ERROR] Cycle-based error applied! address=0x1294aad480 additional_latency=1990500 cycles
[ERROR_CYCLE] Error added at CPU cycle 874582317, next at 876300437, pending count: 1
[DRAM_CYCLE_ERROR] Cycle-based error applied! address=0x1294b09540 additional_latency=1990500 cycles
Heartbeat CPU 0 instructions: 540000053 cycles: 874749248 heartbeat IPC: 0.3078 cumulative IPC: 0.6173 (Simulation time: 01 hr 24 min 48 sec)
[ERROR_CYCLE] Error added at CPU cycle 876300437, next at 881443625, pending count: 1
[DRAM_CYCLE_ERROR] Cycle-based error applied! address=0x1f8093ac90 additional_latency=1990500 cycles
[ERROR_CYCLE] Error added at CPU cycle 881443625, next at 885663751, pending count: 1
[DRAM_CYCLE_ERROR] Cycle-based error applied! address=0x1af890ae88 additional_latency=1990500 cycles
[ERROR_CYCLE] Error added at CPU cycle 885663752, next at 892255045, pending count: 1
[DRAM_CYCLE_ERROR] Cycle-based error applied! address=0x156d1b7f08 additional_latency=1990500 cycles
[ERROR_CYCLE] Error added at CPU cycle 892255045, next at 908006563, pending count: 1
[DRAM_CYCLE_ERROR] Cycle-based error applied! address=0x156d08f8e0 additional_latency=1990500 cycles
[ERROR_CYCLE] Error added at CPU cycle 908006564, next at 912786163, pending count: 1
[DRAM_CYCLE_ERROR] Cycle-based error applied! address=0x107a4e5b80 additional_latency=1990500 cycles
[ERROR_CYCLE] Error added at CPU cycle 912786163, next at 923266667, pending count: 1
[DRAM_CYCLE_ERROR] Cycle-based error applied! address=0x1309a1d6a8 additional_latency=1990500 cycles
Heartbeat CPU 0 instructions: 550000054 cycles: 918572508 heartbeat IPC: 0.2282 cumulative IPC: 0.5988 (Simulation time: 01 hr 27 min 30 sec)
[ERROR_CYCLE] Error added at CPU cycle 923266667, next at 924053485, pending count: 1
[DRAM_CYCLE_ERROR] Cycle-based error applied! address=0x144d667200 additional_latency=1990500 cycles
[ERROR_CYCLE] Error added at CPU cycle 924053485, next at 931344785, pending count: 1
[DRAM_CYCLE_ERROR] Cycle-based error applied! address=0x8c1664b08 additional_latency=1990500 cycles
[ERROR_CYCLE] Error added at CPU cycle 931344785, next at 936042183, pending count: 1
[DRAM_CYCLE_ERROR] Cycle-based error applied! address=0x106e5a2bc8 additional_latency=1990500 cycles
[ERROR_CYCLE] Error added at CPU cycle 936042184, next at 960927640, pending count: 1
[DRAM_CYCLE_ERROR] Cycle-based error applied! address=0x1100eb04b8 additional_latency=1990500 cycles
[ERROR_CYCLE] Error added at CPU cycle 960927640, next at 975843003, pending count: 1
[DRAM_CYCLE_ERROR] Cycle-based error applied! address=0xafaba9f80 additional_latency=1990500 cycles
Heartbeat CPU 0 instructions: 560000054 cycles: 962408526 heartbeat IPC: 0.2281 cumulative IPC: 0.5819 (Simulation time: 01 hr 30 min 12 sec)
[ERROR_CYCLE] Error added at CPU cycle 975843004, next at 977626043, pending count: 1
[DRAM_CYCLE_ERROR] Cycle-based error applied! address=0x8ce732f58 additional_latency=1990500 cycles
[ERROR_CYCLE] Error added at CPU cycle 977626043, next at 979831902, pending count: 1
[DRAM_CYCLE_ERROR] Cycle-based error applied! address=0x1c453077a0 additional_latency=1990500 cycles
[ERROR_CYCLE] Error added at CPU cycle 979831903, next at 985183089, pending count: 1
[DRAM_CYCLE_ERROR] Cycle-based error applied! address=0x1f94e7d6a8 additional_latency=1990500 cycles
[ERROR_CYCLE] Error added at CPU cycle 985183089, next at 985529715, pending count: 1
[DRAM_CYCLE_ERROR] Cycle-based error applied! address=0xdafcb1378 additional_latency=1990500 cycles
[ERROR_CYCLE] Error added at CPU cycle 985529715, next at 989014745, pending count: 1
[DRAM_CYCLE_ERROR] Cycle-based error applied! address=0x101a845b40 additional_latency=1990500 cycles
[ERROR_CYCLE] Error added at CPU cycle 989014745, next at 1000495001, pending count: 1
[DRAM_CYCLE_ERROR] Cycle-based error applied! address=0x193558ed38 additional_latency=1990500 cycles
[ERROR_CYCLE] Error added at CPU cycle 1000495002, next at 1035091477, pending count: 1
[DRAM_CYCLE_ERROR] Cycle-based error applied! address=0x473f11970 additional_latency=1990500 cycles
Heartbeat CPU 0 instructions: 570000057 cycles: 1006944028 heartbeat IPC: 0.2245 cumulative IPC: 0.5661 (Simulation time: 01 hr 32 min 55 sec)
[ERROR_CYCLE] Error added at CPU cycle 1035091477, next at 1043904956, pending count: 1
[DRAM_CYCLE_ERROR] Cycle-based error applied! address=0x750eca708 additional_latency=1990500 cycles
[ERROR_CYCLE] Error added at CPU cycle 1043904957, next at 1051871016, pending count: 1
[DRAM_CYCLE_ERROR] Cycle-based error applied! address=0x17e8757a20 additional_latency=1990500 cycles
Heartbeat CPU 0 instructions: 580000060 cycles: 1050589693 heartbeat IPC: 0.2291 cumulative IPC: 0.5521 (Simulation time: 01 hr 35 min 45 sec)
[ERROR_CYCLE] Error added at CPU cycle 1051871017, next at 1057060815, pending count: 1
[DRAM_CYCLE_ERROR] Cycle-based error applied! address=0xd8e551c60 additional_latency=1990500 cycles
[ERROR_CYCLE] Error added at CPU cycle 1057060815, next at 1067823653, pending count: 1
[DRAM_CYCLE_ERROR] Cycle-based error applied! address=0x175717b640 additional_latency=1990500 cycles
[ERROR_CYCLE] Error added at CPU cycle 1067823654, next at 1073330273, pending count: 1
[DRAM_CYCLE_ERROR] Cycle-based error applied! address=0x16c8c42f28 additional_latency=1990500 cycles
[ERROR_CYCLE] Error added at CPU cycle 1073330274, next at 1073566411, pending count: 1
[DRAM_CYCLE_ERROR] Cycle-based error applied! address=0x2bd8ca9d0 additional_latency=1990500 cycles
[ERROR_CYCLE] Error added at CPU cycle 1073566411, next at 1077955936, pending count: 1
[DRAM_CYCLE_ERROR] Cycle-based error applied! address=0x89a1acbf8 additional_latency=1990500 cycles
[ERROR_CYCLE] Error added at CPU cycle 1077955936, next at 1079111748, pending count: 1
[DRAM_CYCLE_ERROR] Cycle-based error applied! address=0x19f7c37e10 additional_latency=1990500 cycles
[ERROR_CYCLE] Error added at CPU cycle 1079111749, next at 1096295147, pending count: 1
[DRAM_CYCLE_ERROR] Cycle-based error applied! address=0x89a14feb8 additional_latency=1990500 cycles
Heartbeat CPU 0 instructions: 590000060 cycles: 1094954539 heartbeat IPC: 0.2254 cumulative IPC: 0.5388 (Simulation time: 01 hr 38 min 46 sec)
[ERROR_CYCLE] Error added at CPU cycle 1096295148, next at 1102125947, pending count: 1
[DRAM_CYCLE_ERROR] Cycle-based error applied! address=0xa470db358 additional_latency=1990500 cycles
[ERROR_CYCLE] Error added at CPU cycle 1102125947, next at 1134433618, pending count: 1
[DRAM_CYCLE_ERROR] Cycle-based error applied! address=0x89a073278 additional_latency=1990500 cycles
[ERROR_CYCLE] Error added at CPU cycle 1134433619, next at 1143019798, pending count: 1
[DRAM_CYCLE_ERROR] Cycle-based error applied! address=0x17ae153d38 additional_latency=1990500 cycles
Heartbeat CPU 0 instructions: 600000061 cycles: 1138559157 heartbeat IPC: 0.2293 cumulative IPC: 0.527 (Simulation time: 01 hr 42 min 08 sec)
[ERROR_CYCLE] Error added at CPU cycle 1143019799, next at 1144527713, pending count: 1
[DRAM_CYCLE_ERROR] Cycle-based error applied! address=0x13280a29c0 additional_latency=1990500 cycles
[ERROR_CYCLE] Error added at CPU cycle 1144527714, next at 1147844485, pending count: 1
[DRAM_CYCLE_ERROR] Cycle-based error applied! address=0x1b61658c38 additional_latency=1990500 cycles
[ERROR_CYCLE] Error added at CPU cycle 1147844485, next at 1151928025, pending count: 1
[DRAM_CYCLE_ERROR] Cycle-based error applied! address=0xe0dcce518 additional_latency=1990500 cycles
[ERROR_CYCLE] Error added at CPU cycle 1151928026, next at 1164212405, pending count: 1
[DRAM_CYCLE_ERROR] Cycle-based error applied! address=0x1e0643c238 additional_latency=1990500 cycles
[ERROR_CYCLE] Error added at CPU cycle 1164212406, next at 1164864924, pending count: 1
[DRAM_CYCLE_ERROR] Cycle-based error applied! address=0x1a69b4338 additional_latency=1990500 cycles
[ERROR_CYCLE] Error added at CPU cycle 1164864924, next at 1167706555, pending count: 1
[DRAM_CYCLE_ERROR] Cycle-based error applied! address=0x1a69ae1b8 additional_latency=1990500 cycles
[ERROR_CYCLE] Error added at CPU cycle 1167706555, next at 1176468137, pending count: 1
[DRAM_CYCLE_ERROR] Cycle-based error applied! address=0x1cf39c8760 additional_latency=1990500 cycles
[ERROR_CYCLE] Error added at CPU cycle 1176468137, next at 1178359731, pending count: 1
[DRAM_CYCLE_ERROR] Cycle-based error applied! address=0x1a6805480 additional_latency=1990500 cycles
[ERROR_CYCLE] Error added at CPU cycle 1178359731, next at 1186538523, pending count: 1
[DRAM_CYCLE_ERROR] Cycle-based error applied! address=0x12ca800378 additional_latency=1990500 cycles
Heartbeat CPU 0 instructions: 610000061 cycles: 1182451586 heartbeat IPC: 0.2278 cumulative IPC: 0.5159 (Simulation time: 01 hr 45 min 10 sec)
[ERROR_CYCLE] Error added at CPU cycle 1186538524, next at 1187608946, pending count: 1
[DRAM_CYCLE_ERROR] Cycle-based error applied! address=0x1389fcd4f0 additional_latency=1990500 cycles
[ERROR_CYCLE] Error added at CPU cycle 1187608947, next at 1193860883, pending count: 1
[DRAM_CYCLE_ERROR] Cycle-based error applied! address=0x28a2daf60 additional_latency=1990500 cycles
[ERROR_CYCLE] Error added at CPU cycle 1193860883, next at 1198722524, pending count: 1
[DRAM_CYCLE_ERROR] Cycle-based error applied! address=0x10ea5eb1c8 additional_latency=1990500 cycles
[ERROR_CYCLE] Error added at CPU cycle 1198722525, next at 1200139371, pending count: 1
[DRAM_CYCLE_ERROR] Cycle-based error applied! address=0x12ca950270 additional_latency=1990500 cycles
[ERROR_CYCLE] Error added at CPU cycle 1200139371, next at 1203745576, pending count: 1
[DRAM_CYCLE_ERROR] Cycle-based error applied! address=0xf1434beb0 additional_latency=1990500 cycles
[ERROR_CYCLE] Error added at CPU cycle 1203745577, next at 1206541145, pending count: 1
[DRAM_CYCLE_ERROR] Cycle-based error applied! address=0xed2a66438 additional_latency=1990500 cycles
[ERROR_CYCLE] Error added at CPU cycle 1206541145, next at 1208784502, pending count: 1
[DRAM_CYCLE_ERROR] Cycle-based error applied! address=0x154a457250 additional_latency=1990500 cycles
[ERROR_CYCLE] Error added at CPU cycle 1208784502, next at 1232405280, pending count: 1
[DRAM_CYCLE_ERROR] Cycle-based error applied! address=0x23b24a090 additional_latency=1990500 cycles
Heartbeat CPU 0 instructions: 620000063 cycles: 1222635189 heartbeat IPC: 0.2489 cumulative IPC: 0.5071 (Simulation time: 01 hr 48 min 47 sec)
[ERROR_CYCLE] Error added at CPU cycle 1232405281, next at 1236507134, pending count: 1
[DRAM_CYCLE_ERROR] Cycle-based error applied! address=0x144d67a698 additional_latency=1990500 cycles
[ERROR_CYCLE] Error added at CPU cycle 1236507134, next at 1244305712, pending count: 1
[DRAM_CYCLE_ERROR] Cycle-based error applied! address=0x9ae7a2138 additional_latency=1990500 cycles
[ERROR_CYCLE] Error added at CPU cycle 1244305712, next at 1247503943, pending count: 1
[DRAM_CYCLE_ERROR] Cycle-based error applied! address=0xe50e58040 additional_latency=1990500 cycles
[ERROR_CYCLE] Error added at CPU cycle 1247503943, next at 1254600384, pending count: 1
[DRAM_CYCLE_ERROR] Cycle-based error applied! address=0x92e929e70 additional_latency=1990500 cycles
[ERROR_CYCLE] Error added at CPU cycle 1254600384, next at 1254717674, pending count: 1
[DRAM_CYCLE_ERROR] Cycle-based error applied! address=0x1328034de8 additional_latency=1990500 cycles
[ERROR_CYCLE] Error added at CPU cycle 1254717674, next at 1256963700, pending count: 1
[DRAM_CYCLE_ERROR] Cycle-based error applied! address=0x8cbabd9c0 additional_latency=1990500 cycles
[ERROR_CYCLE] Error added at CPU cycle 1256963700, next at 1257921434, pending count: 1
[DRAM_CYCLE_ERROR] Cycle-based error applied! address=0xed6ae58b8 additional_latency=1990500 cycles
[ERROR_CYCLE] Error added at CPU cycle 1257921435, next at 1268455648, pending count: 1
[DRAM_CYCLE_ERROR] Cycle-based error applied! address=0xafabe0a40 additional_latency=1990500 cycles
Heartbeat CPU 0 instructions: 630000063 cycles: 1262291838 heartbeat IPC: 0.2522 cumulative IPC: 0.4991 (Simulation time: 01 hr 51 min 17 sec)
[ERROR_CYCLE] Error added at CPU cycle 1268455648, next at 1269143707, pending count: 1
[DRAM_CYCLE_ERROR] Cycle-based error applied! address=0x101a88fa40 additional_latency=1990500 cycles
[ERROR_CYCLE] Error added at CPU cycle 1269143707, next at 1278558868, pending count: 1
[DRAM_CYCLE_ERROR] Cycle-based error applied! address=0x5b2e06798 additional_latency=1990500 cycles
[ERROR_CYCLE] Error added at CPU cycle 1278558869, next at 1287946456, pending count: 1
[DRAM_CYCLE_ERROR] Cycle-based error applied! address=0xed6a75338 additional_latency=1990500 cycles
[ERROR_CYCLE] Error added at CPU cycle 1287946456, next at 1300702152, pending count: 1
[DRAM_CYCLE_ERROR] Cycle-based error applied! address=0x101a9e5dc0 additional_latency=1990500 cycles
Heartbeat CPU 0 instructions: 640000065 cycles: 1300228349 heartbeat IPC: 0.2636 cumulative IPC: 0.4922 (Simulation time: 01 hr 53 min 43 sec)
[ERROR_CYCLE] Error added at CPU cycle 1300702153, next at 1309431894, pending count: 1
[DRAM_CYCLE_ERROR] Cycle-based error applied! address=0xfae44f368 additional_latency=1990500 cycles
[ERROR_CYCLE] Error added at CPU cycle 1309431894, next at 1315837204, pending count: 1
[DRAM_CYCLE_ERROR] Cycle-based error applied! address=0xdb17a7738 additional_latency=1990500 cycles
[ERROR_CYCLE] Error added at CPU cycle 1315837204, next at 1321488363, pending count: 1
[DRAM_CYCLE_ERROR] Cycle-based error applied! address=0x1727d9cd30 additional_latency=1990500 cycles
[ERROR_CYCLE] Error added at CPU cycle 1321488363, next at 1323047984, pending count: 1
[DRAM_CYCLE_ERROR] Cycle-based error applied! address=0xdb175c778 additional_latency=1990500 cycles
[ERROR_CYCLE] Error added at CPU cycle 1323047984, next at 1325903536, pending count: 1
[DRAM_CYCLE_ERROR] Cycle-based error applied! address=0x64b8ae588 additional_latency=1990500 cycles
[ERROR_CYCLE] Error added at CPU cycle 1325903536, next at 1326611268, pending count: 1
[DRAM_CYCLE_ERROR] Cycle-based error applied! address=0x1c88141f50 additional_latency=1990500 cycles
[ERROR_CYCLE] Error added at CPU cycle 1326611268, next at 1332705889, pending count: 1
[DRAM_CYCLE_ERROR] Cycle-based error applied! address=0x12cfeb4820 additional_latency=1990500 cycles
[ERROR_CYCLE] Error added at CPU cycle 1332705890, next at 1340847840, pending count: 1
[DRAM_CYCLE_ERROR] Cycle-based error applied! address=0x4d1190b10 additional_latency=1990500 cycles
[ERROR_CYCLE] Error added at CPU cycle 1340847840, next at 1345469816, pending count: 1
[DRAM_CYCLE_ERROR] Cycle-based error applied! address=0x1c8e43f3b8 additional_latency=1990500 cycles
Heartbeat CPU 0 instructions: 650000065 cycles: 1343711874 heartbeat IPC: 0.23 cumulative IPC: 0.4837 (Simulation time: 01 hr 56 min 24 sec)
[ERROR_CYCLE] Error added at CPU cycle 1345469816, next at 1345959592, pending count: 1
[DRAM_CYCLE_ERROR] Cycle-based error applied! address=0x13ddb12130 additional_latency=1990500 cycles
[ERROR_CYCLE] Error added at CPU cycle 1345959593, next at 1347625360, pending count: 1
[DRAM_CYCLE_ERROR] Cycle-based error applied! address=0x1a1a5ebfa0 additional_latency=1990500 cycles
[ERROR_CYCLE] Error added at CPU cycle 1347625360, next at 1351706167, pending count: 1
[DRAM_CYCLE_ERROR] Cycle-based error applied! address=0x1621f74f98 additional_latency=1990500 cycles
[ERROR_CYCLE] Error added at CPU cycle 1351706167, next at 1358933144, pending count: 1
[DRAM_CYCLE_ERROR] Cycle-based error applied! address=0x17e86d9f78 additional_latency=1990500 cycles
[ERROR_CYCLE] Error added at CPU cycle 1358933144, next at 1370326360, pending count: 1
[DRAM_CYCLE_ERROR] Cycle-based error applied! address=0x10a0ee1fb8 additional_latency=1990500 cycles
[ERROR_CYCLE] Error added at CPU cycle 1370326360, next at 1379014015, pending count: 1
[DRAM_CYCLE_ERROR] Cycle-based error applied! address=0x1bba129b40 additional_latency=1990500 cycles
[ERROR_CYCLE] Error added at CPU cycle 1379014016, next at 1379564513, pending count: 1
[DRAM_CYCLE_ERROR] Cycle-based error applied! address=0x12c2803498 additional_latency=1990500 cycles
[ERROR_CYCLE] Error added at CPU cycle 1379564514, next at 1386176235, pending count: 1
[DRAM_CYCLE_ERROR] Cycle-based error applied! address=0x1e0041b9f0 additional_latency=1990500 cycles
[ERROR_CYCLE] Error added at CPU cycle 1386176235, next at 1386297657, pending count: 1
[DRAM_CYCLE_ERROR] Cycle-based error applied! address=0x1a382270a0 additional_latency=1990500 cycles
[ERROR_CYCLE] Error added at CPU cycle 1386297657, next at 1408852266, pending count: 1
[DRAM_CYCLE_ERROR] Cycle-based error applied! address=0x1e667b7b60 additional_latency=1990500 cycles
Heartbeat CPU 0 instructions: 660000066 cycles: 1391192079 heartbeat IPC: 0.2106 cumulative IPC: 0.4744 (Simulation time: 01 hr 59 min 17 sec)
[ERROR_CYCLE] Error added at CPU cycle 1408852267, next at 1434518356, pending count: 1
[DRAM_CYCLE_ERROR] Cycle-based error applied! address=0xe50ffc1d8 additional_latency=1990500 cycles
[ERROR_CYCLE] Error added at CPU cycle 1434518357, next at 1435050701, pending count: 1
[DRAM_CYCLE_ERROR] Cycle-based error applied! address=0x1f3a720178 additional_latency=1990500 cycles
[ERROR_CYCLE] Error added at CPU cycle 1435050702, next at 1438242552, pending count: 1
[DRAM_CYCLE_ERROR] Cycle-based error applied! address=0x1934445350 additional_latency=1990500 cycles
[ERROR_CYCLE] Error added at CPU cycle 1438242552, next at 1439973246, pending count: 1
[DRAM_CYCLE_ERROR] Cycle-based error applied! address=0x1281c8dee8 additional_latency=1990500 cycles
Heartbeat CPU 0 instructions: 670000070 cycles: 1439313738 heartbeat IPC: 0.2078 cumulative IPC: 0.4655 (Simulation time: 02 hr 02 min 33 sec)
[ERROR_CYCLE] Error added at CPU cycle 1439973247, next at 1453079371, pending count: 1
[DRAM_CYCLE_ERROR] Cycle-based error applied! address=0x62bcdc398 additional_latency=1990500 cycles
[ERROR_CYCLE] Error added at CPU cycle 1453079372, next at 1460423027, pending count: 1
[DRAM_CYCLE_ERROR] Cycle-based error applied! address=0x1a5510ada8 additional_latency=1990500 cycles
[ERROR_CYCLE] Error added at CPU cycle 1460423028, next at 1467814764, pending count: 1
[DRAM_CYCLE_ERROR] Cycle-based error applied! address=0x154a49fac0 additional_latency=1990500 cycles
[ERROR_CYCLE] Error added at CPU cycle 1467814764, next at 1475620213, pending count: 1
[DRAM_CYCLE_ERROR] Cycle-based error applied! address=0x13552cca60 additional_latency=1990500 cycles
[ERROR_CYCLE] Error added at CPU cycle 1475620214, next at 1480513243, pending count: 1
[DRAM_CYCLE_ERROR] Cycle-based error applied! address=0x1294b64740 additional_latency=1990500 cycles
[ERROR_CYCLE] Error added at CPU cycle 1480513244, next at 1511248733, pending count: 1
[DRAM_CYCLE_ERROR] Cycle-based error applied! address=0x16246b7838 additional_latency=1990500 cycles
Heartbeat CPU 0 instructions: 680000072 cycles: 1486155044 heartbeat IPC: 0.2135 cumulative IPC: 0.4576 (Simulation time: 02 hr 05 min 28 sec)
[ERROR_CYCLE] Error added at CPU cycle 1511248733, next at 1514446758, pending count: 1
[DRAM_CYCLE_ERROR] Cycle-based error applied! address=0x3317b0248 additional_latency=1990500 cycles
[ERROR_CYCLE] Error added at CPU cycle 1514446758, next at 1515078884, pending count: 1
[DRAM_CYCLE_ERROR] Cycle-based error applied! address=0x1294ab25f8 additional_latency=1990500 cycles
[ERROR_CYCLE] Error added at CPU cycle 1515078885, next at 1517294807, pending count: 1
[DRAM_CYCLE_ERROR] Cycle-based error applied! address=0x81138a238 additional_latency=1990500 cycles
[ERROR_CYCLE] Error added at CPU cycle 1517294807, next at 1519651159, pending count: 1
[DRAM_CYCLE_ERROR] Cycle-based error applied! address=0xca19b7220 additional_latency=1990500 cycles
Heartbeat CPU 0 instructions: 690000073 cycles: 1519014407 heartbeat IPC: 0.3043 cumulative IPC: 0.4542 (Simulation time: 02 hr 07 min 46 sec)
[ERROR_CYCLE] Error added at CPU cycle 1519651159, next at 1533218412, pending count: 1
[DRAM_CYCLE_ERROR] Cycle-based error applied! address=0x16cb2aca28 additional_latency=1990500 cycles
[ERROR_CYCLE] Error added at CPU cycle 1533218412, next at 1535994456, pending count: 1
[DRAM_CYCLE_ERROR] Cycle-based error applied! address=0x13b42f7fb8 additional_latency=1990500 cycles
Heartbeat CPU 0 instructions: 700000074 cycles: 1534321852 heartbeat IPC: 0.6533 cumulative IPC: 0.4562 (Simulation time: 02 hr 08 min 53 sec)
[ERROR_CYCLE] Error added at CPU cycle 1535994457, next at 1562717751, pending count: 1
[DRAM_CYCLE_ERROR] Cycle-based error applied! address=0x13b42f9278 additional_latency=1990500 cycles
Heartbeat CPU 0 instructions: 710000077 cycles: 1543598469 heartbeat IPC: 1.078 cumulative IPC: 0.46 (Simulation time: 02 hr 09 min 38 sec)
Heartbeat CPU 0 instructions: 720000079 cycles: 1556614846 heartbeat IPC: 0.7683 cumulative IPC: 0.4625 (Simulation time: 02 hr 10 min 37 sec)
[ERROR_CYCLE] Error added at CPU cycle 1562717751, next at 1566368072, pending count: 1
[DRAM_CYCLE_ERROR] Cycle-based error applied! address=0x1294ac0738 additional_latency=1990500 cycles
[ERROR_CYCLE] Error added at CPU cycle 1566368073, next at 1571530525, pending count: 1
[DRAM_CYCLE_ERROR] Cycle-based error applied! address=0x13b42f7fb8 additional_latency=1990500 cycles
Heartbeat CPU 0 instructions: 730000082 cycles: 1568159842 heartbeat IPC: 0.8662 cumulative IPC: 0.4655 (Simulation time: 02 hr 11 min 32 sec)
[ERROR_CYCLE] Error added at CPU cycle 1571530526, next at 1580555846, pending count: 1
[DRAM_CYCLE_ERROR] Cycle-based error applied! address=0x1294ad3878 additional_latency=1990500 cycles
Heartbeat CPU 0 instructions: 740000083 cycles: 1576623143 heartbeat IPC: 1.182 cumulative IPC: 0.4694 (Simulation time: 02 hr 12 min 16 sec)
[ERROR_CYCLE] Error added at CPU cycle 1580555846, next at 1582872549, pending count: 1
[DRAM_CYCLE_ERROR] Cycle-based error applied! address=0x1d22266758 additional_latency=1990500 cycles
[ERROR_CYCLE] Error added at CPU cycle 1582872550, next at 1599922964, pending count: 1
[DRAM_CYCLE_ERROR] Cycle-based error applied! address=0xefc0da288 additional_latency=1990500 cycles
Heartbeat CPU 0 instructions: 750000083 cycles: 1592337975 heartbeat IPC: 0.6363 cumulative IPC: 0.471 (Simulation time: 02 hr 13 min 26 sec)
[ERROR_CYCLE] Error added at CPU cycle 1599922964, next at 1631974949, pending count: 1
[DRAM_CYCLE_ERROR] Cycle-based error applied! address=0x3eb500ee0 additional_latency=1990500 cycles
Heartbeat CPU 0 instructions: 760000084 cycles: 1600826382 heartbeat IPC: 1.178 cumulative IPC: 0.4748 (Simulation time: 02 hr 14 min 09 sec)
Heartbeat CPU 0 instructions: 770000085 cycles: 1610356823 heartbeat IPC: 1.049 cumulative IPC: 0.4782 (Simulation time: 02 hr 14 min 56 sec)
Heartbeat CPU 0 instructions: 780000085 cycles: 1623708466 heartbeat IPC: 0.749 cumulative IPC: 0.4804 (Simulation time: 02 hr 15 min 55 sec)
[ERROR_CYCLE] Error added at CPU cycle 1631974950, next at 1633180686, pending count: 1
[DRAM_CYCLE_ERROR] Cycle-based error applied! address=0x13b42f9e30 additional_latency=1990500 cycles
[ERROR_CYCLE] Error added at CPU cycle 1633180686, next at 1638048642, pending count: 1
[DRAM_CYCLE_ERROR] Cycle-based error applied! address=0x185437c458 additional_latency=1990500 cycles
Heartbeat CPU 0 instructions: 790000085 cycles: 1636549499 heartbeat IPC: 0.7788 cumulative IPC: 0.4827 (Simulation time: 02 hr 16 min 52 sec)
[ERROR_CYCLE] Error added at CPU cycle 1638048642, next at 1645854556, pending count: 1
[DRAM_CYCLE_ERROR] Cycle-based error applied! address=0x49592e158 additional_latency=1990500 cycles
[ERROR_CYCLE] Error added at CPU cycle 1645854557, next at 1648355040, pending count: 1
[DRAM_CYCLE_ERROR] Cycle-based error applied! address=0x64b929fd8 additional_latency=1990500 cycles
[ERROR_CYCLE] Error added at CPU cycle 1648355040, next at 1665069057, pending count: 1
[DRAM_CYCLE_ERROR] Cycle-based error applied! address=0x152a77ca40 additional_latency=1990500 cycles
Heartbeat CPU 0 instructions: 800000085 cycles: 1663405159 heartbeat IPC: 0.3724 cumulative IPC: 0.4809 (Simulation time: 02 hr 18 min 37 sec)
[ERROR_CYCLE] Error added at CPU cycle 1665069058, next at 1669208916, pending count: 1
[DRAM_CYCLE_ERROR] Cycle-based error applied! address=0x1534907a88 additional_latency=1990500 cycles
[ERROR_CYCLE] Error added at CPU cycle 1669208917, next at 1697675054, pending count: 1
[DRAM_CYCLE_ERROR] Cycle-based error applied! address=0xa43841880 additional_latency=1990500 cycles
Heartbeat CPU 0 instructions: 810000089 cycles: 1683826834 heartbeat IPC: 0.4897 cumulative IPC: 0.481 (Simulation time: 02 hr 20 min 00 sec)
[ERROR_CYCLE] Error added at CPU cycle 1697675055, next at 1701675293, pending count: 1
[DRAM_CYCLE_ERROR] Cycle-based error applied! address=0x5aebddec8 additional_latency=1990500 cycles
Heartbeat CPU 0 instructions: 820000089 cycles: 1698323731 heartbeat IPC: 0.6898 cumulative IPC: 0.4828 (Simulation time: 02 hr 21 min 02 sec)
[ERROR_CYCLE] Error added at CPU cycle 1701675294, next at 1708716282, pending count: 1
[DRAM_CYCLE_ERROR] Cycle-based error applied! address=0x18c8a85790 additional_latency=1990500 cycles
[ERROR_CYCLE] Error added at CPU cycle 1708716282, next at 1709439797, pending count: 1
[DRAM_CYCLE_ERROR] Cycle-based error applied! address=0xafaa0fd38 additional_latency=1990500 cycles
Heartbeat CPU 0 instructions: 830000089 cycles: 1709040802 heartbeat IPC: 0.9331 cumulative IPC: 0.4857 (Simulation time: 02 hr 21 min 52 sec)
[ERROR_CYCLE] Error added at CPU cycle 1709439798, next at 1711563017, pending count: 1
[DRAM_CYCLE_ERROR] Cycle-based error applied! address=0x13b42f9e30 additional_latency=1990500 cycles
[ERROR_CYCLE] Error added at CPU cycle 1711563017, next at 1715003487, pending count: 1
[DRAM_CYCLE_ERROR] Cycle-based error applied! address=0xf0f85bb08 additional_latency=1990500 cycles
[ERROR_CYCLE] Error added at CPU cycle 1715003488, next at 1715066771, pending count: 1
[DRAM_CYCLE_ERROR] Cycle-based error applied! address=0x1ba4967040 additional_latency=1990500 cycles
[ERROR_CYCLE] Error added at CPU cycle 1715066772, next at 1736135364, pending count: 1
[DRAM_CYCLE_ERROR] Cycle-based error applied! address=0x112c523070 additional_latency=1990500 cycles
Heartbeat CPU 0 instructions: 840000091 cycles: 1734081598 heartbeat IPC: 0.3993 cumulative IPC: 0.4844 (Simulation time: 02 hr 23 min 31 sec)
[ERROR_CYCLE] Error added at CPU cycle 1736135365, next at 1736452711, pending count: 1
[DRAM_CYCLE_ERROR] Cycle-based error applied! address=0xb440f91b0 additional_latency=1990500 cycles
[ERROR_CYCLE] Error added at CPU cycle 1736452711, next at 1756027423, pending count: 1
[DRAM_CYCLE_ERROR] Cycle-based error applied! address=0xafaa398c0 additional_latency=1990500 cycles
Heartbeat CPU 0 instructions: 850000092 cycles: 1754028839 heartbeat IPC: 0.5013 cumulative IPC: 0.4846 (Simulation time: 02 hr 24 min 58 sec)
[ERROR_CYCLE] Error added at CPU cycle 1756027423, next at 1763549234, pending count: 1
[DRAM_CYCLE_ERROR] Cycle-based error applied! address=0x13b42f9c60 additional_latency=1990500 cycles
[ERROR_CYCLE] Error added at CPU cycle 1763549234, next at 1773768970, pending count: 1
[DRAM_CYCLE_ERROR] Cycle-based error applied! address=0x1e66630240 additional_latency=1990500 cycles
Heartbeat CPU 0 instructions: 860000092 cycles: 1765193569 heartbeat IPC: 0.8957 cumulative IPC: 0.4872 (Simulation time: 02 hr 25 min 50 sec)
Heartbeat CPU 0 instructions: 870000095 cycles: 1773289560 heartbeat IPC: 1.235 cumulative IPC: 0.4906 (Simulation time: 02 hr 26 min 29 sec)
[ERROR_CYCLE] Error added at CPU cycle 1773768971, next at 1778443844, pending count: 1
[DRAM_CYCLE_ERROR] Cycle-based error applied! address=0x13b42f9c38 additional_latency=1990500 cycles
[ERROR_CYCLE] Error added at CPU cycle 1778443844, next at 1782835365, pending count: 1
[DRAM_CYCLE_ERROR] Cycle-based error applied! address=0x1f80886b80 additional_latency=1990500 cycles
[ERROR_CYCLE] Error added at CPU cycle 1782835365, next at 1785615858, pending count: 1
[DRAM_CYCLE_ERROR] Cycle-based error applied! address=0xf08d6f608 additional_latency=1990500 cycles
[ERROR_CYCLE] Error added at CPU cycle 1785615859, next at 1788412747, pending count: 1
[DRAM_CYCLE_ERROR] Cycle-based error applied! address=0x13b42f9c60 additional_latency=1990500 cycles
Heartbeat CPU 0 instructions: 880000095 cycles: 1786856960 heartbeat IPC: 0.7371 cumulative IPC: 0.4925 (Simulation time: 02 hr 27 min 28 sec)
[ERROR_CYCLE] Error added at CPU cycle 1788412747, next at 1790117615, pending count: 1
[DRAM_CYCLE_ERROR] Cycle-based error applied! address=0x13b42f9c38 additional_latency=1990500 cycles
[ERROR_CYCLE] Error added at CPU cycle 1790117615, next at 1798464365, pending count: 1
[DRAM_CYCLE_ERROR] Cycle-based error applied! address=0xafaadecf8 additional_latency=1990500 cycles
Heartbeat CPU 0 instructions: 890000096 cycles: 1797121107 heartbeat IPC: 0.9743 cumulative IPC: 0.4952 (Simulation time: 02 hr 28 min 30 sec)
[ERROR_CYCLE] Error added at CPU cycle 1798464365, next at 1814844775, pending count: 1
[DRAM_CYCLE_ERROR] Cycle-based error applied! address=0xafaacc4c0 additional_latency=1990500 cycles
[ERROR_CYCLE] Error added at CPU cycle 1814844776, next at 1830785667, pending count: 1
[DRAM_CYCLE_ERROR] Cycle-based error applied! address=0x11c4b72e70 additional_latency=1990500 cycles
Heartbeat CPU 0 instructions: 900000097 cycles: 1815836991 heartbeat IPC: 0.5343 cumulative IPC: 0.4956 (Simulation time: 02 hr 29 min 52 sec)
Heartbeat CPU 0 instructions: 910000097 cycles: 1824802951 heartbeat IPC: 1.115 cumulative IPC: 0.4987 (Simulation time: 02 hr 30 min 34 sec)
[ERROR_CYCLE] Error added at CPU cycle 1830785668, next at 1835439145, pending count: 1
[DRAM_CYCLE_ERROR] Cycle-based error applied! address=0x1be960d070 additional_latency=1990500 cycles
[ERROR_CYCLE] Error added at CPU cycle 1835439146, next at 1836059153, pending count: 1
[DRAM_CYCLE_ERROR] Cycle-based error applied! address=0x3b7a94090 additional_latency=1990500 cycles
[ERROR_CYCLE] Error added at CPU cycle 1836059154, next at 1837493634, pending count: 1
[DRAM_CYCLE_ERROR] Cycle-based error applied! address=0x1727d94080 additional_latency=1990500 cycles
Heartbeat CPU 0 instructions: 920000100 cycles: 1837218384 heartbeat IPC: 0.8054 cumulative IPC: 0.5008 (Simulation time: 02 hr 31 min 31 sec)
[ERROR_CYCLE] Error added at CPU cycle 1837493635, next at 1844607626, pending count: 1
[DRAM_CYCLE_ERROR] Cycle-based error applied! address=0x1413ece30 additional_latency=1990500 cycles
[ERROR_CYCLE] Error added at CPU cycle 1844607626, next at 1854071328, pending count: 1
[DRAM_CYCLE_ERROR] Cycle-based error applied! address=0xafab56348 additional_latency=1990500 cycles
Heartbeat CPU 0 instructions: 930000101 cycles: 1846578348 heartbeat IPC: 1.068 cumulative IPC: 0.5036 (Simulation time: 02 hr 32 min 15 sec)
[ERROR_CYCLE] Error added at CPU cycle 1854071328, next at 1855472322, pending count: 1
[DRAM_CYCLE_ERROR] Cycle-based error applied! address=0xdb1758c78 additional_latency=1990500 cycles
[ERROR_CYCLE] Error added at CPU cycle 1855472323, next at 1857304410, pending count: 1
[DRAM_CYCLE_ERROR] Cycle-based error applied! address=0x16a964e58 additional_latency=1990500 cycles
[ERROR_CYCLE] Error added at CPU cycle 1857304410, next at 1862584605, pending count: 1
[DRAM_CYCLE_ERROR] Cycle-based error applied! address=0x2bd8e8608 additional_latency=1990500 cycles
[ERROR_CYCLE] Error added at CPU cycle 1862584605, next at 1864393960, pending count: 1
[DRAM_CYCLE_ERROR] Cycle-based error applied! address=0x1a1a522250 additional_latency=1990500 cycles
[ERROR_CYCLE] Error added at CPU cycle 1864393960, next at 1864933537, pending count: 1
[DRAM_CYCLE_ERROR] Cycle-based error applied! address=0x1c8e45add8 additional_latency=1990500 cycles
[ERROR_CYCLE] Error added at CPU cycle 1864933537, next at 1865851525, pending count: 1
[DRAM_CYCLE_ERROR] Cycle-based error applied! address=0xd60803ea0 additional_latency=1990500 cycles
[ERROR_CYCLE] Error added at CPU cycle 1865851526, next at 1867251092, pending count: 1
[DRAM_CYCLE_ERROR] Cycle-based error applied! address=0x1317b2dfe0 additional_latency=1990500 cycles
[ERROR_CYCLE] Error added at CPU cycle 1867251092, next at 1900500575, pending count: 1
[DRAM_CYCLE_ERROR] Cycle-based error applied! address=0xdb1695b38 additional_latency=1990500 cycles
Heartbeat CPU 0 instructions: 940000103 cycles: 1885329151 heartbeat IPC: 0.2581 cumulative IPC: 0.4986 (Simulation time: 02 hr 34 min 41 sec)
[ERROR_CYCLE] Error added at CPU cycle 1900500576, next at 1910563094, pending count: 1
[DRAM_CYCLE_ERROR] Cycle-based error applied! address=0x2187f2900 additional_latency=1990500 cycles
[ERROR_CYCLE] Error added at CPU cycle 1910563095, next at 1915408338, pending count: 1
[DRAM_CYCLE_ERROR] Cycle-based error applied! address=0x7d76f1ad0 additional_latency=1990500 cycles
[ERROR_CYCLE] Error added at CPU cycle 1915408338, next at 1935312457, pending count: 1
[DRAM_CYCLE_ERROR] Cycle-based error applied! address=0x17ae165360 additional_latency=1990500 cycles
Heartbeat CPU 0 instructions: 950000105 cycles: 1927010262 heartbeat IPC: 0.2399 cumulative IPC: 0.493 (Simulation time: 02 hr 37 min 12 sec)
[ERROR_CYCLE] Error added at CPU cycle 1935312457, next at 1939316428, pending count: 1
[DRAM_CYCLE_ERROR] Cycle-based error applied! address=0x1509fbcb28 additional_latency=1990500 cycles
[ERROR_CYCLE] Error added at CPU cycle 1939316429, next at 1943440983, pending count: 1
[DRAM_CYCLE_ERROR] Cycle-based error applied! address=0x1ef4e81d68 additional_latency=1990500 cycles
[ERROR_CYCLE] Error added at CPU cycle 1943440984, next at 1969741263, pending count: 1
[DRAM_CYCLE_ERROR] Cycle-based error applied! address=0x13b42f9318 additional_latency=1990500 cycles
Heartbeat CPU 0 instructions: 960000106 cycles: 1945392558 heartbeat IPC: 0.544 cumulative IPC: 0.4935 (Simulation time: 02 hr 38 min 29 sec)
Heartbeat CPU 0 instructions: 970000110 cycles: 1955240546 heartbeat IPC: 1.015 cumulative IPC: 0.4961 (Simulation time: 02 hr 39 min 15 sec)
Heartbeat CPU 0 instructions: 980000113 cycles: 1964334080 heartbeat IPC: 1.1 cumulative IPC: 0.4989 (Simulation time: 02 hr 39 min 59 sec)
[ERROR_CYCLE] Error added at CPU cycle 1969741263, next at 1976892412, pending count: 1
[DRAM_CYCLE_ERROR] Cycle-based error applied! address=0x11da5a8580 additional_latency=1990500 cycles
[ERROR_CYCLE] Error added at CPU cycle 1976892413, next at 1985788570, pending count: 1
[DRAM_CYCLE_ERROR] Cycle-based error applied! address=0xd0083f768 additional_latency=1990500 cycles
Heartbeat CPU 0 instructions: 990000115 cycles: 1980465726 heartbeat IPC: 0.6199 cumulative IPC: 0.4999 (Simulation time: 02 hr 41 min 07 sec)
[ERROR_CYCLE] Error added at CPU cycle 1985788571, next at 1987556565, pending count: 1
[DRAM_CYCLE_ERROR] Cycle-based error applied! address=0xfe87d8cc0 additional_latency=1990500 cycles
[ERROR_CYCLE] Error added at CPU cycle 1987556566, next at 1990261281, pending count: 1
[DRAM_CYCLE_ERROR] Cycle-based error applied! address=0x13b42f9a90 additional_latency=1990500 cycles
[ERROR_CYCLE] Error added at CPU cycle 1990261282, next at 1993701914, pending count: 1
[DRAM_CYCLE_ERROR] Cycle-based error applied! address=0x1219003338 additional_latency=1990500 cycles
Heartbeat CPU 0 instructions: 1000000115 cycles: 1991236976 heartbeat IPC: 0.9284 cumulative IPC: 0.5022 (Simulation time: 02 hr 41 min 56 sec)
[ERROR_CYCLE] Error added at CPU cycle 1993701914, next at 2004551432, pending count: 1
[DRAM_CYCLE_ERROR] Cycle-based error applied! address=0x13c141b740 additional_latency=1990500 cycles
Heartbeat CPU 0 instructions: 1010000115 cycles: 2002167282 heartbeat IPC: 0.9149 cumulative IPC: 0.5045 (Simulation time: 02 hr 42 min 43 sec)
[ERROR_CYCLE] Error added at CPU cycle 2004551432, next at 2012423380, pending count: 1
[DRAM_CYCLE_ERROR] Cycle-based error applied! address=0x101a841168 additional_latency=1990500 cycles
[ERROR_CYCLE] Error added at CPU cycle 2012423380, next at 2016554019, pending count: 1
[DRAM_CYCLE_ERROR] Cycle-based error applied! address=0x101a850f80 additional_latency=1990500 cycles
Heartbeat CPU 0 instructions: 1020000118 cycles: 2013733344 heartbeat IPC: 0.8646 cumulative IPC: 0.5065 (Simulation time: 02 hr 43 min 36 sec)
[ERROR_CYCLE] Error added at CPU cycle 2016554019, next at 2021582144, pending count: 1
[DRAM_CYCLE_ERROR] Cycle-based error applied! address=0x63e32f8f8 additional_latency=1990500 cycles
[ERROR_CYCLE] Error added at CPU cycle 2021582145, next at 2027830179, pending count: 1
[DRAM_CYCLE_ERROR] Cycle-based error applied! address=0x13b42f9050 additional_latency=1990500 cycles
Heartbeat CPU 0 instructions: 1030000119 cycles: 2024619650 heartbeat IPC: 0.9186 cumulative IPC: 0.5087 (Simulation time: 02 hr 44 min 26 sec)
[ERROR_CYCLE] Error added at CPU cycle 2027830180, next at 2031708010, pending count: 1
[DRAM_CYCLE_ERROR] Cycle-based error applied! address=0x13b42f9df8 additional_latency=1990500 cycles
[ERROR_CYCLE] Error added at CPU cycle 2031708011, next at 2033085878, pending count: 1
[DRAM_CYCLE_ERROR] Cycle-based error applied! address=0xa00a6b1c8 additional_latency=1990500 cycles
[ERROR_CYCLE] Error added at CPU cycle 2033085879, next at 2050412514, pending count: 1
[DRAM_CYCLE_ERROR] Cycle-based error applied! address=0x101a8b0080 additional_latency=1990500 cycles
Heartbeat CPU 0 instructions: 1040000123 cycles: 2038534165 heartbeat IPC: 0.7187 cumulative IPC: 0.5102 (Simulation time: 02 hr 45 min 23 sec)
[ERROR_CYCLE] Error added at CPU cycle 2050412514, next at 2059398746, pending count: 1
[DRAM_CYCLE_ERROR] Cycle-based error applied! address=0x83a178ee8 additional_latency=1990500 cycles
[ERROR_CYCLE] Error added at CPU cycle 2059398746, next at 2067629437, pending count: 1
[DRAM_CYCLE_ERROR] Cycle-based error applied! address=0xe6c088ed0 additional_latency=1990500 cycles
[ERROR_CYCLE] Error added at CPU cycle 2067629437, next at 2106934259, pending count: 1
[DRAM_CYCLE_ERROR] Cycle-based error applied! address=0x13b4c73798 additional_latency=1990500 cycles
Heartbeat CPU 0 instructions: 1050000125 cycles: 2088391487 heartbeat IPC: 0.2006 cumulative IPC: 0.5028 (Simulation time: 02 hr 48 min 15 sec)
[ERROR_CYCLE] Error added at CPU cycle 2106934259, next at 2110315627, pending count: 1
[DRAM_CYCLE_ERROR] Cycle-based error applied! address=0x1a12dbc2f8 additional_latency=1990500 cycles
[ERROR_CYCLE] Error added at CPU cycle 2110315627, next at 2118569518, pending count: 1
[DRAM_CYCLE_ERROR] Cycle-based error applied! address=0xf53ab5fd0 additional_latency=1990500 cycles
[ERROR_CYCLE] Error added at CPU cycle 2118569518, next at 2119210001, pending count: 1
[DRAM_CYCLE_ERROR] Cycle-based error applied! address=0xe50e9bec8 additional_latency=1990500 cycles
[ERROR_CYCLE] Error added at CPU cycle 2119210001, next at 2124520168, pending count: 1
[DRAM_CYCLE_ERROR] Cycle-based error applied! address=0x1e6c220c78 additional_latency=1990500 cycles
Heartbeat CPU 0 instructions: 1060000125 cycles: 2122551186 heartbeat IPC: 0.2927 cumulative IPC: 0.4994 (Simulation time: 02 hr 50 min 19 sec)
[ERROR_CYCLE] Error added at CPU cycle 2124520168, next at 2130820746, pending count: 1
[DRAM_CYCLE_ERROR] Cycle-based error applied! address=0x62bd6f680 additional_latency=1990500 cycles
[ERROR_CYCLE] Error added at CPU cycle 2130820746, next at 2149422911, pending count: 1
Heartbeat CPU 0 instructions: 1070000129 cycles: 2131220141 heartbeat IPC: 1.154 cumulative IPC: 0.5021 (Simulation time: 02 hr 51 min 00 sec)
[DRAM_CYCLE_ERROR] Cycle-based error applied! address=0x13b42f9c38 additional_latency=1990500 cycles
Heartbeat CPU 0 instructions: 1080000129 cycles: 2140822752 heartbeat IPC: 1.041 cumulative IPC: 0.5045 (Simulation time: 02 hr 51 min 44 sec)
[ERROR_CYCLE] Error added at CPU cycle 2149422912, next at 2165592258, pending count: 1
[DRAM_CYCLE_ERROR] Cycle-based error applied! address=0x8880b7ad8 additional_latency=1990500 cycles
[ERROR_CYCLE] Error added at CPU cycle 2165592259, next at 2166000139, pending count: 1
[DRAM_CYCLE_ERROR] Cycle-based error applied! address=0x1c4531fd28 additional_latency=1990500 cycles
[ERROR_CYCLE] Error added at CPU cycle 2166000139, next at 2169428774, pending count: 1
[DRAM_CYCLE_ERROR] Cycle-based error applied! address=0x101a9af2f8 additional_latency=1990500 cycles
[ERROR_CYCLE] Error added at CPU cycle 2169428774, next at 2177935414, pending count: 1
[DRAM_CYCLE_ERROR] Cycle-based error applied! address=0x83bf309a0 additional_latency=1990500 cycles
Heartbeat CPU 0 instructions: 1090000132 cycles: 2176042122 heartbeat IPC: 0.2839 cumulative IPC: 0.5009 (Simulation time: 02 hr 53 min 54 sec)
[ERROR_CYCLE] Error added at CPU cycle 2177935415, next at 2187353454, pending count: 1
[DRAM_CYCLE_ERROR] Cycle-based error applied! address=0x15178f5f58 additional_latency=1990500 cycles
[ERROR_CYCLE] Error added at CPU cycle 2187353454, next at 2210064718, pending count: 1
[DRAM_CYCLE_ERROR] Cycle-based error applied! address=0x13b42f96f0 additional_latency=1990500 cycles
Heartbeat CPU 0 instructions: 1100000134 cycles: 2191192830 heartbeat IPC: 0.66 cumulative IPC: 0.502 (Simulation time: 02 hr 54 min 57 sec)
Heartbeat CPU 0 instructions: 1110000135 cycles: 2201821117 heartbeat IPC: 0.9409 cumulative IPC: 0.5041 (Simulation time: 02 hr 55 min 45 sec)
[ERROR_CYCLE] Error added at CPU cycle 2210064719, next at 2214888135, pending count: 1
[DRAM_CYCLE_ERROR] Cycle-based error applied! address=0xb33caf530 additional_latency=1990500 cycles
Heartbeat CPU 0 instructions: 1120000135 cycles: 2211335167 heartbeat IPC: 1.051 cumulative IPC: 0.5065 (Simulation time: 02 hr 56 min 29 sec)
[ERROR_CYCLE] Error added at CPU cycle 2214888136, next at 2227682588, pending count: 1
[DRAM_CYCLE_ERROR] Cycle-based error applied! address=0x101a969d00 additional_latency=1990500 cycles
Heartbeat CPU 0 instructions: 1130000136 cycles: 2219567478 heartbeat IPC: 1.215 cumulative IPC: 0.5091 (Simulation time: 02 hr 57 min 09 sec)
[ERROR_CYCLE] Error added at CPU cycle 2227682589, next at 2233464834, pending count: 1
[DRAM_CYCLE_ERROR] Cycle-based error applied! address=0x1a244fa270 additional_latency=1990500 cycles
[ERROR_CYCLE] Error added at CPU cycle 2233464834, next at 2241434258, pending count: 1
[DRAM_CYCLE_ERROR] Cycle-based error applied! address=0x92e926d48 additional_latency=1990500 cycles
[ERROR_CYCLE] Error added at CPU cycle 2241434259, next at 2241811042, pending count: 1
[DRAM_CYCLE_ERROR] Cycle-based error applied! address=0x3d89e0b98 additional_latency=1990500 cycles
[ERROR_CYCLE] Error added at CPU cycle 2241811042, next at 2244262384, pending count: 1
[DRAM_CYCLE_ERROR] Cycle-based error applied! address=0x13b42f9738 additional_latency=1990500 cycles
Heartbeat CPU 0 instructions: 1140000137 cycles: 2243306877 heartbeat IPC: 0.4212 cumulative IPC: 0.5082 (Simulation time: 02 hr 58 min 38 sec)
[ERROR_CYCLE] Error added at CPU cycle 2244262384, next at 2247145011, pending count: 1
[DRAM_CYCLE_ERROR] Cycle-based error applied! address=0x101a9bc1c8 additional_latency=1990500 cycles
[ERROR_CYCLE] Error added at CPU cycle 2247145011, next at 2253047404, pending count: 1
[DRAM_CYCLE_ERROR] Cycle-based error applied! address=0x5e54b36a8 additional_latency=1990500 cycles
[ERROR_CYCLE] Error added at CPU cycle 2253047405, next at 2261281241, pending count: 1
[DRAM_CYCLE_ERROR] Cycle-based error applied! address=0xb41f34bf0 additional_latency=1990500 cycles
Heartbeat CPU 0 instructions: 1150000137 cycles: 2253632223 heartbeat IPC: 0.9685 cumulative IPC: 0.5103 (Simulation time: 02 hr 59 min 24 sec)
[ERROR_CYCLE] Error added at CPU cycle 2261281241, next at 2288732855, pending count: 1
[DRAM_CYCLE_ERROR] Cycle-based error applied! address=0x11b9e1d790 additional_latency=1990500 cycles
Heartbeat CPU 0 instructions: 1160000139 cycles: 2270403300 heartbeat IPC: 0.5963 cumulative IPC: 0.5109 (Simulation time: 03 hr 00 min 32 sec)
Heartbeat CPU 0 instructions: 1170000141 cycles: 2278852992 heartbeat IPC: 1.183 cumulative IPC: 0.5134 (Simulation time: 03 hr 01 min 11 sec)
Heartbeat CPU 0 instructions: 1180000142 cycles: 2288633874 heartbeat IPC: 1.022 cumulative IPC: 0.5156 (Simulation time: 03 hr 01 min 55 sec)
[ERROR_CYCLE] Error added at CPU cycle 2288732855, next at 2296178606, pending count: 1
[DRAM_CYCLE_ERROR] Cycle-based error applied! address=0x1b148fa430 additional_latency=1990500 cycles
[ERROR_CYCLE] Error added at CPU cycle 2296178606, next at 2307270106, pending count: 1
[DRAM_CYCLE_ERROR] Cycle-based error applied! address=0xdb176fbb8 additional_latency=1990500 cycles
[ERROR_CYCLE] Error added at CPU cycle 2307270106, next at 2314261925, pending count: 1
[DRAM_CYCLE_ERROR] Cycle-based error applied! address=0xd1fb3eaa8 additional_latency=1990500 cycles
[ERROR_CYCLE] Error added at CPU cycle 2314261925, next at 2319922213, pending count: 1
[DRAM_CYCLE_ERROR] Cycle-based error applied! address=0x1fa47402d8 additional_latency=1990500 cycles
Heartbeat CPU 0 instructions: 1190000143 cycles: 2318201471 heartbeat IPC: 0.3382 cumulative IPC: 0.5133 (Simulation time: 03 hr 03 min 47 sec)
[ERROR_CYCLE] Error added at CPU cycle 2319922214, next at 2337341922, pending count: 1
[DRAM_CYCLE_ERROR] Cycle-based error applied! address=0x12bf4ff798 additional_latency=1990500 cycles
Heartbeat CPU 0 instructions: 1200000143 cycles: 2327962124 heartbeat IPC: 1.025 cumulative IPC: 0.5155 (Simulation time: 03 hr 04 min 31 sec)
[ERROR_CYCLE] Error added at CPU cycle 2337341923, next at 2341021142, pending count: 1
[DRAM_CYCLE_ERROR] Cycle-based error applied! address=0x29eb5d7c8 additional_latency=1990500 cycles
[ERROR_CYCLE] Error added at CPU cycle 2341021143, next at 2353732863, pending count: 1
[DRAM_CYCLE_ERROR] Cycle-based error applied! address=0x1a1a5d0ad8 additional_latency=1990500 cycles
Heartbeat CPU 0 instructions: 1210000146 cycles: 2343214962 heartbeat IPC: 0.6556 cumulative IPC: 0.5164 (Simulation time: 03 hr 05 min 36 sec)
[ERROR_CYCLE] Error added at CPU cycle 2353732863, next at 2354242305, pending count: 1
[DRAM_CYCLE_ERROR] Cycle-based error applied! address=0x1f4a2a5c80 additional_latency=1990500 cycles
[ERROR_CYCLE] Error added at CPU cycle 2354242305, next at 2366128568, pending count: 1
[DRAM_CYCLE_ERROR] Cycle-based error applied! address=0x1934444468 additional_latency=1990500 cycles
Heartbeat CPU 0 instructions: 1220000146 cycles: 2357293288 heartbeat IPC: 0.7103 cumulative IPC: 0.5175 (Simulation time: 03 hr 06 min 36 sec)
Heartbeat CPU 0 instructions: 1230000146 cycles: 2365258108 heartbeat IPC: 1.256 cumulative IPC: 0.52 (Simulation time: 03 hr 07 min 15 sec)
[ERROR_CYCLE] Error added at CPU cycle 2366128568, next at 2378498969, pending count: 1
[DRAM_CYCLE_ERROR] Cycle-based error applied! address=0x12b915cc20 additional_latency=1990500 cycles
Heartbeat CPU 0 instructions: 1240000146 cycles: 2374995856 heartbeat IPC: 1.027 cumulative IPC: 0.5221 (Simulation time: 03 hr 07 min 59 sec)
[ERROR_CYCLE] Error added at CPU cycle 2378498969, next at 2389561859, pending count: 1
[DRAM_CYCLE_ERROR] Cycle-based error applied! address=0xe9b17158 additional_latency=1990500 cycles
[ERROR_CYCLE] Error added at CPU cycle 2389561860, next at 2419565806, pending count: 1
[DRAM_CYCLE_ERROR] Cycle-based error applied! address=0xdb173c2f8 additional_latency=1990500 cycles
Heartbeat CPU 0 instructions: 1250000150 cycles: 2396099649 heartbeat IPC: 0.4738 cumulative IPC: 0.5217 (Simulation time: 03 hr 09 min 19 sec)
Heartbeat CPU 0 instructions: 1260000151 cycles: 2405247215 heartbeat IPC: 1.093 cumulative IPC: 0.5239 (Simulation time: 03 hr 10 min 01 sec)
Heartbeat CPU 0 instructions: 1270000152 cycles: 2417490971 heartbeat IPC: 0.8167 cumulative IPC: 0.5253 (Simulation time: 03 hr 10 min 54 sec)
[ERROR_CYCLE] Error added at CPU cycle 2419565807, next at 2420105318, pending count: 1
[DRAM_CYCLE_ERROR] Cycle-based error applied! address=0x13b42f9fe0 additional_latency=1990500 cycles
[ERROR_CYCLE] Error added at CPU cycle 2420105319, next at 2431250999, pending count: 1
[DRAM_CYCLE_ERROR] Cycle-based error applied! address=0x1c72441660 additional_latency=1990500 cycles
[ERROR_CYCLE] Error added at CPU cycle 2431250999, next at 2433725303, pending count: 1
[DRAM_CYCLE_ERROR] Cycle-based error applied! address=0xdb17abb40 additional_latency=1990500 cycles
[ERROR_CYCLE] Error added at CPU cycle 2433725304, next at 2439322859, pending count: 1
[DRAM_CYCLE_ERROR] Cycle-based error applied! address=0x1558453948 additional_latency=1990500 cycles
Heartbeat CPU 0 instructions: 1280000154 cycles: 2436324622 heartbeat IPC: 0.531 cumulative IPC: 0.5254 (Simulation time: 03 hr 12 min 08 sec)
[ERROR_CYCLE] Error added at CPU cycle 2439322860, next at 2457183998, pending count: 1
[DRAM_CYCLE_ERROR] Cycle-based error applied! address=0xd607eb100 additional_latency=1990500 cycles
[ERROR_CYCLE] Error added at CPU cycle 2457183998, next at 2460351086, pending count: 1
[DRAM_CYCLE_ERROR] Cycle-based error applied! address=0xdb17b2d40 additional_latency=1990500 cycles
[ERROR_CYCLE] Error added at CPU cycle 2460351086, next at 2481283387, pending count: 1
[DRAM_CYCLE_ERROR] Cycle-based error applied! address=0xdb17d9200 additional_latency=1990500 cycles
Heartbeat CPU 0 instructions: 1290000158 cycles: 2468455120 heartbeat IPC: 0.3112 cumulative IPC: 0.5226 (Simulation time: 03 hr 14 min 08 sec)
Heartbeat CPU 0 instructions: 1300000160 cycles: 2477621450 heartbeat IPC: 1.091 cumulative IPC: 0.5247 (Simulation time: 03 hr 14 min 51 sec)
[ERROR_CYCLE] Error added at CPU cycle 2481283387, next at 2484187671, pending count: 1
[DRAM_CYCLE_ERROR] Cycle-based error applied! address=0x13b42f9df8 additional_latency=1990500 cycles
[...]
[ERROR_CYCLE] Error added at CPU cycle 3358661341, next at 3366897301, pending count: 1
[DRAM_CYCLE_ERROR] Cycle-based error applied! address=0x1c21387cb0 additional_latency=1990500 cycles
[ERROR_CYCLE] Error added at CPU cycle 3366897301, next at 3371416314, pending count: 1
[DRAM_CYCLE_ERROR] Cycle-based error applied! address=0xc7bb44638 additional_latency=1990500 cycles
[ERROR_CYCLE] Error added at CPU cycle 3371416314, next at 3379795993, pending count: 1
[DRAM_CYCLE_ERROR] Cycle-based error applied! address=0x1f9442adb0 additional_latency=1990500 cycles
Heartbeat CPU 0 instructions: 1780000237 cycles: 3374735449 heartbeat IPC: 0.4778 cumulative IPC: 0.5274 (Simulation time: 04 hr 12 min 01 sec)
[ERROR_CYCLE] Error added at CPU cycle 3379795993, next at 3382118104, pending count: 1
[DRAM_CYCLE_ERROR] Cycle-based error applied! address=0x26a1a1be8 additional_latency=1990500 cycles
[ERROR_CYCLE] Error added at CPU cycle 3382118105, next at 3394445282, pending count: 1
[DRAM_CYCLE_ERROR] Cycle-based error applied! address=0x17f42413c0 additional_latency=1990500 cycles
[ERROR_CYCLE] Error added at CPU cycle 3394445282, next at 3397321436, pending count: 1
[DRAM_CYCLE_ERROR] Cycle-based error applied! address=0x1534893818 additional_latency=1990500 cycles
[ERROR_CYCLE] Error added at CPU cycle 3397321436, next at 3416001581, pending count: 1
[DRAM_CYCLE_ERROR] Cycle-based error applied! address=0x18ffd99e90 additional_latency=1990500 cycles
[ERROR_CYCLE] Error added at CPU cycle 3416001581, next at 3427047019, pending count: 1
[DRAM_CYCLE_ERROR] Cycle-based error applied! address=0xf1b4afb20 additional_latency=1990500 cycles
Heartbeat CPU 0 instructions: 1790000237 cycles: 3423341735 heartbeat IPC: 0.2057 cumulative IPC: 0.5229 (Simulation time: 04 hr 14 min 43 sec)
[ERROR_CYCLE] Error added at CPU cycle 3427047019, next at 3427434162, pending count: 1
[DRAM_CYCLE_ERROR] Cycle-based error applied! address=0x17edb998d0 additional_latency=1990500 cycles
[ERROR_CYCLE] Error added at CPU cycle 3427434162, next at 3439610564, pending count: 1
[DRAM_CYCLE_ERROR] Cycle-based error applied! address=0x1d182e9a88 additional_latency=1990500 cycles
[ERROR_CYCLE] Error added at CPU cycle 3439610565, next at 3441536658, pending count: 1
[DRAM_CYCLE_ERROR] Cycle-based error applied! address=0x139cfdae50 additional_latency=1990500 cycles
[ERROR_CYCLE] Error added at CPU cycle 3441536658, next at 3445299298, pending count: 1
[DRAM_CYCLE_ERROR] Cycle-based error applied! address=0x1e064f9200 additional_latency=1990500 cycles
[ERROR_CYCLE] Error added at CPU cycle 3445299298, next at 3452524272, pending count: 1
Heartbeat CPU 0 instructions: 1800000240 cycles: 3445737895 heartbeat IPC: 0.4465 cumulative IPC: 0.5224 (Simulation time: 04 hr 16 min 07 sec)
[DRAM_CYCLE_ERROR] Cycle-based error applied! address=0xc37270100 additional_latency=1990500 cycles
[ERROR_CYCLE] Error added at CPU cycle 3452524273, next at 3481200679, pending count: 1
[DRAM_CYCLE_ERROR] Cycle-based error applied! address=0x17f423c000 additional_latency=1990500 cycles
Heartbeat CPU 0 instructions: 1810000240 cycles: 3455681799 heartbeat IPC: 1.006 cumulative IPC: 0.5238 (Simulation time: 04 hr 16 min 51 sec)
Heartbeat CPU 0 instructions: 1820000242 cycles: 3475876929 heartbeat IPC: 0.4952 cumulative IPC: 0.5236 (Simulation time: 04 hr 18 min 10 sec)
[ERROR_CYCLE] Error added at CPU cycle 3481200679, next at 3482629115, pending count: 1
[DRAM_CYCLE_ERROR] Cycle-based error applied! address=0xcbac5818 additional_latency=1990500 cycles
[ERROR_CYCLE] Error added at CPU cycle 3482629115, next at 3490205195, pending count: 1
[DRAM_CYCLE_ERROR] Cycle-based error applied! address=0x13bc9c00c0 additional_latency=1990500 cycles
Heartbeat CPU 0 instructions: 1830000243 cycles: 3485653369 heartbeat IPC: 1.023 cumulative IPC: 0.525 (Simulation time: 04 hr 18 min 52 sec)
[ERROR_CYCLE] Error added at CPU cycle 3490205195, next at 3502712112, pending count: 1
[DRAM_CYCLE_ERROR] Cycle-based error applied! address=0x19cbb7d0d0 additional_latency=1990500 cycles
Heartbeat CPU 0 instructions: 1840000243 cycles: 3493512314 heartbeat IPC: 1.272 cumulative IPC: 0.5267 (Simulation time: 04 hr 19 min 29 sec)
[ERROR_CYCLE] Error added at CPU cycle 3502712112, next at 3503688056, pending count: 1
[DRAM_CYCLE_ERROR] Cycle-based error applied! address=0x1954e88258 additional_latency=1990500 cycles
Heartbeat CPU 0 instructions: 1850000243 cycles: 3503461076 heartbeat IPC: 1.005 cumulative IPC: 0.528 (Simulation time: 04 hr 20 min 12 sec)
[ERROR_CYCLE] Error added at CPU cycle 3503688056, next at 3536776428, pending count: 1
[DRAM_CYCLE_ERROR] Cycle-based error applied! address=0x13b42f9e68 additional_latency=1990500 cycles
Heartbeat CPU 0 instructions: 1860000245 cycles: 3518675090 heartbeat IPC: 0.6573 cumulative IPC: 0.5286 (Simulation time: 04 hr 21 min 13 sec)
Heartbeat CPU 0 instructions: 1870000249 cycles: 3534450882 heartbeat IPC: 0.6339 cumulative IPC: 0.5291 (Simulation time: 04 hr 22 min 15 sec)
[ERROR_CYCLE] Error added at CPU cycle 3536776429, next at 3539380315, pending count: 1
[DRAM_CYCLE_ERROR] Cycle-based error applied! address=0x13b42f8b38 additional_latency=1990500 cycles
[ERROR_CYCLE] Error added at CPU cycle 3539380316, next at 3552452405, pending count: 1
[DRAM_CYCLE_ERROR] Cycle-based error applied! address=0x13b42f9e48 additional_latency=1990500 cycles
Heartbeat CPU 0 instructions: 1880000253 cycles: 3543297211 heartbeat IPC: 1.13 cumulative IPC: 0.5306 (Simulation time: 04 hr 22 min 55 sec)
[ERROR_CYCLE] Error added at CPU cycle 3552452405, next at 3555386172, pending count: 1
[DRAM_CYCLE_ERROR] Cycle-based error applied! address=0xadb2dfe88 additional_latency=1990500 cycles
[ERROR_CYCLE] Error added at CPU cycle 3555386172, next at 3565493282, pending count: 1
[DRAM_CYCLE_ERROR] Cycle-based error applied! address=0x23b35ca40 additional_latency=1990500 cycles
Heartbeat CPU 0 instructions: 1890000255 cycles: 3560259841 heartbeat IPC: 0.5895 cumulative IPC: 0.5309 (Simulation time: 04 hr 24 min 02 sec)
[ERROR_CYCLE] Error added at CPU cycle 3565493283, next at 3568249572, pending count: 1
[DRAM_CYCLE_ERROR] Cycle-based error applied! address=0x171116cae0 additional_latency=1990500 cycles
[ERROR_CYCLE] Error added at CPU cycle 3568249572, next at 3568522343, pending count: 1
[DRAM_CYCLE_ERROR] Cycle-based error applied! address=0x13b42f88b8 additional_latency=1990500 cycles
[ERROR_CYCLE] Error added at CPU cycle 3568522344, next at 3582975010, pending count: 1
[DRAM_CYCLE_ERROR] Cycle-based error applied! address=0xda862d580 additional_latency=1990500 cycles
Heartbeat CPU 0 instructions: 1900000258 cycles: 3568812390 heartbeat IPC: 1.169 cumulative IPC: 0.5324 (Simulation time: 04 hr 24 min 40 sec)
Heartbeat CPU 0 instructions: 1910000258 cycles: 3579800379 heartbeat IPC: 0.9101 cumulative IPC: 0.5335 (Simulation time: 04 hr 25 min 27 sec)
[ERROR_CYCLE] Error added at CPU cycle 3582975011, next at 3592860273, pending count: 1
[DRAM_CYCLE_ERROR] Cycle-based error applied! address=0x13b42f8e38 additional_latency=1990500 cycles
Heartbeat CPU 0 instructions: 1920000259 cycles: 3589295221 heartbeat IPC: 1.053 cumulative IPC: 0.5349 (Simulation time: 04 hr 26 min 09 sec)
[ERROR_CYCLE] Error added at CPU cycle 3592860274, next at 3605916361, pending count: 1
[DRAM_CYCLE_ERROR] Cycle-based error applied! address=0xd2846ae0 additional_latency=1990500 cycles
Heartbeat CPU 0 instructions: 1930000261 cycles: 3605343493 heartbeat IPC: 0.6231 cumulative IPC: 0.5353 (Simulation time: 04 hr 27 min 13 sec)
[ERROR_CYCLE] Error added at CPU cycle 3605916361, next at 3609261367, pending count: 1
[DRAM_CYCLE_ERROR] Cycle-based error applied! address=0x13b42f9fe0 additional_latency=1990500 cycles
[ERROR_CYCLE] Error added at CPU cycle 3609261367, next at 3617852503, pending count: 1
[DRAM_CYCLE_ERROR] Cycle-based error applied! address=0x89a0e7c98 additional_latency=1990500 cycles
Heartbeat CPU 0 instructions: 1940000262 cycles: 3614203496 heartbeat IPC: 1.129 cumulative IPC: 0.5368 (Simulation time: 04 hr 27 min 53 sec)
[ERROR_CYCLE] Error added at CPU cycle 3617852504, next at 3629772698, pending count: 1
[DRAM_CYCLE_ERROR] Cycle-based error applied! address=0x61954908 additional_latency=1990500 cycles
Heartbeat CPU 0 instructions: 1950000263 cycles: 3626343933 heartbeat IPC: 0.8237 cumulative IPC: 0.5377 (Simulation time: 04 hr 28 min 43 sec)
[ERROR_CYCLE] Error added at CPU cycle 3629772698, next at 3630299561, pending count: 1
[DRAM_CYCLE_ERROR] Cycle-based error applied! address=0xf0616fa10 additional_latency=1990500 cycles
[ERROR_CYCLE] Error added at CPU cycle 3630299562, next at 3632755401, pending count: 1
[DRAM_CYCLE_ERROR] Cycle-based error applied! address=0x119e98cd0 additional_latency=1990500 cycles
[ERROR_CYCLE] Error added at CPU cycle 3632755401, next at 3633374270, pending count: 1
[ERROR_CYCLE] Error added at CPU cycle 3633374271, next at 3634220891, pending count: 2
[ERROR_CYCLE] Error added at CPU cycle 3634220891, next at 3639198086, pending count: 3
[DRAM_CYCLE_ERROR] Cycle-based error applied! address=0x13b42fa300 additional_latency=1990500 cycles
[DRAM_CYCLE_ERROR] Cycle-based error applied! address=0x13b42fa3a0 additional_latency=1990500 cycles
[DRAM_CYCLE_ERROR] Cycle-based error applied! address=0x89a135e20 additional_latency=1990500 cycles
Heartbeat CPU 0 instructions: 1960000263 cycles: 3636631310 heartbeat IPC: 0.9721 cumulative IPC: 0.539 (Simulation time: 04 hr 29 min 28 sec)
[ERROR_CYCLE] Error added at CPU cycle 3639198086, next at 3646011020, pending count: 1
[DRAM_CYCLE_ERROR] Cycle-based error applied! address=0x59a7d2c28 additional_latency=1990500 cycles
[ERROR_CYCLE] Error added at CPU cycle 3646011020, next at 3651837190, pending count: 1
[DRAM_CYCLE_ERROR] Cycle-based error applied! address=0x1e89c92070 additional_latency=1990500 cycles
[ERROR_CYCLE] Error added at CPU cycle 3651837190, next at 3655914274, pending count: 1
[DRAM_CYCLE_ERROR] Cycle-based error applied! address=0x967513640 additional_latency=1990500 cycles
[ERROR_CYCLE] Error added at CPU cycle 3655914274, next at 3668264923, pending count: 1
[DRAM_CYCLE_ERROR] Cycle-based error applied! address=0x5c5d52e50 additional_latency=1990500 cycles
Heartbeat CPU 0 instructions: 1970000266 cycles: 3662737647 heartbeat IPC: 0.383 cumulative IPC: 0.5378 (Simulation time: 04 hr 30 min 58 sec)
[ERROR_CYCLE] Error added at CPU cycle 3668264923, next at 3672833696, pending count: 1
[DRAM_CYCLE_ERROR] Cycle-based error applied! address=0x19ca74a400 additional_latency=1990500 cycles
[ERROR_CYCLE] Error added at CPU cycle 3672833696, next at 3686659210, pending count: 1
[DRAM_CYCLE_ERROR] Cycle-based error applied! address=0x381d43e30 additional_latency=1990500 cycles
[ERROR_CYCLE] Error added at CPU cycle 3686659210, next at 3701016279, pending count: 1
[DRAM_CYCLE_ERROR] Cycle-based error applied! address=0x740368338 additional_latency=1990500 cycles
[ERROR_CYCLE] Error added at CPU cycle 3701016279, next at 3704091930, pending count: 1
[DRAM_CYCLE_ERROR] Cycle-based error applied! address=0x6545036c0 additional_latency=1990500 cycles
[ERROR_CYCLE] Error added at CPU cycle 3704091930, next at 3707357958, pending count: 1
[DRAM_CYCLE_ERROR] Cycle-based error applied! address=0x1bcb98b220 additional_latency=1990500 cycles
[ERROR_CYCLE] Error added at CPU cycle 3707357959, next at 3720902264, pending count: 1
[DRAM_CYCLE_ERROR] Cycle-based error applied! address=0x4a8ce0a78 additional_latency=1990500 cycles
Heartbeat CPU 0 instructions: 1980000267 cycles: 3711121310 heartbeat IPC: 0.2067 cumulative IPC: 0.5335 (Simulation time: 04 hr 33 min 34 sec)
[ERROR_CYCLE] Error added at CPU cycle 3720902265, next at 3736508206, pending count: 1
[DRAM_CYCLE_ERROR] Cycle-based error applied! address=0x702e782f0 additional_latency=1990500 cycles
[ERROR_CYCLE] Error added at CPU cycle 3736508206, next at 3741974749, pending count: 1
[DRAM_CYCLE_ERROR] Cycle-based error applied! address=0x5a92880a0 additional_latency=1990500 cycles
[ERROR_CYCLE] Error added at CPU cycle 3741974750, next at 3773800626, pending count: 1
[DRAM_CYCLE_ERROR] Cycle-based error applied! address=0xa17aeae30 additional_latency=1990500 cycles
Heartbeat CPU 0 instructions: 1990000270 cycles: 3759974485 heartbeat IPC: 0.2047 cumulative IPC: 0.5293 (Simulation time: 04 hr 36 min 12 sec)
[ERROR_CYCLE] Error added at CPU cycle 3773800627, next at 3776272399, pending count: 1
[DRAM_CYCLE_ERROR] Cycle-based error applied! address=0xc662dddf8 additional_latency=1990500 cycles
[ERROR_CYCLE] Error added at CPU cycle 3776272399, next at 3790365098, pending count: 1
[DRAM_CYCLE_ERROR] Cycle-based error applied! address=0x1d222fe1f8 additional_latency=1990500 cycles
[ERROR_CYCLE] Error added at CPU cycle 3790365098, next at 3792783354, pending count: 1
[DRAM_CYCLE_ERROR] Cycle-based error applied! address=0x103d33f888 additional_latency=1990500 cycles
[ERROR_CYCLE] Error added at CPU cycle 3792783354, next at 3815701935, pending count: 1
[DRAM_CYCLE_ERROR] Cycle-based error applied! address=0x171b3aa4f8 additional_latency=1990500 cycles

=== ERROR PAGE STATISTICS ===
Mode: CYCLE
Error Cycle Interval: 8000000 CPU cycles
Total Error Accesses: 487
==============================
Simulation finished CPU 0 instructions: 1999999938 cycles: 3804968762 cumulative IPC: 0.5256 (Simulation time: 04 hr 38 min 40 sec)
Simulation complete CPU 0 instructions: 1999999938 cycles: 3804968762 cumulative IPC: 0.5256 (Simulation time: 04 hr 38 min 40 sec)

ChampSim completed all CPUs

=== Simulation ===
CPU 0 runs test_traces/605.mcf_s-994B.champsimtrace.xz

Region of Interest Statistics

CPU 0 cumulative IPC: 0.5256 instructions: 1999999938 cycles: 3804968762
CPU 0 Branch Prediction Accuracy: 92.62% MPKI: 18.99 Average ROB Occupancy at Mispredict: 32.65
Branch type MPKI
BRANCH_DIRECT_JUMP: 0.123
BRANCH_INDIRECT: 0
BRANCH_CONDITIONAL: 18.86
BRANCH_DIRECT_CALL: 6.5e-06
BRANCH_INDIRECT_CALL: 0.0004185
BRANCH_RETURN: 1e-05

cpu0->cpu0_STLB TOTAL        ACCESS:    5250156 HIT:    5249274 MISS:        882 MSHR_MERGE:          0
cpu0->cpu0_STLB LOAD         ACCESS:    5250156 HIT:    5249274 MISS:        882 MSHR_MERGE:          0
cpu0->cpu0_STLB RFO          ACCESS:          0 HIT:          0 MISS:          0 MSHR_MERGE:          0
cpu0->cpu0_STLB PREFETCH     ACCESS:          0 HIT:          0 MISS:          0 MSHR_MERGE:          0
cpu0->cpu0_STLB WRITE        ACCESS:          0 HIT:          0 MISS:          0 MSHR_MERGE:          0
cpu0->cpu0_STLB TRANSLATION  ACCESS:          0 HIT:          0 MISS:          0 MSHR_MERGE:          0
cpu0->cpu0_STLB PREFETCH REQUESTED:          0 ISSUED:          0 USEFUL:          0 USELESS:          0
cpu0->cpu0_STLB AVERAGE MISS LATENCY: 8699 cycles
cpu0->cpu0_L2C TOTAL        ACCESS:   81180855 HIT:   27540056 MISS:   53640799 MSHR_MERGE:          0
cpu0->cpu0_L2C LOAD         ACCESS:   75043367 HIT:   21467022 MISS:   53576345 MSHR_MERGE:          0
cpu0->cpu0_L2C RFO          ACCESS:     492507 HIT:     432338 MISS:      60169 MSHR_MERGE:          0
cpu0->cpu0_L2C PREFETCH     ACCESS:          0 HIT:          0 MISS:          0 MSHR_MERGE:          0
cpu0->cpu0_L2C WRITE        ACCESS:    5644981 HIT:    5640696 MISS:       4285 MSHR_MERGE:          0
cpu0->cpu0_L2C TRANSLATION  ACCESS:          0 HIT:          0 MISS:          0 MSHR_MERGE:          0
cpu0->cpu0_L2C PREFETCH REQUESTED:          0 ISSUED:          0 USEFUL:          0 USELESS:          0
cpu0->cpu0_L2C AVERAGE MISS LATENCY: 96.02 cycles
cpu0->cpu0_L1I TOTAL        ACCESS:    2873186 HIT:    2873095 MISS:         91 MSHR_MERGE:         25
cpu0->cpu0_L1I LOAD         ACCESS:    2873186 HIT:    2873095 MISS:         91 MSHR_MERGE:         25
cpu0->cpu0_L1I RFO          ACCESS:          0 HIT:          0 MISS:          0 MSHR_MERGE:          0
cpu0->cpu0_L1I PREFETCH     ACCESS:          0 HIT:          0 MISS:          0 MSHR_MERGE:          0
cpu0->cpu0_L1I WRITE        ACCESS:          0 HIT:          0 MISS:          0 MSHR_MERGE:          0
cpu0->cpu0_L1I TRANSLATION  ACCESS:          0 HIT:          0 MISS:          0 MSHR_MERGE:          0
cpu0->cpu0_L1I PREFETCH REQUESTED:          0 ISSUED:          0 USEFUL:          0 USELESS:          0
cpu0->cpu0_L1I AVERAGE MISS LATENCY: 101.9 cycles
cpu0->cpu0_L1D TOTAL        ACCESS:  810908013 HIT:  728546799 MISS:   82361214 MSHR_MERGE:    6824246
cpu0->cpu0_L1D LOAD         ACCESS:  610324223 HIT:  529339706 MISS:   80984517 MSHR_MERGE:    5941197
cpu0->cpu0_L1D RFO          ACCESS:          0 HIT:          0 MISS:          0 MSHR_MERGE:          0
cpu0->cpu0_L1D PREFETCH     ACCESS:          0 HIT:          0 MISS:          0 MSHR_MERGE:          0
cpu0->cpu0_L1D WRITE        ACCESS:  200583790 HIT:  199207093 MISS:    1376697 MSHR_MERGE:     883049
cpu0->cpu0_L1D TRANSLATION  ACCESS:          0 HIT:          0 MISS:          0 MSHR_MERGE:          0
cpu0->cpu0_L1D PREFETCH REQUESTED:          0 ISSUED:          0 USEFUL:          0 USELESS:          0
cpu0->cpu0_L1D AVERAGE MISS LATENCY: 77.03 cycles
cpu0->cpu0_ITLB TOTAL        ACCESS:    2722625 HIT:    2722624 MISS:          1 MSHR_MERGE:          0
cpu0->cpu0_ITLB LOAD         ACCESS:    2722625 HIT:    2722624 MISS:          1 MSHR_MERGE:          0
cpu0->cpu0_ITLB RFO          ACCESS:          0 HIT:          0 MISS:          0 MSHR_MERGE:          0
cpu0->cpu0_ITLB PREFETCH     ACCESS:          0 HIT:          0 MISS:          0 MSHR_MERGE:          0
cpu0->cpu0_ITLB WRITE        ACCESS:          0 HIT:          0 MISS:          0 MSHR_MERGE:          0
cpu0->cpu0_ITLB TRANSLATION  ACCESS:          0 HIT:          0 MISS:          0 MSHR_MERGE:          0
cpu0->cpu0_ITLB PREFETCH REQUESTED:          0 ISSUED:          0 USEFUL:          0 USELESS:          0
cpu0->cpu0_ITLB AVERAGE MISS LATENCY: 1.722e+04 cycles
cpu0->cpu0_DTLB TOTAL        ACCESS:  704835809 HIT:  699161726 MISS:    5674083 MSHR_MERGE:     423928
cpu0->cpu0_DTLB LOAD         ACCESS:  704835809 HIT:  699161726 MISS:    5674083 MSHR_MERGE:     423928
cpu0->cpu0_DTLB RFO          ACCESS:          0 HIT:          0 MISS:          0 MSHR_MERGE:          0
cpu0->cpu0_DTLB PREFETCH     ACCESS:          0 HIT:          0 MISS:          0 MSHR_MERGE:          0
cpu0->cpu0_DTLB WRITE        ACCESS:          0 HIT:          0 MISS:          0 MSHR_MERGE:          0
cpu0->cpu0_DTLB TRANSLATION  ACCESS:          0 HIT:          0 MISS:          0 MSHR_MERGE:          0
cpu0->cpu0_DTLB PREFETCH REQUESTED:          0 ISSUED:          0 USEFUL:          0 USELESS:          0
cpu0->cpu0_DTLB AVERAGE MISS LATENCY: 6.466 cycles
cpu0->LLC TOTAL        ACCESS:   57571102 HIT:   16528560 MISS:   41042542 MSHR_MERGE:          0
cpu0->LLC LOAD         ACCESS:   53576345 HIT:   12553513 MISS:   41022832 MSHR_MERGE:          0
cpu0->LLC RFO          ACCESS:      60169 HIT:      41694 MISS:      18475 MSHR_MERGE:          0
cpu0->LLC PREFETCH     ACCESS:          0 HIT:          0 MISS:          0 MSHR_MERGE:          0
cpu0->LLC WRITE        ACCESS:    3934588 HIT:    3933353 MISS:       1235 MSHR_MERGE:          0
cpu0->LLC TRANSLATION  ACCESS:          0 HIT:          0 MISS:          0 MSHR_MERGE:          0
cpu0->LLC PREFETCH REQUESTED:          0 ISSUED:          0 USEFUL:          0 USELESS:          0
cpu0->LLC AVERAGE MISS LATENCY: 104.9 cycles

DRAM Statistics

Channel 0 RQ ROW_BUFFER_HIT:     272114
  ROW_BUFFER_MISS:   20249520
  AVG DBUS CONGESTED CYCLE: 9.319
Channel 0 WQ ROW_BUFFER_HIT:     331749
  ROW_BUFFER_MISS:    1236046
  FULL:          0
Channel 0 REFRESHES ISSUED:     317060

Channel 1 RQ ROW_BUFFER_HIT:     271533
  ROW_BUFFER_MISS:   20249857
  AVG DBUS CONGESTED CYCLE: 9.314
Channel 1 WQ ROW_BUFFER_HIT:     330511
  ROW_BUFFER_MISS:    1237335
  FULL:          0
Channel 1 REFRESHES ISSUED:     317060
