[VMEM] WARNING: physical memory size is smaller than virtual memory size.

*** ChampSim Multicore Out-of-Order Simulator ***
Warmup Instructions: 0
Simulation Instructions: 9223372036854775807
Number of CPUs: 1
Page size: 2097152

Off-chip DRAM Size: 32 GiB Channels: 2 Width: 32-bit Data Rate: 4807 MT/s
[ERROR_PAGE_MANAGER] Error latency: 1990500 
[ERROR_PAGE_MANAGER] Random seed: 54321 (fixed for preload reproducibility)
[ERROR_PAGE_MANAGER] Cycle-based error modeling enabled
[ERROR_PAGE_MANAGER] Errors per interval: 1
[ERROR_PAGE_MANAGER] Error cycle interval: 20000000 cycles

=== ERROR PAGE STATISTICS ===
Mode: CYCLE
Error Cycle Interval: 20000000 CPU cycles
Total Error Accesses: 0
==============================
Warmup finished CPU 0 instructions: 0 cycles: 1 cumulative IPC: 0 (Simulation time: 00 hr 00 min 00 sec)
Warmup complete CPU 0 instructions: 0 cycles: 1 cumulative IPC: 0 (Simulation time: 00 hr 00 min 00 sec)
Heartbeat CPU 0 instructions: 10000003 cycles: 6914268 heartbeat IPC: 1.446 cumulative IPC: 1.446 (Simulation time: 00 hr 01 min 04 sec)
[ERROR_CYCLE] Error added at CPU cycle 14255611, next at 18306612, pending count: 1
[DRAM_CYCLE_ERROR] Cycle-based error applied! address=0x186550708 additional_latency=1990500 cycles
Heartbeat CPU 0 instructions: 20000005 cycles: 14638670 heartbeat IPC: 1.295 cumulative IPC: 1.366 (Simulation time: 00 hr 02 min 09 sec)
[ERROR_CYCLE] Error added at CPU cycle 18306612, next at 51392127, pending count: 1
[DRAM_CYCLE_ERROR] Cycle-based error applied! address=0x2831e2a18 additional_latency=1990500 cycles
Heartbeat CPU 0 instructions: 30000009 cycles: 23885405 heartbeat IPC: 1.081 cumulative IPC: 1.256 (Simulation time: 00 hr 03 min 10 sec)
Heartbeat CPU 0 instructions: 40000010 cycles: 32443570 heartbeat IPC: 1.168 cumulative IPC: 1.233 (Simulation time: 00 hr 04 min 11 sec)
Heartbeat CPU 0 instructions: 50000010 cycles: 40395780 heartbeat IPC: 1.258 cumulative IPC: 1.238 (Simulation time: 00 hr 05 min 21 sec)
Heartbeat CPU 0 instructions: 60000013 cycles: 47973404 heartbeat IPC: 1.32 cumulative IPC: 1.251 (Simulation time: 00 hr 06 min 27 sec)
[ERROR_CYCLE] Error added at CPU cycle 51392127, next at 106935378, pending count: 1
[DRAM_CYCLE_ERROR] Cycle-based error applied! address=0x1921b8be8 additional_latency=1990500 cycles
Heartbeat CPU 0 instructions: 70000014 cycles: 55375553 heartbeat IPC: 1.351 cumulative IPC: 1.264 (Simulation time: 00 hr 07 min 26 sec)
Heartbeat CPU 0 instructions: 80000014 cycles: 61375574 heartbeat IPC: 1.667 cumulative IPC: 1.303 (Simulation time: 00 hr 08 min 24 sec)
Heartbeat CPU 0 instructions: 90000015 cycles: 67140842 heartbeat IPC: 1.735 cumulative IPC: 1.34 (Simulation time: 00 hr 09 min 14 sec)
Heartbeat CPU 0 instructions: 100000015 cycles: 73790002 heartbeat IPC: 1.504 cumulative IPC: 1.355 (Simulation time: 00 hr 10 min 03 sec)
Heartbeat CPU 0 instructions: 110000018 cycles: 82492056 heartbeat IPC: 1.149 cumulative IPC: 1.333 (Simulation time: 00 hr 11 min 09 sec)
Heartbeat CPU 0 instructions: 120000020 cycles: 90966625 heartbeat IPC: 1.18 cumulative IPC: 1.319 (Simulation time: 00 hr 12 min 16 sec)
Heartbeat CPU 0 instructions: 130000020 cycles: 98864833 heartbeat IPC: 1.266 cumulative IPC: 1.315 (Simulation time: 00 hr 13 min 25 sec)
Heartbeat CPU 0 instructions: 140000021 cycles: 106444517 heartbeat IPC: 1.319 cumulative IPC: 1.315 (Simulation time: 00 hr 14 min 33 sec)
[ERROR_CYCLE] Error added at CPU cycle 106935379, next at 107536449, pending count: 1
[DRAM_CYCLE_ERROR] Cycle-based error applied! address=0x28307cfe8 additional_latency=1990500 cycles
[ERROR_CYCLE] Error added at CPU cycle 107536449, next at 138277283, pending count: 1
[DRAM_CYCLE_ERROR] Cycle-based error applied! address=0x249addb00 additional_latency=1990500 cycles
Heartbeat CPU 0 instructions: 150000022 cycles: 113155005 heartbeat IPC: 1.49 cumulative IPC: 1.326 (Simulation time: 00 hr 15 min 22 sec)
Heartbeat CPU 0 instructions: 160000024 cycles: 118954270 heartbeat IPC: 1.724 cumulative IPC: 1.345 (Simulation time: 00 hr 16 min 08 sec)
Heartbeat CPU 0 instructions: 170000027 cycles: 125913476 heartbeat IPC: 1.437 cumulative IPC: 1.35 (Simulation time: 00 hr 16 min 58 sec)
Heartbeat CPU 0 instructions: 180000031 cycles: 134841212 heartbeat IPC: 1.12 cumulative IPC: 1.335 (Simulation time: 00 hr 18 min 16 sec)
[ERROR_CYCLE] Error added at CPU cycle 138277283, next at 141856885, pending count: 1
[DRAM_CYCLE_ERROR] Cycle-based error applied! address=0x17e12e930 additional_latency=1990500 cycles
[ERROR_CYCLE] Error added at CPU cycle 141856885, next at 153234841, pending count: 1
[DRAM_CYCLE_ERROR] Cycle-based error applied! address=0x2c1025cc0 additional_latency=1990500 cycles
Heartbeat CPU 0 instructions: 190000035 cycles: 143071235 heartbeat IPC: 1.215 cumulative IPC: 1.328 (Simulation time: 00 hr 19 min 27 sec)
Heartbeat CPU 0 instructions: 200000037 cycles: 150114827 heartbeat IPC: 1.42 cumulative IPC: 1.332 (Simulation time: 00 hr 20 min 32 sec)
[ERROR_CYCLE] Error added at CPU cycle 153234841, next at 170313718, pending count: 1
[DRAM_CYCLE_ERROR] Cycle-based error applied! address=0x249aa67f8 additional_latency=1990500 cycles
Heartbeat CPU 0 instructions: 210000041 cycles: 158881815 heartbeat IPC: 1.141 cumulative IPC: 1.322 (Simulation time: 00 hr 21 min 49 sec)
Heartbeat CPU 0 instructions: 220000041 cycles: 167318408 heartbeat IPC: 1.185 cumulative IPC: 1.315 (Simulation time: 00 hr 23 min 02 sec)
[ERROR_CYCLE] Error added at CPU cycle 170313718, next at 175206749, pending count: 1
[DRAM_CYCLE_ERROR] Cycle-based error applied! address=0x3d24528b8 additional_latency=1990500 cycles
[ERROR_CYCLE] Error added at CPU cycle 175206749, next at 210725907, pending count: 1
[DRAM_CYCLE_ERROR] Cycle-based error applied! address=0x249ace6c0 additional_latency=1990500 cycles
Heartbeat CPU 0 instructions: 230000042 cycles: 175244208 heartbeat IPC: 1.262 cumulative IPC: 1.312 (Simulation time: 00 hr 24 min 10 sec)
Heartbeat CPU 0 instructions: 240000046 cycles: 182816093 heartbeat IPC: 1.321 cumulative IPC: 1.313 (Simulation time: 00 hr 25 min 17 sec)
Heartbeat CPU 0 instructions: 250000047 cycles: 190178043 heartbeat IPC: 1.358 cumulative IPC: 1.315 (Simulation time: 00 hr 26 min 24 sec)
Heartbeat CPU 0 instructions: 260000047 cycles: 197356200 heartbeat IPC: 1.393 cumulative IPC: 1.317 (Simulation time: 00 hr 27 min 19 sec)
Heartbeat CPU 0 instructions: 270000047 cycles: 204399342 heartbeat IPC: 1.42 cumulative IPC: 1.321 (Simulation time: 00 hr 28 min 24 sec)
[ERROR_CYCLE] Error added at CPU cycle 210725908, next at 217846273, pending count: 1
[DRAM_CYCLE_ERROR] Cycle-based error applied! address=0x249b0cec0 additional_latency=1990500 cycles
Heartbeat CPU 0 instructions: 280000048 cycles: 211360885 heartbeat IPC: 1.436 cumulative IPC: 1.325 (Simulation time: 00 hr 29 min 28 sec)
Heartbeat CPU 0 instructions: 290000050 cycles: 217040026 heartbeat IPC: 1.761 cumulative IPC: 1.336 (Simulation time: 00 hr 30 min 24 sec)
[ERROR_CYCLE] Error added at CPU cycle 217846274, next at 226797996, pending count: 1
[DRAM_CYCLE_ERROR] Cycle-based error applied! address=0x249b09a60 additional_latency=1990500 cycles
Heartbeat CPU 0 instructions: 300000051 cycles: 222240592 heartbeat IPC: 1.923 cumulative IPC: 1.35 (Simulation time: 00 hr 31 min 18 sec)
[ERROR_CYCLE] Error added at CPU cycle 226797996, next at 267503668, pending count: 1
[DRAM_CYCLE_ERROR] Cycle-based error applied! address=0x7437b70d8 additional_latency=1990500 cycles
Heartbeat CPU 0 instructions: 310000051 cycles: 227659693 heartbeat IPC: 1.845 cumulative IPC: 1.362 (Simulation time: 00 hr 32 min 12 sec)
Heartbeat CPU 0 instructions: 320000051 cycles: 233305100 heartbeat IPC: 1.771 cumulative IPC: 1.372 (Simulation time: 00 hr 33 min 08 sec)
Heartbeat CPU 0 instructions: 330000051 cycles: 239218094 heartbeat IPC: 1.691 cumulative IPC: 1.379 (Simulation time: 00 hr 34 min 05 sec)
Heartbeat CPU 0 instructions: 340000051 cycles: 245592598 heartbeat IPC: 1.569 cumulative IPC: 1.384 (Simulation time: 00 hr 35 min 04 sec)
Heartbeat CPU 0 instructions: 350000053 cycles: 252736641 heartbeat IPC: 1.4 cumulative IPC: 1.385 (Simulation time: 00 hr 36 min 08 sec)
Heartbeat CPU 0 instructions: 360000054 cycles: 261606608 heartbeat IPC: 1.127 cumulative IPC: 1.376 (Simulation time: 00 hr 37 min 23 sec)
[ERROR_CYCLE] Error added at CPU cycle 267503668, next at 267748717, pending count: 1
[DRAM_CYCLE_ERROR] Cycle-based error applied! address=0x3a3f45fc0 additional_latency=1990500 cycles
[ERROR_CYCLE] Error added at CPU cycle 267748717, next at 290247725, pending count: 1
[DRAM_CYCLE_ERROR] Cycle-based error applied! address=0x3d241b650 additional_latency=1990500 cycles
Heartbeat CPU 0 instructions: 370000054 cycles: 269740160 heartbeat IPC: 1.229 cumulative IPC: 1.372 (Simulation time: 00 hr 38 min 36 sec)
Heartbeat CPU 0 instructions: 380000056 cycles: 278306261 heartbeat IPC: 1.167 cumulative IPC: 1.365 (Simulation time: 00 hr 39 min 51 sec)
Heartbeat CPU 0 instructions: 390000059 cycles: 286458015 heartbeat IPC: 1.227 cumulative IPC: 1.361 (Simulation time: 00 hr 41 min 02 sec)
[ERROR_CYCLE] Error added at CPU cycle 290247726, next at 303374226, pending count: 1
[DRAM_CYCLE_ERROR] Cycle-based error applied! address=0x249acca80 additional_latency=1990500 cycles
Heartbeat CPU 0 instructions: 400000059 cycles: 294151825 heartbeat IPC: 1.3 cumulative IPC: 1.36 (Simulation time: 00 hr 42 min 11 sec)
Heartbeat CPU 0 instructions: 410000063 cycles: 301595488 heartbeat IPC: 1.343 cumulative IPC: 1.359 (Simulation time: 00 hr 43 min 18 sec)
[ERROR_CYCLE] Error added at CPU cycle 303374226, next at 379052965, pending count: 1
[DRAM_CYCLE_ERROR] Cycle-based error applied! address=0x7bf017540 additional_latency=1990500 cycles
Heartbeat CPU 0 instructions: 420000063 cycles: 308612583 heartbeat IPC: 1.425 cumulative IPC: 1.361 (Simulation time: 00 hr 44 min 22 sec)
Heartbeat CPU 0 instructions: 430000064 cycles: 314056027 heartbeat IPC: 1.837 cumulative IPC: 1.369 (Simulation time: 00 hr 45 min 17 sec)
Heartbeat CPU 0 instructions: 440000064 cycles: 320031168 heartbeat IPC: 1.674 cumulative IPC: 1.375 (Simulation time: 00 hr 46 min 15 sec)
Heartbeat CPU 0 instructions: 450000064 cycles: 327026691 heartbeat IPC: 1.429 cumulative IPC: 1.376 (Simulation time: 00 hr 47 min 18 sec)
Heartbeat CPU 0 instructions: 460000065 cycles: 335807631 heartbeat IPC: 1.139 cumulative IPC: 1.37 (Simulation time: 00 hr 48 min 36 sec)
Heartbeat CPU 0 instructions: 470000065 cycles: 344567556 heartbeat IPC: 1.142 cumulative IPC: 1.364 (Simulation time: 00 hr 49 min 42 sec)
Heartbeat CPU 0 instructions: 480000066 cycles: 352783938 heartbeat IPC: 1.217 cumulative IPC: 1.361 (Simulation time: 00 hr 50 min 38 sec)
Heartbeat CPU 0 instructions: 490000067 cycles: 360522452 heartbeat IPC: 1.292 cumulative IPC: 1.359 (Simulation time: 00 hr 51 min 38 sec)
Heartbeat CPU 0 instructions: 500000069 cycles: 368011148 heartbeat IPC: 1.335 cumulative IPC: 1.359 (Simulation time: 00 hr 52 min 47 sec)
Heartbeat CPU 0 instructions: 510000070 cycles: 375274044 heartbeat IPC: 1.377 cumulative IPC: 1.359 (Simulation time: 00 hr 53 min 55 sec)
[ERROR_CYCLE] Error added at CPU cycle 379052966, next at 383791854, pending count: 1
[DRAM_CYCLE_ERROR] Cycle-based error applied! address=0x743731402 additional_latency=1990500 cycles
Heartbeat CPU 0 instructions: 520000073 cycles: 382374800 heartbeat IPC: 1.408 cumulative IPC: 1.36 (Simulation time: 00 hr 55 min 02 sec)
[ERROR_CYCLE] Error added at CPU cycle 383791855, next at 388594052, pending count: 1
[DRAM_CYCLE_ERROR] Cycle-based error applied! address=0x2c105c800 additional_latency=1990500 cycles
[ERROR_CYCLE] Error added at CPU cycle 388594053, next at 446238065, pending count: 1
[DRAM_CYCLE_ERROR] Cycle-based error applied! address=0x249b0b8c0 additional_latency=1990500 cycles
Heartbeat CPU 0 instructions: 530000073 cycles: 389361934 heartbeat IPC: 1.431 cumulative IPC: 1.361 (Simulation time: 00 hr 56 min 08 sec)
Heartbeat CPU 0 instructions: 540000075 cycles: 396208566 heartbeat IPC: 1.461 cumulative IPC: 1.363 (Simulation time: 00 hr 57 min 14 sec)
Heartbeat CPU 0 instructions: 550000077 cycles: 402938861 heartbeat IPC: 1.486 cumulative IPC: 1.365 (Simulation time: 00 hr 58 min 18 sec)
Heartbeat CPU 0 instructions: 560000080 cycles: 409567758 heartbeat IPC: 1.509 cumulative IPC: 1.367 (Simulation time: 00 hr 59 min 22 sec)
Heartbeat CPU 0 instructions: 570000082 cycles: 416104383 heartbeat IPC: 1.53 cumulative IPC: 1.37 (Simulation time: 01 hr 00 min 25 sec)
Heartbeat CPU 0 instructions: 580000083 cycles: 422531600 heartbeat IPC: 1.556 cumulative IPC: 1.373 (Simulation time: 01 hr 01 min 28 sec)
Heartbeat CPU 0 instructions: 590000083 cycles: 428883546 heartbeat IPC: 1.574 cumulative IPC: 1.376 (Simulation time: 01 hr 02 min 31 sec)
Heartbeat CPU 0 instructions: 600000083 cycles: 435169329 heartbeat IPC: 1.591 cumulative IPC: 1.379 (Simulation time: 01 hr 03 min 33 sec)
Heartbeat CPU 0 instructions: 610000084 cycles: 441394564 heartbeat IPC: 1.606 cumulative IPC: 1.382 (Simulation time: 01 hr 04 min 34 sec)
[ERROR_CYCLE] Error added at CPU cycle 446238066, next at 454133415, pending count: 1
[DRAM_CYCLE_ERROR] Cycle-based error applied! address=0x47e351bf8 additional_latency=1990500 cycles
Heartbeat CPU 0 instructions: 620000088 cycles: 447594505 heartbeat IPC: 1.613 cumulative IPC: 1.385 (Simulation time: 01 hr 05 min 36 sec)
Heartbeat CPU 0 instructions: 630000090 cycles: 453736253 heartbeat IPC: 1.628 cumulative IPC: 1.388 (Simulation time: 01 hr 06 min 38 sec)
[ERROR_CYCLE] Error added at CPU cycle 454133415, next at 539692982, pending count: 1
[DRAM_CYCLE_ERROR] Cycle-based error applied! address=0x1920852e0 additional_latency=1990500 cycles
Heartbeat CPU 0 instructions: 640000090 cycles: 459784772 heartbeat IPC: 1.653 cumulative IPC: 1.392 (Simulation time: 01 hr 07 min 39 sec)
Heartbeat CPU 0 instructions: 650000090 cycles: 465735663 heartbeat IPC: 1.68 cumulative IPC: 1.396 (Simulation time: 01 hr 08 min 40 sec)
Heartbeat CPU 0 instructions: 660000091 cycles: 470401715 heartbeat IPC: 2.143 cumulative IPC: 1.403 (Simulation time: 01 hr 09 min 32 sec)
Heartbeat CPU 0 instructions: 670000091 cycles: 474889385 heartbeat IPC: 2.228 cumulative IPC: 1.411 (Simulation time: 01 hr 10 min 22 sec)
Heartbeat CPU 0 instructions: 680000091 cycles: 479488071 heartbeat IPC: 2.175 cumulative IPC: 1.418 (Simulation time: 01 hr 11 min 13 sec)
Heartbeat CPU 0 instructions: 690000094 cycles: 484166831 heartbeat IPC: 2.137 cumulative IPC: 1.425 (Simulation time: 01 hr 12 min 05 sec)
Heartbeat CPU 0 instructions: 700000094 cycles: 488961801 heartbeat IPC: 2.086 cumulative IPC: 1.432 (Simulation time: 01 hr 12 min 57 sec)
Heartbeat CPU 0 instructions: 710000097 cycles: 493813165 heartbeat IPC: 2.061 cumulative IPC: 1.438 (Simulation time: 01 hr 13 min 49 sec)
Heartbeat CPU 0 instructions: 720000097 cycles: 498709810 heartbeat IPC: 2.042 cumulative IPC: 1.444 (Simulation time: 01 hr 14 min 42 sec)
Heartbeat CPU 0 instructions: 730000097 cycles: 503737180 heartbeat IPC: 1.989 cumulative IPC: 1.449 (Simulation time: 01 hr 15 min 35 sec)
Heartbeat CPU 0 instructions: 740000100 cycles: 508820576 heartbeat IPC: 1.967 cumulative IPC: 1.454 (Simulation time: 01 hr 16 min 25 sec)
Heartbeat CPU 0 instructions: 750000102 cycles: 514065006 heartbeat IPC: 1.907 cumulative IPC: 1.459 (Simulation time: 01 hr 17 min 16 sec)
Heartbeat CPU 0 instructions: 760000105 cycles: 519349063 heartbeat IPC: 1.892 cumulative IPC: 1.463 (Simulation time: 01 hr 18 min 10 sec)
Heartbeat CPU 0 instructions: 770000106 cycles: 524880217 heartbeat IPC: 1.808 cumulative IPC: 1.467 (Simulation time: 01 hr 19 min 05 sec)
Heartbeat CPU 0 instructions: 780000108 cycles: 530437833 heartbeat IPC: 1.799 cumulative IPC: 1.47 (Simulation time: 01 hr 20 min 01 sec)
Heartbeat CPU 0 instructions: 790000108 cycles: 536137127 heartbeat IPC: 1.755 cumulative IPC: 1.474 (Simulation time: 01 hr 20 min 58 sec)
[ERROR_CYCLE] Error added at CPU cycle 539692982, next at 551194342, pending count: 1
[DRAM_CYCLE_ERROR] Cycle-based error applied! address=0x7cc161458 additional_latency=1990500 cycles
Heartbeat CPU 0 instructions: 800000109 cycles: 541992464 heartbeat IPC: 1.708 cumulative IPC: 1.476 (Simulation time: 01 hr 21 min 56 sec)
Heartbeat CPU 0 instructions: 810000111 cycles: 547988048 heartbeat IPC: 1.668 cumulative IPC: 1.478 (Simulation time: 01 hr 22 min 55 sec)
[ERROR_CYCLE] Error added at CPU cycle 551194342, next at 618463271, pending count: 1
[DRAM_CYCLE_ERROR] Cycle-based error applied! address=0x6ede58888 additional_latency=1990500 cycles
Heartbeat CPU 0 instructions: 820000112 cycles: 554414738 heartbeat IPC: 1.556 cumulative IPC: 1.479 (Simulation time: 01 hr 23 min 55 sec)
Heartbeat CPU 0 instructions: 830000112 cycles: 560828073 heartbeat IPC: 1.559 cumulative IPC: 1.48 (Simulation time: 01 hr 24 min 56 sec)
Heartbeat CPU 0 instructions: 840000113 cycles: 567528101 heartbeat IPC: 1.493 cumulative IPC: 1.48 (Simulation time: 01 hr 25 min 58 sec)
Heartbeat CPU 0 instructions: 850000116 cycles: 574561040 heartbeat IPC: 1.422 cumulative IPC: 1.479 (Simulation time: 01 hr 27 min 02 sec)
Heartbeat CPU 0 instructions: 860000117 cycles: 582098445 heartbeat IPC: 1.327 cumulative IPC: 1.477 (Simulation time: 01 hr 28 min 09 sec)
Heartbeat CPU 0 instructions: 870000117 cycles: 590002713 heartbeat IPC: 1.265 cumulative IPC: 1.475 (Simulation time: 01 hr 29 min 18 sec)
Heartbeat CPU 0 instructions: 880000118 cycles: 598745357 heartbeat IPC: 1.144 cumulative IPC: 1.47 (Simulation time: 01 hr 30 min 32 sec)
Heartbeat CPU 0 instructions: 890000118 cycles: 608963728 heartbeat IPC: 0.9786 cumulative IPC: 1.461 (Simulation time: 01 hr 31 min 54 sec)
[ERROR_CYCLE] Error added at CPU cycle 618463271, next at 624429521, pending count: 1
[DRAM_CYCLE_ERROR] Cycle-based error applied! address=0x1864896e0 additional_latency=1990500 cycles
Heartbeat CPU 0 instructions: 900000121 cycles: 618585883 heartbeat IPC: 1.039 cumulative IPC: 1.455 (Simulation time: 01 hr 33 min 15 sec)
[ERROR_CYCLE] Error added at CPU cycle 624429521, next at 652969032, pending count: 1
[DRAM_CYCLE_ERROR] Cycle-based error applied! address=0x1a64cdf0 additional_latency=1990500 cycles
Heartbeat CPU 0 instructions: 910000121 cycles: 626454703 heartbeat IPC: 1.271 cumulative IPC: 1.453 (Simulation time: 01 hr 34 min 26 sec)
Heartbeat CPU 0 instructions: 920000121 cycles: 635136326 heartbeat IPC: 1.152 cumulative IPC: 1.449 (Simulation time: 01 hr 35 min 43 sec)
Heartbeat CPU 0 instructions: 930000123 cycles: 643639877 heartbeat IPC: 1.176 cumulative IPC: 1.445 (Simulation time: 01 hr 36 min 58 sec)
Heartbeat CPU 0 instructions: 940000123 cycles: 651578365 heartbeat IPC: 1.26 cumulative IPC: 1.443 (Simulation time: 01 hr 38 min 09 sec)
[ERROR_CYCLE] Error added at CPU cycle 652969033, next at 657238516, pending count: 1
[DRAM_CYCLE_ERROR] Cycle-based error applied! address=0x249ace6c0 additional_latency=1990500 cycles
[ERROR_CYCLE] Error added at CPU cycle 657238516, next at 663890677, pending count: 1
[DRAM_CYCLE_ERROR] Cycle-based error applied! address=0x18658d3f8 additional_latency=1990500 cycles
Heartbeat CPU 0 instructions: 950000125 cycles: 659141942 heartbeat IPC: 1.322 cumulative IPC: 1.441 (Simulation time: 01 hr 39 min 17 sec)
[ERROR_CYCLE] Error added at CPU cycle 663890677, next at 693244034, pending count: 1
[DRAM_CYCLE_ERROR] Cycle-based error applied! address=0x249ae3ac0 additional_latency=1990500 cycles
Heartbeat CPU 0 instructions: 960000125 cycles: 666530291 heartbeat IPC: 1.353 cumulative IPC: 1.44 (Simulation time: 01 hr 40 min 24 sec)
Heartbeat CPU 0 instructions: 970000126 cycles: 672737917 heartbeat IPC: 1.611 cumulative IPC: 1.442 (Simulation time: 01 hr 41 min 24 sec)
Heartbeat CPU 0 instructions: 980000130 cycles: 678383805 heartbeat IPC: 1.771 cumulative IPC: 1.445 (Simulation time: 01 hr 42 min 20 sec)
Heartbeat CPU 0 instructions: 990000130 cycles: 684762787 heartbeat IPC: 1.568 cumulative IPC: 1.446 (Simulation time: 01 hr 43 min 21 sec)
Heartbeat CPU 0 instructions: 1000000131 cycles: 692507242 heartbeat IPC: 1.291 cumulative IPC: 1.444 (Simulation time: 01 hr 44 min 30 sec)
[ERROR_CYCLE] Error added at CPU cycle 693244035, next at 693408343, pending count: 1
[DRAM_CYCLE_ERROR] Cycle-based error applied! address=0x1e6d27e08 additional_latency=1990500 cycles
[ERROR_CYCLE] Error added at CPU cycle 693408343, next at 702111115, pending count: 1
[DRAM_CYCLE_ERROR] Cycle-based error applied! address=0x17e048b30 additional_latency=1990500 cycles
Heartbeat CPU 0 instructions: 1010000132 cycles: 701818599 heartbeat IPC: 1.074 cumulative IPC: 1.439 (Simulation time: 01 hr 45 min 50 sec)
[ERROR_CYCLE] Error added at CPU cycle 702111115, next at 707431038, pending count: 1
[DRAM_CYCLE_ERROR] Cycle-based error applied! address=0x44051fd68 additional_latency=1990500 cycles
[ERROR_CYCLE] Error added at CPU cycle 707431038, next at 717157141, pending count: 1
[DRAM_CYCLE_ERROR] Cycle-based error applied! address=0x72ad41040 additional_latency=1990500 cycles
Heartbeat CPU 0 instructions: 1020000134 cycles: 710220046 heartbeat IPC: 1.19 cumulative IPC: 1.436 (Simulation time: 01 hr 47 min 03 sec)
[ERROR_CYCLE] Error added at CPU cycle 717157141, next at 719468166, pending count: 1
[DRAM_CYCLE_ERROR] Cycle-based error applied! address=0x17e070b02 additional_latency=1990500 cycles
Heartbeat CPU 0 instructions: 1030000134 cycles: 718438001 heartbeat IPC: 1.217 cumulative IPC: 1.434 (Simulation time: 01 hr 48 min 17 sec)
[ERROR_CYCLE] Error added at CPU cycle 719468166, next at 729931125, pending count: 1
[DRAM_CYCLE_ERROR] Cycle-based error applied! address=0x3d24682e0 additional_latency=1990500 cycles
Heartbeat CPU 0 instructions: 1040000134 cycles: 726765294 heartbeat IPC: 1.201 cumulative IPC: 1.431 (Simulation time: 01 hr 49 min 30 sec)
[ERROR_CYCLE] Error added at CPU cycle 729931125, next at 740327757, pending count: 1
[DRAM_CYCLE_ERROR] Cycle-based error applied! address=0x100f5f178 additional_latency=1990500 cycles
Heartbeat CPU 0 instructions: 1050000134 cycles: 735189996 heartbeat IPC: 1.187 cumulative IPC: 1.428 (Simulation time: 01 hr 50 min 45 sec)
[ERROR_CYCLE] Error added at CPU cycle 740327757, next at 769723378, pending count: 1
[DRAM_CYCLE_ERROR] Cycle-based error applied! address=0x17e12fcc2 additional_latency=1990500 cycles
Heartbeat CPU 0 instructions: 1060000135 cycles: 743760468 heartbeat IPC: 1.167 cumulative IPC: 1.425 (Simulation time: 01 hr 52 min 00 sec)
Heartbeat CPU 0 instructions: 1070000135 cycles: 751910639 heartbeat IPC: 1.227 cumulative IPC: 1.423 (Simulation time: 01 hr 53 min 11 sec)
Heartbeat CPU 0 instructions: 1080000139 cycles: 759027635 heartbeat IPC: 1.405 cumulative IPC: 1.423 (Simulation time: 01 hr 54 min 17 sec)
Heartbeat CPU 0 instructions: 1090000139 cycles: 766909654 heartbeat IPC: 1.269 cumulative IPC: 1.421 (Simulation time: 01 hr 55 min 28 sec)
[ERROR_CYCLE] Error added at CPU cycle 769723378, next at 806610107, pending count: 1
[DRAM_CYCLE_ERROR] Cycle-based error applied! address=0x72ad41280 additional_latency=1990500 cycles
Heartbeat CPU 0 instructions: 1100000141 cycles: 775644574 heartbeat IPC: 1.145 cumulative IPC: 1.418 (Simulation time: 01 hr 56 min 45 sec)
Heartbeat CPU 0 instructions: 1110000145 cycles: 784030916 heartbeat IPC: 1.192 cumulative IPC: 1.416 (Simulation time: 01 hr 57 min 59 sec)
Heartbeat CPU 0 instructions: 1120000147 cycles: 792290129 heartbeat IPC: 1.211 cumulative IPC: 1.414 (Simulation time: 01 hr 59 min 12 sec)
Heartbeat CPU 0 instructions: 1130000147 cycles: 800111763 heartbeat IPC: 1.279 cumulative IPC: 1.412 (Simulation time: 02 hr 00 min 21 sec)
[ERROR_CYCLE] Error added at CPU cycle 806610107, next at 816598203, pending count: 1
[DRAM_CYCLE_ERROR] Cycle-based error applied! address=0x17e0e1448 additional_latency=1990500 cycles
Heartbeat CPU 0 instructions: 1140000151 cycles: 806875821 heartbeat IPC: 1.478 cumulative IPC: 1.413 (Simulation time: 02 hr 01 min 24 sec)
Heartbeat CPU 0 instructions: 1150000151 cycles: 813344104 heartbeat IPC: 1.546 cumulative IPC: 1.414 (Simulation time: 02 hr 02 min 26 sec)
[ERROR_CYCLE] Error added at CPU cycle 816598204, next at 829157728, pending count: 1
[DRAM_CYCLE_ERROR] Cycle-based error applied! address=0x1e6df3e98 additional_latency=1990500 cycles
Heartbeat CPU 0 instructions: 1160000151 cycles: 822133552 heartbeat IPC: 1.138 cumulative IPC: 1.411 (Simulation time: 02 hr 03 min 43 sec)
[ERROR_CYCLE] Error added at CPU cycle 829157728, next at 831354542, pending count: 1
[DRAM_CYCLE_ERROR] Cycle-based error applied! address=0x249abdb40 additional_latency=1990500 cycles
Heartbeat CPU 0 instructions: 1170000151 cycles: 830406798 heartbeat IPC: 1.209 cumulative IPC: 1.409 (Simulation time: 02 hr 04 min 56 sec)
[ERROR_CYCLE] Error added at CPU cycle 831354542, next at 835587951, pending count: 1
[DRAM_CYCLE_ERROR] Cycle-based error applied! address=0x1d95ed618 additional_latency=1990500 cycles
[ERROR_CYCLE] Error added at CPU cycle 835587951, next at 857924333, pending count: 1
[DRAM_CYCLE_ERROR] Cycle-based error applied! address=0x199801ec8 additional_latency=1990500 cycles
Heartbeat CPU 0 instructions: 1180000152 cycles: 838254271 heartbeat IPC: 1.274 cumulative IPC: 1.408 (Simulation time: 02 hr 06 min 05 sec)
Heartbeat CPU 0 instructions: 1190000156 cycles: 844613399 heartbeat IPC: 1.573 cumulative IPC: 1.409 (Simulation time: 02 hr 07 min 07 sec)
Heartbeat CPU 0 instructions: 1200000158 cycles: 853197512 heartbeat IPC: 1.165 cumulative IPC: 1.406 (Simulation time: 02 hr 08 min 23 sec)
[ERROR_CYCLE] Error added at CPU cycle 857924334, next at 870797452, pending count: 1
[DRAM_CYCLE_ERROR] Cycle-based error applied! address=0x283177f42 additional_latency=1990500 cycles
Heartbeat CPU 0 instructions: 1210000160 cycles: 861886538 heartbeat IPC: 1.151 cumulative IPC: 1.404 (Simulation time: 02 hr 09 min 39 sec)
Heartbeat CPU 0 instructions: 1220000162 cycles: 870512212 heartbeat IPC: 1.159 cumulative IPC: 1.401 (Simulation time: 02 hr 10 min 55 sec)
[ERROR_CYCLE] Error added at CPU cycle 870797452, next at 903141115, pending count: 1
[DRAM_CYCLE_ERROR] Cycle-based error applied! address=0x1d95fc6c2 additional_latency=1990500 cycles
Heartbeat CPU 0 instructions: 1230000166 cycles: 878343914 heartbeat IPC: 1.277 cumulative IPC: 1.4 (Simulation time: 02 hr 12 min 05 sec)
Heartbeat CPU 0 instructions: 1240000166 cycles: 886773269 heartbeat IPC: 1.186 cumulative IPC: 1.398 (Simulation time: 02 hr 13 min 20 sec)
Heartbeat CPU 0 instructions: 1250000166 cycles: 895349266 heartbeat IPC: 1.166 cumulative IPC: 1.396 (Simulation time: 02 hr 14 min 36 sec)
[ERROR_CYCLE] Error added at CPU cycle 903141115, next at 908832379, pending count: 1
[DRAM_CYCLE_ERROR] Cycle-based error applied! address=0x18f4aed80 additional_latency=1990500 cycles
Heartbeat CPU 0 instructions: 1260000170 cycles: 903974406 heartbeat IPC: 1.159 cumulative IPC: 1.394 (Simulation time: 02 hr 15 min 52 sec)
[ERROR_CYCLE] Error added at CPU cycle 908832379, next at 935886573, pending count: 1
[DRAM_CYCLE_ERROR] Cycle-based error applied! address=0x3d2521738 additional_latency=1990500 cycles
Heartbeat CPU 0 instructions: 1270000173 cycles: 912084375 heartbeat IPC: 1.233 cumulative IPC: 1.392 (Simulation time: 02 hr 17 min 03 sec)
Heartbeat CPU 0 instructions: 1280000173 cycles: 919758550 heartbeat IPC: 1.303 cumulative IPC: 1.392 (Simulation time: 02 hr 18 min 11 sec)
Heartbeat CPU 0 instructions: 1290000176 cycles: 927209561 heartbeat IPC: 1.342 cumulative IPC: 1.391 (Simulation time: 02 hr 19 min 19 sec)
Heartbeat CPU 0 instructions: 1300000178 cycles: 932963449 heartbeat IPC: 1.738 cumulative IPC: 1.393 (Simulation time: 02 hr 20 min 16 sec)
[ERROR_CYCLE] Error added at CPU cycle 935886573, next at 958300697, pending count: 1
[DRAM_CYCLE_ERROR] Cycle-based error applied! address=0x100fde368 additional_latency=1990500 cycles
Heartbeat CPU 0 instructions: 1310000181 cycles: 939133497 heartbeat IPC: 1.621 cumulative IPC: 1.395 (Simulation time: 02 hr 21 min 16 sec)
Heartbeat CPU 0 instructions: 1320000181 cycles: 946892666 heartbeat IPC: 1.289 cumulative IPC: 1.394 (Simulation time: 02 hr 22 min 27 sec)
Heartbeat CPU 0 instructions: 1330000183 cycles: 955760446 heartbeat IPC: 1.128 cumulative IPC: 1.392 (Simulation time: 02 hr 23 min 43 sec)
[ERROR_CYCLE] Error added at CPU cycle 958300698, next at 979637607, pending count: 1
[DRAM_CYCLE_ERROR] Cycle-based error applied! address=0x249abc240 additional_latency=1990500 cycles
Heartbeat CPU 0 instructions: 1340000184 cycles: 963816613 heartbeat IPC: 1.241 cumulative IPC: 1.39 (Simulation time: 02 hr 24 min 55 sec)
Heartbeat CPU 0 instructions: 1350000188 cycles: 971455592 heartbeat IPC: 1.309 cumulative IPC: 1.39 (Simulation time: 02 hr 26 min 03 sec)
Heartbeat CPU 0 instructions: 1360000189 cycles: 978874237 heartbeat IPC: 1.348 cumulative IPC: 1.389 (Simulation time: 02 hr 27 min 06 sec)
[ERROR_CYCLE] Error added at CPU cycle 979637607, next at 984398776, pending count: 1
[DRAM_CYCLE_ERROR] Cycle-based error applied! address=0x283158b18 additional_latency=1990500 cycles
[ERROR_CYCLE] Error added at CPU cycle 984398776, next at 1002210124, pending count: 1
[DRAM_CYCLE_ERROR] Cycle-based error applied! address=0x2830c61a8 additional_latency=1990500 cycles
Heartbeat CPU 0 instructions: 1370000189 cycles: 985119099 heartbeat IPC: 1.601 cumulative IPC: 1.391 (Simulation time: 02 hr 27 min 47 sec)
Heartbeat CPU 0 instructions: 1380000191 cycles: 990826667 heartbeat IPC: 1.752 cumulative IPC: 1.393 (Simulation time: 02 hr 28 min 30 sec)
Heartbeat CPU 0 instructions: 1390000192 cycles: 997381946 heartbeat IPC: 1.525 cumulative IPC: 1.394 (Simulation time: 02 hr 29 min 32 sec)
[ERROR_CYCLE] Error added at CPU cycle 1002210124, next at 1032827874, pending count: 1
[DRAM_CYCLE_ERROR] Cycle-based error applied! address=0x1e6dfeec8 additional_latency=1990500 cycles
Heartbeat CPU 0 instructions: 1400000194 cycles: 1005825862 heartbeat IPC: 1.184 cumulative IPC: 1.392 (Simulation time: 02 hr 30 min 42 sec)
Heartbeat CPU 0 instructions: 1410000194 cycles: 1014351353 heartbeat IPC: 1.173 cumulative IPC: 1.39 (Simulation time: 02 hr 31 min 49 sec)
Heartbeat CPU 0 instructions: 1420000195 cycles: 1022295948 heartbeat IPC: 1.259 cumulative IPC: 1.389 (Simulation time: 02 hr 32 min 58 sec)
Heartbeat CPU 0 instructions: 1430000199 cycles: 1029869502 heartbeat IPC: 1.32 cumulative IPC: 1.389 (Simulation time: 02 hr 34 min 05 sec)
[ERROR_CYCLE] Error added at CPU cycle 1032827875, next at 1046516285, pending count: 1
[DRAM_CYCLE_ERROR] Cycle-based error applied! address=0x2830a8178 additional_latency=1990500 cycles
Heartbeat CPU 0 instructions: 1440000203 cycles: 1037252249 heartbeat IPC: 1.355 cumulative IPC: 1.388 (Simulation time: 02 hr 35 min 11 sec)
Heartbeat CPU 0 instructions: 1450000204 cycles: 1043767752 heartbeat IPC: 1.535 cumulative IPC: 1.389 (Simulation time: 02 hr 36 min 12 sec)
[ERROR_CYCLE] Error added at CPU cycle 1046516285, next at 1048641051, pending count: 1
[DRAM_CYCLE_ERROR] Cycle-based error applied! address=0x2831d9d08 additional_latency=1990500 cycles
[ERROR_CYCLE] Error added at CPU cycle 1048641052, next at 1090842597, pending count: 1
[DRAM_CYCLE_ERROR] Cycle-based error applied! address=0x186536dc0 additional_latency=1990500 cycles
Heartbeat CPU 0 instructions: 1460000204 cycles: 1049266646 heartbeat IPC: 1.819 cumulative IPC: 1.391 (Simulation time: 02 hr 37 min 07 sec)
Heartbeat CPU 0 instructions: 1470000205 cycles: 1055376886 heartbeat IPC: 1.637 cumulative IPC: 1.393 (Simulation time: 02 hr 38 min 06 sec)
Heartbeat CPU 0 instructions: 1480000207 cycles: 1062394282 heartbeat IPC: 1.425 cumulative IPC: 1.393 (Simulation time: 02 hr 39 min 10 sec)
Heartbeat CPU 0 instructions: 1490000207 cycles: 1071269873 heartbeat IPC: 1.127 cumulative IPC: 1.391 (Simulation time: 02 hr 40 min 26 sec)
Heartbeat CPU 0 instructions: 1500000209 cycles: 1079959952 heartbeat IPC: 1.151 cumulative IPC: 1.389 (Simulation time: 02 hr 41 min 41 sec)
Heartbeat CPU 0 instructions: 1510000211 cycles: 1088574305 heartbeat IPC: 1.161 cumulative IPC: 1.387 (Simulation time: 02 hr 42 min 56 sec)
[ERROR_CYCLE] Error added at CPU cycle 1090842598, next at 1110023097, pending count: 1
[DRAM_CYCLE_ERROR] Cycle-based error applied! address=0x1e6d112f0 additional_latency=1990500 cycles
Heartbeat CPU 0 instructions: 1520000213 cycles: 1097265716 heartbeat IPC: 1.151 cumulative IPC: 1.385 (Simulation time: 02 hr 44 min 12 sec)
Heartbeat CPU 0 instructions: 1530000213 cycles: 1105789498 heartbeat IPC: 1.173 cumulative IPC: 1.384 (Simulation time: 02 hr 45 min 26 sec)
[ERROR_CYCLE] Error added at CPU cycle 1110023098, next at 1133414207, pending count: 1
[DRAM_CYCLE_ERROR] Cycle-based error applied! address=0x40c3eae78 additional_latency=1990500 cycles
Heartbeat CPU 0 instructions: 1540000217 cycles: 1114111279 heartbeat IPC: 1.202 cumulative IPC: 1.382 (Simulation time: 02 hr 46 min 39 sec)
Heartbeat CPU 0 instructions: 1550000219 cycles: 1122805959 heartbeat IPC: 1.15 cumulative IPC: 1.38 (Simulation time: 02 hr 47 min 54 sec)
Heartbeat CPU 0 instructions: 1560000220 cycles: 1130920665 heartbeat IPC: 1.232 cumulative IPC: 1.379 (Simulation time: 02 hr 49 min 04 sec)
[ERROR_CYCLE] Error added at CPU cycle 1133414207, next at 1204668974, pending count: 1
[DRAM_CYCLE_ERROR] Cycle-based error applied! address=0x17e03e3c0 additional_latency=1990500 cycles
Heartbeat CPU 0 instructions: 1570000220 cycles: 1138597920 heartbeat IPC: 1.303 cumulative IPC: 1.379 (Simulation time: 02 hr 49 min 59 sec)
Heartbeat CPU 0 instructions: 1580000221 cycles: 1146022323 heartbeat IPC: 1.347 cumulative IPC: 1.379 (Simulation time: 02 hr 50 min 47 sec)
Heartbeat CPU 0 instructions: 1590000225 cycles: 1153260968 heartbeat IPC: 1.381 cumulative IPC: 1.379 (Simulation time: 02 hr 51 min 38 sec)
Heartbeat CPU 0 instructions: 1600000228 cycles: 1160197066 heartbeat IPC: 1.442 cumulative IPC: 1.379 (Simulation time: 02 hr 52 min 28 sec)
Heartbeat CPU 0 instructions: 1610000229 cycles: 1165425229 heartbeat IPC: 1.913 cumulative IPC: 1.381 (Simulation time: 02 hr 53 min 07 sec)
Heartbeat CPU 0 instructions: 1620000229 cycles: 1170963741 heartbeat IPC: 1.806 cumulative IPC: 1.383 (Simulation time: 02 hr 53 min 55 sec)
Heartbeat CPU 0 instructions: 1630000229 cycles: 1176968813 heartbeat IPC: 1.665 cumulative IPC: 1.385 (Simulation time: 02 hr 54 min 53 sec)
Heartbeat CPU 0 instructions: 1640000233 cycles: 1183684747 heartbeat IPC: 1.489 cumulative IPC: 1.386 (Simulation time: 02 hr 55 min 55 sec)
Heartbeat CPU 0 instructions: 1650000233 cycles: 1191895847 heartbeat IPC: 1.218 cumulative IPC: 1.384 (Simulation time: 02 hr 56 min 52 sec)
Heartbeat CPU 0 instructions: 1660000233 cycles: 1200835541 heartbeat IPC: 1.119 cumulative IPC: 1.382 (Simulation time: 02 hr 58 min 01 sec)
[ERROR_CYCLE] Error added at CPU cycle 1204668974, next at 1215603388, pending count: 1
[DRAM_CYCLE_ERROR] Cycle-based error applied! address=0x28314fe40 additional_latency=1990500 cycles
Heartbeat CPU 0 instructions: 1670000233 cycles: 1209478278 heartbeat IPC: 1.157 cumulative IPC: 1.381 (Simulation time: 02 hr 59 min 17 sec)
[ERROR_CYCLE] Error added at CPU cycle 1215603389, next at 1217087080, pending count: 1
[DRAM_CYCLE_ERROR] Cycle-based error applied! address=0x249abd300 additional_latency=1990500 cycles
[ERROR_CYCLE] Error added at CPU cycle 1217087081, next at 1221310176, pending count: 1
[DRAM_CYCLE_ERROR] Cycle-based error applied! address=0x283163bc8 additional_latency=1990500 cycles
Heartbeat CPU 0 instructions: 1680000234 cycles: 1217744679 heartbeat IPC: 1.21 cumulative IPC: 1.38 (Simulation time: 03 hr 00 min 16 sec)
[ERROR_CYCLE] Error added at CPU cycle 1221310177, next at 1226438693, pending count: 1
[DRAM_CYCLE_ERROR] Cycle-based error applied! address=0x1920a94c0 additional_latency=1990500 cycles
Heartbeat CPU 0 instructions: 1690000235 cycles: 1225518438 heartbeat IPC: 1.286 cumulative IPC: 1.379 (Simulation time: 03 hr 01 min 05 sec)
[ERROR_CYCLE] Error added at CPU cycle 1226438693, next at 1227461842, pending count: 1
[DRAM_CYCLE_ERROR] Cycle-based error applied! address=0x249ad3d00 additional_latency=1990500 cycles
[ERROR_CYCLE] Error added at CPU cycle 1227461842, next at 1231373065, pending count: 1
[DRAM_CYCLE_ERROR] Cycle-based error applied! address=0x249ad5cc0 additional_latency=1990500 cycles
[ERROR_CYCLE] Error added at CPU cycle 1231373065, next at 1247660783, pending count: 1
[DRAM_CYCLE_ERROR] Cycle-based error applied! address=0x249add740 additional_latency=1990500 cycles
Heartbeat CPU 0 instructions: 1700000235 cycles: 1233037678 heartbeat IPC: 1.33 cumulative IPC: 1.379 (Simulation time: 03 hr 02 min 02 sec)
Heartbeat CPU 0 instructions: 1710000235 cycles: 1239378114 heartbeat IPC: 1.577 cumulative IPC: 1.38 (Simulation time: 03 hr 03 min 04 sec)
Heartbeat CPU 0 instructions: 1720000236 cycles: 1245239096 heartbeat IPC: 1.706 cumulative IPC: 1.381 (Simulation time: 03 hr 04 min 03 sec)
[ERROR_CYCLE] Error added at CPU cycle 1247660783, next at 1311009174, pending count: 1
[DRAM_CYCLE_ERROR] Cycle-based error applied! address=0x283007db8 additional_latency=1990500 cycles
Heartbeat CPU 0 instructions: 1730000238 cycles: 1252143870 heartbeat IPC: 1.448 cumulative IPC: 1.382 (Simulation time: 03 hr 05 min 09 sec)
Heartbeat CPU 0 instructions: 1740000238 cycles: 1261210984 heartbeat IPC: 1.103 cumulative IPC: 1.38 (Simulation time: 03 hr 06 min 28 sec)
Heartbeat CPU 0 instructions: 1750000241 cycles: 1269572582 heartbeat IPC: 1.196 cumulative IPC: 1.378 (Simulation time: 03 hr 07 min 42 sec)
Heartbeat CPU 0 instructions: 1760000242 cycles: 1277148336 heartbeat IPC: 1.32 cumulative IPC: 1.378 (Simulation time: 03 hr 08 min 54 sec)
Heartbeat CPU 0 instructions: 1770000243 cycles: 1285843364 heartbeat IPC: 1.15 cumulative IPC: 1.377 (Simulation time: 03 hr 10 min 12 sec)
Heartbeat CPU 0 instructions: 1780000247 cycles: 1294031268 heartbeat IPC: 1.221 cumulative IPC: 1.376 (Simulation time: 03 hr 11 min 26 sec)
Heartbeat CPU 0 instructions: 1790000249 cycles: 1301804689 heartbeat IPC: 1.286 cumulative IPC: 1.375 (Simulation time: 03 hr 12 min 38 sec)
Heartbeat CPU 0 instructions: 1800000249 cycles: 1309318795 heartbeat IPC: 1.331 cumulative IPC: 1.375 (Simulation time: 03 hr 13 min 47 sec)
[ERROR_CYCLE] Error added at CPU cycle 1311009175, next at 1370592850, pending count: 1
[DRAM_CYCLE_ERROR] Cycle-based error applied! address=0x743678080 additional_latency=1990500 cycles
Heartbeat CPU 0 instructions: 1810000251 cycles: 1316613169 heartbeat IPC: 1.371 cumulative IPC: 1.375 (Simulation time: 03 hr 14 min 56 sec)
Heartbeat CPU 0 instructions: 1820000252 cycles: 1323747274 heartbeat IPC: 1.402 cumulative IPC: 1.375 (Simulation time: 03 hr 16 min 02 sec)
Heartbeat CPU 0 instructions: 1830000252 cycles: 1330750090 heartbeat IPC: 1.428 cumulative IPC: 1.375 (Simulation time: 03 hr 17 min 09 sec)
Heartbeat CPU 0 instructions: 1840000254 cycles: 1337627550 heartbeat IPC: 1.454 cumulative IPC: 1.376 (Simulation time: 03 hr 18 min 14 sec)
Heartbeat CPU 0 instructions: 1850000256 cycles: 1344395272 heartbeat IPC: 1.478 cumulative IPC: 1.376 (Simulation time: 03 hr 19 min 20 sec)
Heartbeat CPU 0 instructions: 1860000256 cycles: 1351007648 heartbeat IPC: 1.512 cumulative IPC: 1.377 (Simulation time: 03 hr 20 min 24 sec)
Heartbeat CPU 0 instructions: 1870000257 cycles: 1357522373 heartbeat IPC: 1.535 cumulative IPC: 1.378 (Simulation time: 03 hr 21 min 29 sec)
Heartbeat CPU 0 instructions: 1880000259 cycles: 1363975231 heartbeat IPC: 1.55 cumulative IPC: 1.378 (Simulation time: 03 hr 22 min 32 sec)
Heartbeat CPU 0 instructions: 1890000259 cycles: 1368934514 heartbeat IPC: 2.016 cumulative IPC: 1.381 (Simulation time: 03 hr 23 min 27 sec)
[ERROR_CYCLE] Error added at CPU cycle 1370592850, next at 1384134719, pending count: 1
[DRAM_CYCLE_ERROR] Cycle-based error applied! address=0x1921e9300 additional_latency=1990500 cycles
Heartbeat CPU 0 instructions: 1900000259 cycles: 1373883019 heartbeat IPC: 2.021 cumulative IPC: 1.383 (Simulation time: 03 hr 24 min 03 sec)
Heartbeat CPU 0 instructions: 1910000259 cycles: 1378969982 heartbeat IPC: 1.966 cumulative IPC: 1.385 (Simulation time: 03 hr 24 min 38 sec)
[ERROR_CYCLE] Error added at CPU cycle 1384134720, next at 1387121723, pending count: 1
[DRAM_CYCLE_ERROR] Cycle-based error applied! address=0x100e13f98 additional_latency=1990500 cycles
Heartbeat CPU 0 instructions: 1920000262 cycles: 1384213565 heartbeat IPC: 1.907 cumulative IPC: 1.387 (Simulation time: 03 hr 25 min 17 sec)
[ERROR_CYCLE] Error added at CPU cycle 1387121723, next at 1393135226, pending count: 1
[DRAM_CYCLE_ERROR] Cycle-based error applied! address=0x3e853d368 additional_latency=1990500 cycles
Heartbeat CPU 0 instructions: 1930000262 cycles: 1389576693 heartbeat IPC: 1.865 cumulative IPC: 1.389 (Simulation time: 03 hr 25 min 55 sec)
[ERROR_CYCLE] Error added at CPU cycle 1393135226, next at 1410245518, pending count: 1
[DRAM_CYCLE_ERROR] Cycle-based error applied! address=0x73f6ae90 additional_latency=1990500 cycles
Heartbeat CPU 0 instructions: 1940000263 cycles: 1395118469 heartbeat IPC: 1.804 cumulative IPC: 1.391 (Simulation time: 03 hr 26 min 35 sec)
Heartbeat CPU 0 instructions: 1950000264 cycles: 1400812856 heartbeat IPC: 1.756 cumulative IPC: 1.392 (Simulation time: 03 hr 27 min 24 sec)
Heartbeat CPU 0 instructions: 1960000264 cycles: 1406726365 heartbeat IPC: 1.691 cumulative IPC: 1.393 (Simulation time: 03 hr 28 min 22 sec)
[ERROR_CYCLE] Error added at CPU cycle 1410245519, next at 1495091885, pending count: 1
[DRAM_CYCLE_ERROR] Cycle-based error applied! address=0x100e3a8c8 additional_latency=1990500 cycles
Heartbeat CPU 0 instructions: 1970000264 cycles: 1412942896 heartbeat IPC: 1.609 cumulative IPC: 1.394 (Simulation time: 03 hr 29 min 21 sec)
Heartbeat CPU 0 instructions: 1980000266 cycles: 1419292235 heartbeat IPC: 1.575 cumulative IPC: 1.395 (Simulation time: 03 hr 30 min 16 sec)
Heartbeat CPU 0 instructions: 1990000270 cycles: 1426027165 heartbeat IPC: 1.485 cumulative IPC: 1.395 (Simulation time: 03 hr 31 min 07 sec)

=== ERROR PAGE STATISTICS ===
Mode: CYCLE
Error Cycle Interval: 20000000 CPU cycles
Total Error Accesses: 72
==============================
Simulation finished CPU 0 instructions: 1999999979 cycles: 1433450129 cumulative IPC: 1.395 (Simulation time: 03 hr 32 min 07 sec)
Simulation complete CPU 0 instructions: 1999999979 cycles: 1433450129 cumulative IPC: 1.395 (Simulation time: 03 hr 32 min 07 sec)

ChampSim completed all CPUs

=== Simulation ===
CPU 0 runs test_traces/623.xalancbmk_s-592B.champsimtrace.xz

Region of Interest Statistics

CPU 0 cumulative IPC: 1.395 instructions: 1999999979 cycles: 1433450129
CPU 0 Branch Prediction Accuracy: 97.16% MPKI: 8.552 Average ROB Occupancy at Mispredict: 24.37
Branch type MPKI
BRANCH_DIRECT_JUMP: 0.08608
BRANCH_INDIRECT: 0.2696
BRANCH_CONDITIONAL: 6.772
BRANCH_DIRECT_CALL: 0.0003155
BRANCH_INDIRECT_CALL: 0.2909
BRANCH_RETURN: 1.133

cpu0->cpu0_STLB TOTAL        ACCESS:         52 HIT:          0 MISS:         52 MSHR_MERGE:          0
cpu0->cpu0_STLB LOAD         ACCESS:         52 HIT:          0 MISS:         52 MSHR_MERGE:          0
cpu0->cpu0_STLB RFO          ACCESS:          0 HIT:          0 MISS:          0 MSHR_MERGE:          0
cpu0->cpu0_STLB PREFETCH     ACCESS:          0 HIT:          0 MISS:          0 MSHR_MERGE:          0
cpu0->cpu0_STLB WRITE        ACCESS:          0 HIT:          0 MISS:          0 MSHR_MERGE:          0
cpu0->cpu0_STLB TRANSLATION  ACCESS:          0 HIT:          0 MISS:          0 MSHR_MERGE:          0
cpu0->cpu0_STLB PREFETCH REQUESTED:          0 ISSUED:          0 USEFUL:          0 USELESS:          0
cpu0->cpu0_STLB AVERAGE MISS LATENCY: 9121 cycles
cpu0->cpu0_L2C TOTAL        ACCESS:  105789980 HIT:   99088399 MISS:    6701581 MSHR_MERGE:          0
cpu0->cpu0_L2C LOAD         ACCESS:   96650130 HIT:   93020538 MISS:    3629592 MSHR_MERGE:          0
cpu0->cpu0_L2C RFO          ACCESS:    3686324 HIT:     614336 MISS:    3071988 MSHR_MERGE:          0
cpu0->cpu0_L2C PREFETCH     ACCESS:          0 HIT:          0 MISS:          0 MSHR_MERGE:          0
cpu0->cpu0_L2C WRITE        ACCESS:    5453526 HIT:    5453525 MISS:          1 MSHR_MERGE:          0
cpu0->cpu0_L2C TRANSLATION  ACCESS:          0 HIT:          0 MISS:          0 MSHR_MERGE:          0
cpu0->cpu0_L2C PREFETCH REQUESTED:          0 ISSUED:          0 USEFUL:          0 USELESS:          0
cpu0->cpu0_L2C AVERAGE MISS LATENCY: 62.85 cycles
cpu0->cpu0_L1I TOTAL        ACCESS:  360929746 HIT:  355529626 MISS:    5400120 MSHR_MERGE:    1495523
cpu0->cpu0_L1I LOAD         ACCESS:  360929746 HIT:  355529626 MISS:    5400120 MSHR_MERGE:    1495523
cpu0->cpu0_L1I RFO          ACCESS:          0 HIT:          0 MISS:          0 MSHR_MERGE:          0
cpu0->cpu0_L1I PREFETCH     ACCESS:          0 HIT:          0 MISS:          0 MSHR_MERGE:          0
cpu0->cpu0_L1I WRITE        ACCESS:          0 HIT:          0 MISS:          0 MSHR_MERGE:          0
cpu0->cpu0_L1I TRANSLATION  ACCESS:          0 HIT:          0 MISS:          0 MSHR_MERGE:          0
cpu0->cpu0_L1I PREFETCH REQUESTED:          0 ISSUED:          0 USEFUL:          0 USELESS:          0
cpu0->cpu0_L1I AVERAGE MISS LATENCY: 7.888 cycles
cpu0->cpu0_L1D TOTAL        ACCESS:  536521589 HIT:  360096642 MISS:  176424947 MSHR_MERGE:   79993000
cpu0->cpu0_L1D LOAD         ACCESS:  419498591 HIT:  256676430 MISS:  162822161 MSHR_MERGE:   70076566
cpu0->cpu0_L1D RFO          ACCESS:          0 HIT:          0 MISS:          0 MSHR_MERGE:          0
cpu0->cpu0_L1D PREFETCH     ACCESS:          0 HIT:          0 MISS:          0 MSHR_MERGE:          0
cpu0->cpu0_L1D WRITE        ACCESS:  117022998 HIT:  103420212 MISS:   13602786 MSHR_MERGE:    9916434
cpu0->cpu0_L1D TRANSLATION  ACCESS:          0 HIT:          0 MISS:          0 MSHR_MERGE:          0
cpu0->cpu0_L1D PREFETCH REQUESTED:          0 ISSUED:          0 USEFUL:          0 USELESS:          0
cpu0->cpu0_L1D AVERAGE MISS LATENCY: 12.55 cycles
cpu0->cpu0_ITLB TOTAL        ACCESS:  341701109 HIT:  341701106 MISS:          3 MSHR_MERGE:          1
cpu0->cpu0_ITLB LOAD         ACCESS:  341701109 HIT:  341701106 MISS:          3 MSHR_MERGE:          1
cpu0->cpu0_ITLB RFO          ACCESS:          0 HIT:          0 MISS:          0 MSHR_MERGE:          0
cpu0->cpu0_ITLB PREFETCH     ACCESS:          0 HIT:          0 MISS:          0 MSHR_MERGE:          0
cpu0->cpu0_ITLB WRITE        ACCESS:          0 HIT:          0 MISS:          0 MSHR_MERGE:          0
cpu0->cpu0_ITLB TRANSLATION  ACCESS:          0 HIT:          0 MISS:          0 MSHR_MERGE:          0
cpu0->cpu0_ITLB PREFETCH REQUESTED:          0 ISSUED:          0 USEFUL:          0 USELESS:          0
cpu0->cpu0_ITLB AVERAGE MISS LATENCY: 1.304e+04 cycles
cpu0->cpu0_DTLB TOTAL        ACCESS:  460067253 HIT:  460067094 MISS:        159 MSHR_MERGE:        109
cpu0->cpu0_DTLB LOAD         ACCESS:  460067253 HIT:  460067094 MISS:        159 MSHR_MERGE:        109
cpu0->cpu0_DTLB RFO          ACCESS:          0 HIT:          0 MISS:          0 MSHR_MERGE:          0
cpu0->cpu0_DTLB PREFETCH     ACCESS:          0 HIT:          0 MISS:          0 MSHR_MERGE:          0
cpu0->cpu0_DTLB WRITE        ACCESS:          0 HIT:          0 MISS:          0 MSHR_MERGE:          0
cpu0->cpu0_DTLB TRANSLATION  ACCESS:          0 HIT:          0 MISS:          0 MSHR_MERGE:          0
cpu0->cpu0_DTLB PREFETCH REQUESTED:          0 ISSUED:          0 USEFUL:          0 USELESS:          0
cpu0->cpu0_DTLB AVERAGE MISS LATENCY: 8970 cycles
cpu0->LLC TOTAL        ACCESS:   10182990 HIT:    6920640 MISS:    3262350 MSHR_MERGE:          0
cpu0->LLC LOAD         ACCESS:    3629592 HIT:    3226503 MISS:     403089 MSHR_MERGE:          0
cpu0->LLC RFO          ACCESS:    3071988 HIT:     227048 MISS:    2844940 MSHR_MERGE:          0
cpu0->LLC PREFETCH     ACCESS:          0 HIT:          0 MISS:          0 MSHR_MERGE:          0
cpu0->LLC WRITE        ACCESS:    3481410 HIT:    3467089 MISS:      14321 MSHR_MERGE:          0
cpu0->LLC TRANSLATION  ACCESS:          0 HIT:          0 MISS:          0 MSHR_MERGE:          0
cpu0->LLC PREFETCH REQUESTED:          0 ISSUED:          0 USEFUL:          0 USELESS:          0
cpu0->LLC AVERAGE MISS LATENCY: 97.28 cycles

DRAM Statistics

Channel 0 RQ ROW_BUFFER_HIT:     211229
  ROW_BUFFER_MISS:    1413905
  AVG DBUS CONGESTED CYCLE: 8.124
Channel 0 WQ ROW_BUFFER_HIT:     134941
  ROW_BUFFER_MISS:    1408347
  FULL:          2
Channel 0 REFRESHES ISSUED:     119446

Channel 1 RQ ROW_BUFFER_HIT:     210634
  ROW_BUFFER_MISS:    1412364
  AVG DBUS CONGESTED CYCLE: 8.13
Channel 1 WQ ROW_BUFFER_HIT:     136134
  ROW_BUFFER_MISS:    1405418
  FULL:          0
Channel 1 REFRESHES ISSUED:     119446
