
*** ChampSim Multicore Out-of-Order Simulator ***
Warmup Instructions: 0
Simulation Instructions: 9223372036854775807
Number of CPUs: 1
Page size: 2097152

Off-chip DRAM Size: 64 GiB Channels: 2 Width: 32-bit Data Rate: 4807 MT/s
[ERROR_PAGE_MANAGER] Error latency: 1990500 
[ERROR_PAGE_MANAGER] Random seed: 54321 (fixed for preload reproducibility)
[ERROR_PAGE_MANAGER] Cycle-based error modeling enabled
[ERROR_PAGE_MANAGER] Errors per interval: 1
[ERROR_PAGE_MANAGER] Error cycle interval: 100000000 cycles

=== ERROR PAGE STATISTICS ===
Mode: CYCLE
Error Cycle Interval: 100000000 CPU cycles
Total Error Accesses: 0
==============================
Warmup finished CPU 0 instructions: 0 cycles: 1 cumulative IPC: 0 (Simulation time: 00 hr 00 min 00 sec)
Warmup complete CPU 0 instructions: 0 cycles: 1 cumulative IPC: 0 (Simulation time: 00 hr 00 min 00 sec)
Heartbeat CPU 0 instructions: 10000003 cycles: 15556899 heartbeat IPC: 0.6428 cumulative IPC: 0.6428 (Simulation time: 00 hr 01 min 51 sec)
Heartbeat CPU 0 instructions: 20000007 cycles: 30416275 heartbeat IPC: 0.673 cumulative IPC: 0.6575 (Simulation time: 00 hr 03 min 15 sec)
Heartbeat CPU 0 instructions: 30000008 cycles: 45238971 heartbeat IPC: 0.6746 cumulative IPC: 0.6631 (Simulation time: 00 hr 04 min 31 sec)
Heartbeat CPU 0 instructions: 40000008 cycles: 60177961 heartbeat IPC: 0.6694 cumulative IPC: 0.6647 (Simulation time: 00 hr 06 min 14 sec)
[ERROR_CYCLE] Error added at CPU cycle 71278057, next at 91533063, pending count: 1
[DRAM_CYCLE_ERROR] Cycle-based error applied! address=0x2ed88be6 additional_latency=1990500 cycles
Heartbeat CPU 0 instructions: 50000008 cycles: 75270561 heartbeat IPC: 0.6626 cumulative IPC: 0.6643 (Simulation time: 00 hr 07 min 53 sec)
Heartbeat CPU 0 instructions: 60000011 cycles: 89796116 heartbeat IPC: 0.6884 cumulative IPC: 0.6682 (Simulation time: 00 hr 09 min 13 sec)
[ERROR_CYCLE] Error added at CPU cycle 91533064, next at 256960641, pending count: 1
[DRAM_CYCLE_ERROR] Cycle-based error applied! address=0xa0d634b38 additional_latency=1990500 cycles
Heartbeat CPU 0 instructions: 70000011 cycles: 104672633 heartbeat IPC: 0.6722 cumulative IPC: 0.6688 (Simulation time: 00 hr 10 min 51 sec)
Heartbeat CPU 0 instructions: 80000012 cycles: 119546570 heartbeat IPC: 0.6723 cumulative IPC: 0.6692 (Simulation time: 00 hr 12 min 36 sec)
Heartbeat CPU 0 instructions: 90000013 cycles: 134288494 heartbeat IPC: 0.6783 cumulative IPC: 0.6702 (Simulation time: 00 hr 14 min 21 sec)
Heartbeat CPU 0 instructions: 100000013 cycles: 149056337 heartbeat IPC: 0.6771 cumulative IPC: 0.6709 (Simulation time: 00 hr 16 min 06 sec)
Heartbeat CPU 0 instructions: 110000014 cycles: 163744031 heartbeat IPC: 0.6808 cumulative IPC: 0.6718 (Simulation time: 00 hr 17 min 51 sec)
Heartbeat CPU 0 instructions: 120000018 cycles: 178373551 heartbeat IPC: 0.6835 cumulative IPC: 0.6727 (Simulation time: 00 hr 19 min 22 sec)
Heartbeat CPU 0 instructions: 130000018 cycles: 193086628 heartbeat IPC: 0.6797 cumulative IPC: 0.6733 (Simulation time: 00 hr 21 min 06 sec)
Heartbeat CPU 0 instructions: 140000020 cycles: 207736857 heartbeat IPC: 0.6826 cumulative IPC: 0.6739 (Simulation time: 00 hr 22 min 53 sec)
Heartbeat CPU 0 instructions: 150000021 cycles: 222528963 heartbeat IPC: 0.676 cumulative IPC: 0.6741 (Simulation time: 00 hr 24 min 41 sec)
Heartbeat CPU 0 instructions: 160000021 cycles: 237295763 heartbeat IPC: 0.6772 cumulative IPC: 0.6743 (Simulation time: 00 hr 26 min 28 sec)
Heartbeat CPU 0 instructions: 170000021 cycles: 251924594 heartbeat IPC: 0.6836 cumulative IPC: 0.6748 (Simulation time: 00 hr 28 min 15 sec)
[ERROR_CYCLE] Error added at CPU cycle 256960642, next at 534676898, pending count: 1
[DRAM_CYCLE_ERROR] Cycle-based error applied! address=0x94c3e1cb8 additional_latency=1990500 cycles
Heartbeat CPU 0 instructions: 180000024 cycles: 266395643 heartbeat IPC: 0.691 cumulative IPC: 0.6757 (Simulation time: 00 hr 30 min 01 sec)
Heartbeat CPU 0 instructions: 190000028 cycles: 280965558 heartbeat IPC: 0.6863 cumulative IPC: 0.6762 (Simulation time: 00 hr 31 min 47 sec)
Heartbeat CPU 0 instructions: 200000029 cycles: 295706141 heartbeat IPC: 0.6784 cumulative IPC: 0.6763 (Simulation time: 00 hr 33 min 35 sec)
Heartbeat CPU 0 instructions: 210000033 cycles: 310410908 heartbeat IPC: 0.6801 cumulative IPC: 0.6765 (Simulation time: 00 hr 35 min 07 sec)
Heartbeat CPU 0 instructions: 220000035 cycles: 325060675 heartbeat IPC: 0.6826 cumulative IPC: 0.6768 (Simulation time: 00 hr 36 min 26 sec)
Heartbeat CPU 0 instructions: 230000036 cycles: 339897857 heartbeat IPC: 0.674 cumulative IPC: 0.6767 (Simulation time: 00 hr 37 min 51 sec)
Heartbeat CPU 0 instructions: 240000036 cycles: 354601535 heartbeat IPC: 0.6801 cumulative IPC: 0.6768 (Simulation time: 00 hr 39 min 38 sec)
Heartbeat CPU 0 instructions: 250000038 cycles: 368880320 heartbeat IPC: 0.7003 cumulative IPC: 0.6777 (Simulation time: 00 hr 41 min 01 sec)
Heartbeat CPU 0 instructions: 260000038 cycles: 383213607 heartbeat IPC: 0.6977 cumulative IPC: 0.6785 (Simulation time: 00 hr 42 min 14 sec)
Heartbeat CPU 0 instructions: 270000038 cycles: 397988846 heartbeat IPC: 0.6768 cumulative IPC: 0.6784 (Simulation time: 00 hr 43 min 31 sec)
Heartbeat CPU 0 instructions: 280000041 cycles: 413022734 heartbeat IPC: 0.6652 cumulative IPC: 0.6779 (Simulation time: 00 hr 44 min 43 sec)
Heartbeat CPU 0 instructions: 290000043 cycles: 427935252 heartbeat IPC: 0.6706 cumulative IPC: 0.6777 (Simulation time: 00 hr 45 min 55 sec)
Heartbeat CPU 0 instructions: 300000044 cycles: 442299451 heartbeat IPC: 0.6962 cumulative IPC: 0.6783 (Simulation time: 00 hr 47 min 22 sec)
Heartbeat CPU 0 instructions: 310000047 cycles: 457241318 heartbeat IPC: 0.6693 cumulative IPC: 0.678 (Simulation time: 00 hr 49 min 00 sec)
Heartbeat CPU 0 instructions: 320000051 cycles: 471972686 heartbeat IPC: 0.6788 cumulative IPC: 0.678 (Simulation time: 00 hr 50 min 28 sec)
Heartbeat CPU 0 instructions: 330000051 cycles: 486646336 heartbeat IPC: 0.6815 cumulative IPC: 0.6781 (Simulation time: 00 hr 51 min 54 sec)
Heartbeat CPU 0 instructions: 340000055 cycles: 500451790 heartbeat IPC: 0.7244 cumulative IPC: 0.6794 (Simulation time: 00 hr 53 min 23 sec)
Heartbeat CPU 0 instructions: 350000055 cycles: 514994976 heartbeat IPC: 0.6876 cumulative IPC: 0.6796 (Simulation time: 00 hr 54 min 39 sec)
Heartbeat CPU 0 instructions: 360000056 cycles: 529283084 heartbeat IPC: 0.6999 cumulative IPC: 0.6802 (Simulation time: 00 hr 56 min 01 sec)
[ERROR_CYCLE] Error added at CPU cycle 534676899, next at 537682250, pending count: 1
[DRAM_CYCLE_ERROR] Cycle-based error applied! address=0xed64d1080 additional_latency=1990500 cycles
[ERROR_CYCLE] Error added at CPU cycle 537682251, next at 691386421, pending count: 1
[DRAM_CYCLE_ERROR] Cycle-based error applied! address=0x72ac8c5f8 additional_latency=1990500 cycles
Heartbeat CPU 0 instructions: 370000056 cycles: 543673590 heartbeat IPC: 0.6949 cumulative IPC: 0.6806 (Simulation time: 00 hr 57 min 43 sec)
Heartbeat CPU 0 instructions: 380000056 cycles: 557954766 heartbeat IPC: 0.7002 cumulative IPC: 0.6811 (Simulation time: 00 hr 59 min 29 sec)
Heartbeat CPU 0 instructions: 390000058 cycles: 572263733 heartbeat IPC: 0.6989 cumulative IPC: 0.6815 (Simulation time: 01 hr 01 min 15 sec)
Heartbeat CPU 0 instructions: 400000059 cycles: 586696019 heartbeat IPC: 0.6929 cumulative IPC: 0.6818 (Simulation time: 01 hr 03 min 01 sec)
Heartbeat CPU 0 instructions: 410000059 cycles: 601023476 heartbeat IPC: 0.698 cumulative IPC: 0.6822 (Simulation time: 01 hr 04 min 48 sec)
Heartbeat CPU 0 instructions: 420000062 cycles: 615501049 heartbeat IPC: 0.6907 cumulative IPC: 0.6824 (Simulation time: 01 hr 06 min 08 sec)
Heartbeat CPU 0 instructions: 430000065 cycles: 630080359 heartbeat IPC: 0.6859 cumulative IPC: 0.6825 (Simulation time: 01 hr 07 min 42 sec)
Heartbeat CPU 0 instructions: 440000068 cycles: 644786659 heartbeat IPC: 0.68 cumulative IPC: 0.6824 (Simulation time: 01 hr 09 min 31 sec)
Heartbeat CPU 0 instructions: 450000068 cycles: 659390007 heartbeat IPC: 0.6848 cumulative IPC: 0.6824 (Simulation time: 01 hr 11 min 18 sec)
Heartbeat CPU 0 instructions: 460000068 cycles: 673938947 heartbeat IPC: 0.6873 cumulative IPC: 0.6826 (Simulation time: 01 hr 13 min 05 sec)
Heartbeat CPU 0 instructions: 470000068 cycles: 688594713 heartbeat IPC: 0.6823 cumulative IPC: 0.6825 (Simulation time: 01 hr 14 min 52 sec)
[ERROR_CYCLE] Error added at CPU cycle 691386422, next at 709284434, pending count: 1
[DRAM_CYCLE_ERROR] Cycle-based error applied! address=0x1e85ff178 additional_latency=1990500 cycles
Heartbeat CPU 0 instructions: 480000068 cycles: 703194904 heartbeat IPC: 0.6849 cumulative IPC: 0.6826 (Simulation time: 01 hr 16 min 19 sec)
[ERROR_CYCLE] Error added at CPU cycle 709284434, next at 766174217, pending count: 1
[DRAM_CYCLE_ERROR] Cycle-based error applied! address=0x7d7666794 additional_latency=1990500 cycles
Heartbeat CPU 0 instructions: 490000071 cycles: 718314219 heartbeat IPC: 0.6614 cumulative IPC: 0.6822 (Simulation time: 01 hr 18 min 10 sec)
Heartbeat CPU 0 instructions: 500000072 cycles: 732804729 heartbeat IPC: 0.6901 cumulative IPC: 0.6823 (Simulation time: 01 hr 19 min 57 sec)
Heartbeat CPU 0 instructions: 510000075 cycles: 747477500 heartbeat IPC: 0.6815 cumulative IPC: 0.6823 (Simulation time: 01 hr 21 min 45 sec)
Heartbeat CPU 0 instructions: 520000079 cycles: 762157772 heartbeat IPC: 0.6812 cumulative IPC: 0.6823 (Simulation time: 01 hr 23 min 25 sec)
[ERROR_CYCLE] Error added at CPU cycle 766174218, next at 851568605, pending count: 1
[DRAM_CYCLE_ERROR] Cycle-based error applied! address=0x5a92eec28 additional_latency=1990500 cycles
Heartbeat CPU 0 instructions: 530000080 cycles: 776708595 heartbeat IPC: 0.6872 cumulative IPC: 0.6824 (Simulation time: 01 hr 24 min 55 sec)
Heartbeat CPU 0 instructions: 540000080 cycles: 791594508 heartbeat IPC: 0.6718 cumulative IPC: 0.6822 (Simulation time: 01 hr 26 min 36 sec)
Heartbeat CPU 0 instructions: 550000080 cycles: 806403670 heartbeat IPC: 0.6753 cumulative IPC: 0.682 (Simulation time: 01 hr 28 min 06 sec)
Heartbeat CPU 0 instructions: 560000082 cycles: 821076047 heartbeat IPC: 0.6816 cumulative IPC: 0.682 (Simulation time: 01 hr 29 min 47 sec)
Heartbeat CPU 0 instructions: 570000082 cycles: 835945805 heartbeat IPC: 0.6725 cumulative IPC: 0.6819 (Simulation time: 01 hr 31 min 32 sec)
Heartbeat CPU 0 instructions: 580000083 cycles: 850595935 heartbeat IPC: 0.6826 cumulative IPC: 0.6819 (Simulation time: 01 hr 33 min 16 sec)
[ERROR_CYCLE] Error added at CPU cycle 851568605, next at 876033762, pending count: 1
[DRAM_CYCLE_ERROR] Cycle-based error applied! address=0xaa9f66a88 additional_latency=1990500 cycles
Heartbeat CPU 0 instructions: 590000085 cycles: 865443368 heartbeat IPC: 0.6735 cumulative IPC: 0.6817 (Simulation time: 01 hr 35 min 00 sec)
[ERROR_CYCLE] Error added at CPU cycle 876033763, next at 1053629556, pending count: 1
[DRAM_CYCLE_ERROR] Cycle-based error applied! address=0x3a3ef63d8 additional_latency=1990500 cycles
Heartbeat CPU 0 instructions: 600000086 cycles: 880072802 heartbeat IPC: 0.6836 cumulative IPC: 0.6818 (Simulation time: 01 hr 36 min 36 sec)
Heartbeat CPU 0 instructions: 610000086 cycles: 894634798 heartbeat IPC: 0.6867 cumulative IPC: 0.6818 (Simulation time: 01 hr 38 min 21 sec)
Heartbeat CPU 0 instructions: 620000090 cycles: 909540533 heartbeat IPC: 0.6709 cumulative IPC: 0.6817 (Simulation time: 01 hr 40 min 10 sec)
Heartbeat CPU 0 instructions: 630000094 cycles: 924264912 heartbeat IPC: 0.6791 cumulative IPC: 0.6816 (Simulation time: 01 hr 41 min 59 sec)
Heartbeat CPU 0 instructions: 640000095 cycles: 939156141 heartbeat IPC: 0.6715 cumulative IPC: 0.6815 (Simulation time: 01 hr 43 min 49 sec)
Heartbeat CPU 0 instructions: 650000098 cycles: 953917679 heartbeat IPC: 0.6774 cumulative IPC: 0.6814 (Simulation time: 01 hr 45 min 37 sec)
Heartbeat CPU 0 instructions: 660000100 cycles: 968723621 heartbeat IPC: 0.6754 cumulative IPC: 0.6813 (Simulation time: 01 hr 47 min 19 sec)
Heartbeat CPU 0 instructions: 670000101 cycles: 983459924 heartbeat IPC: 0.6786 cumulative IPC: 0.6813 (Simulation time: 01 hr 49 min 05 sec)
Heartbeat CPU 0 instructions: 680000104 cycles: 998168793 heartbeat IPC: 0.6799 cumulative IPC: 0.6812 (Simulation time: 01 hr 50 min 52 sec)
Heartbeat CPU 0 instructions: 690000108 cycles: 1012781988 heartbeat IPC: 0.6843 cumulative IPC: 0.6813 (Simulation time: 01 hr 52 min 38 sec)
Heartbeat CPU 0 instructions: 700000111 cycles: 1027386266 heartbeat IPC: 0.6847 cumulative IPC: 0.6813 (Simulation time: 01 hr 54 min 25 sec)
Heartbeat CPU 0 instructions: 710000111 cycles: 1042165757 heartbeat IPC: 0.6766 cumulative IPC: 0.6813 (Simulation time: 01 hr 56 min 12 sec)
[ERROR_CYCLE] Error added at CPU cycle 1053629556, next at 1089231385, pending count: 1
[DRAM_CYCLE_ERROR] Cycle-based error applied! address=0x8aa3b3aa0 additional_latency=1990500 cycles
Heartbeat CPU 0 instructions: 720000111 cycles: 1056977717 heartbeat IPC: 0.6751 cumulative IPC: 0.6812 (Simulation time: 01 hr 57 min 53 sec)
Heartbeat CPU 0 instructions: 730000112 cycles: 1071553917 heartbeat IPC: 0.686 cumulative IPC: 0.6813 (Simulation time: 01 hr 59 min 31 sec)
Heartbeat CPU 0 instructions: 740000114 cycles: 1086327946 heartbeat IPC: 0.6769 cumulative IPC: 0.6812 (Simulation time: 02 hr 01 min 20 sec)
[ERROR_CYCLE] Error added at CPU cycle 1089231385, next at 1133989996, pending count: 1
[DRAM_CYCLE_ERROR] Cycle-based error applied! address=0xc59ba5bb8 additional_latency=1990500 cycles
Heartbeat CPU 0 instructions: 750000115 cycles: 1100941792 heartbeat IPC: 0.6843 cumulative IPC: 0.6812 (Simulation time: 02 hr 03 min 09 sec)
Heartbeat CPU 0 instructions: 760000117 cycles: 1115694622 heartbeat IPC: 0.6778 cumulative IPC: 0.6812 (Simulation time: 02 hr 04 min 58 sec)
Heartbeat CPU 0 instructions: 770000119 cycles: 1130097420 heartbeat IPC: 0.6943 cumulative IPC: 0.6814 (Simulation time: 02 hr 06 min 35 sec)
[ERROR_CYCLE] Error added at CPU cycle 1133989996, next at 1337518358, pending count: 1
[DRAM_CYCLE_ERROR] Cycle-based error applied! address=0xd0dc9fc00 additional_latency=1990500 cycles
Heartbeat CPU 0 instructions: 780000119 cycles: 1144835818 heartbeat IPC: 0.6785 cumulative IPC: 0.6813 (Simulation time: 02 hr 08 min 11 sec)
Heartbeat CPU 0 instructions: 790000119 cycles: 1159530651 heartbeat IPC: 0.6805 cumulative IPC: 0.6813 (Simulation time: 02 hr 09 min 59 sec)
Heartbeat CPU 0 instructions: 800000119 cycles: 1174058020 heartbeat IPC: 0.6884 cumulative IPC: 0.6814 (Simulation time: 02 hr 11 min 46 sec)
Heartbeat CPU 0 instructions: 810000119 cycles: 1188611050 heartbeat IPC: 0.6871 cumulative IPC: 0.6815 (Simulation time: 02 hr 13 min 34 sec)
Heartbeat CPU 0 instructions: 820000120 cycles: 1203283299 heartbeat IPC: 0.6816 cumulative IPC: 0.6815 (Simulation time: 02 hr 15 min 23 sec)
Heartbeat CPU 0 instructions: 830000122 cycles: 1217860815 heartbeat IPC: 0.686 cumulative IPC: 0.6815 (Simulation time: 02 hr 17 min 11 sec)
Heartbeat CPU 0 instructions: 840000126 cycles: 1232239489 heartbeat IPC: 0.6955 cumulative IPC: 0.6817 (Simulation time: 02 hr 18 min 34 sec)
Heartbeat CPU 0 instructions: 850000129 cycles: 1246904180 heartbeat IPC: 0.6819 cumulative IPC: 0.6817 (Simulation time: 02 hr 20 min 14 sec)
Heartbeat CPU 0 instructions: 860000133 cycles: 1261495257 heartbeat IPC: 0.6854 cumulative IPC: 0.6817 (Simulation time: 02 hr 22 min 01 sec)
Heartbeat CPU 0 instructions: 870000136 cycles: 1276034202 heartbeat IPC: 0.6878 cumulative IPC: 0.6818 (Simulation time: 02 hr 23 min 48 sec)
Heartbeat CPU 0 instructions: 880000138 cycles: 1290581004 heartbeat IPC: 0.6874 cumulative IPC: 0.6819 (Simulation time: 02 hr 25 min 21 sec)
Heartbeat CPU 0 instructions: 890000138 cycles: 1305087112 heartbeat IPC: 0.6894 cumulative IPC: 0.6819 (Simulation time: 02 hr 26 min 54 sec)
Heartbeat CPU 0 instructions: 900000142 cycles: 1319326380 heartbeat IPC: 0.7023 cumulative IPC: 0.6822 (Simulation time: 02 hr 28 min 39 sec)
Heartbeat CPU 0 instructions: 910000142 cycles: 1333795326 heartbeat IPC: 0.6911 cumulative IPC: 0.6823 (Simulation time: 02 hr 30 min 24 sec)
[ERROR_CYCLE] Error added at CPU cycle 1337518359, next at 1338743607, pending count: 1
[DRAM_CYCLE_ERROR] Cycle-based error applied! address=0x28df11e38 additional_latency=1990500 cycles
[ERROR_CYCLE] Error added at CPU cycle 1338743607, next at 1451238650, pending count: 1
[DRAM_CYCLE_ERROR] Cycle-based error applied! address=0x8ba9dbc94 additional_latency=1990500 cycles
Heartbeat CPU 0 instructions: 920000143 cycles: 1348403070 heartbeat IPC: 0.6846 cumulative IPC: 0.6823 (Simulation time: 02 hr 31 min 46 sec)
Heartbeat CPU 0 instructions: 930000144 cycles: 1362637408 heartbeat IPC: 0.7025 cumulative IPC: 0.6825 (Simulation time: 02 hr 33 min 30 sec)
Heartbeat CPU 0 instructions: 940000145 cycles: 1376872630 heartbeat IPC: 0.7025 cumulative IPC: 0.6827 (Simulation time: 02 hr 35 min 15 sec)
Heartbeat CPU 0 instructions: 950000146 cycles: 1391438571 heartbeat IPC: 0.6865 cumulative IPC: 0.6827 (Simulation time: 02 hr 37 min 02 sec)
Heartbeat CPU 0 instructions: 960000149 cycles: 1405936084 heartbeat IPC: 0.6898 cumulative IPC: 0.6828 (Simulation time: 02 hr 38 min 48 sec)
Heartbeat CPU 0 instructions: 970000151 cycles: 1420526826 heartbeat IPC: 0.6854 cumulative IPC: 0.6828 (Simulation time: 02 hr 40 min 36 sec)
Heartbeat CPU 0 instructions: 980000151 cycles: 1434877047 heartbeat IPC: 0.6969 cumulative IPC: 0.683 (Simulation time: 02 hr 42 min 21 sec)
Heartbeat CPU 0 instructions: 990000152 cycles: 1449444460 heartbeat IPC: 0.6865 cumulative IPC: 0.683 (Simulation time: 02 hr 44 min 08 sec)
[ERROR_CYCLE] Error added at CPU cycle 1451238650, next at 1516871150, pending count: 1
[DRAM_CYCLE_ERROR] Cycle-based error applied! address=0x18651db40 additional_latency=1990500 cycles
Heartbeat CPU 0 instructions: 1000000155 cycles: 1464030833 heartbeat IPC: 0.6856 cumulative IPC: 0.683 (Simulation time: 02 hr 45 min 55 sec)
Heartbeat CPU 0 instructions: 1010000157 cycles: 1478452817 heartbeat IPC: 0.6934 cumulative IPC: 0.6831 (Simulation time: 02 hr 47 min 28 sec)
Heartbeat CPU 0 instructions: 1020000158 cycles: 1493042872 heartbeat IPC: 0.6854 cumulative IPC: 0.6832 (Simulation time: 02 hr 48 min 46 sec)
Heartbeat CPU 0 instructions: 1030000159 cycles: 1507553579 heartbeat IPC: 0.6891 cumulative IPC: 0.6832 (Simulation time: 02 hr 50 min 24 sec)
[ERROR_CYCLE] Error added at CPU cycle 1516871150, next at 1895264846, pending count: 1
[DRAM_CYCLE_ERROR] Cycle-based error applied! address=0x186451b48 additional_latency=1990500 cycles
Heartbeat CPU 0 instructions: 1040000159 cycles: 1522059849 heartbeat IPC: 0.6894 cumulative IPC: 0.6833 (Simulation time: 02 hr 52 min 00 sec)
Heartbeat CPU 0 instructions: 1050000161 cycles: 1536393212 heartbeat IPC: 0.6977 cumulative IPC: 0.6834 (Simulation time: 02 hr 53 min 41 sec)
Heartbeat CPU 0 instructions: 1060000161 cycles: 1550677096 heartbeat IPC: 0.7001 cumulative IPC: 0.6836 (Simulation time: 02 hr 55 min 07 sec)
Heartbeat CPU 0 instructions: 1070000165 cycles: 1565000262 heartbeat IPC: 0.6982 cumulative IPC: 0.6837 (Simulation time: 02 hr 56 min 44 sec)
Heartbeat CPU 0 instructions: 1080000166 cycles: 1579635137 heartbeat IPC: 0.6833 cumulative IPC: 0.6837 (Simulation time: 02 hr 58 min 31 sec)
Heartbeat CPU 0 instructions: 1090000166 cycles: 1594101886 heartbeat IPC: 0.6912 cumulative IPC: 0.6838 (Simulation time: 03 hr 00 min 17 sec)
Heartbeat CPU 0 instructions: 1100000166 cycles: 1608262332 heartbeat IPC: 0.7062 cumulative IPC: 0.684 (Simulation time: 03 hr 01 min 53 sec)
Heartbeat CPU 0 instructions: 1110000166 cycles: 1622792594 heartbeat IPC: 0.6882 cumulative IPC: 0.684 (Simulation time: 03 hr 03 min 30 sec)
Heartbeat CPU 0 instructions: 1120000168 cycles: 1637083136 heartbeat IPC: 0.6998 cumulative IPC: 0.6841 (Simulation time: 03 hr 04 min 47 sec)
Heartbeat CPU 0 instructions: 1130000172 cycles: 1651651731 heartbeat IPC: 0.6864 cumulative IPC: 0.6842 (Simulation time: 03 hr 06 min 17 sec)
Heartbeat CPU 0 instructions: 1140000176 cycles: 1665944324 heartbeat IPC: 0.6997 cumulative IPC: 0.6843 (Simulation time: 03 hr 07 min 35 sec)
Heartbeat CPU 0 instructions: 1150000177 cycles: 1680206033 heartbeat IPC: 0.7012 cumulative IPC: 0.6844 (Simulation time: 03 hr 09 min 18 sec)
Heartbeat CPU 0 instructions: 1160000181 cycles: 1694547896 heartbeat IPC: 0.6973 cumulative IPC: 0.6845 (Simulation time: 03 hr 11 min 04 sec)
Heartbeat CPU 0 instructions: 1170000181 cycles: 1709025606 heartbeat IPC: 0.6907 cumulative IPC: 0.6846 (Simulation time: 03 hr 12 min 51 sec)
Heartbeat CPU 0 instructions: 1180000184 cycles: 1723319680 heartbeat IPC: 0.6996 cumulative IPC: 0.6847 (Simulation time: 03 hr 14 min 37 sec)
Heartbeat CPU 0 instructions: 1190000185 cycles: 1737911962 heartbeat IPC: 0.6853 cumulative IPC: 0.6847 (Simulation time: 03 hr 16 min 25 sec)
Heartbeat CPU 0 instructions: 1200000186 cycles: 1752341088 heartbeat IPC: 0.693 cumulative IPC: 0.6848 (Simulation time: 03 hr 18 min 11 sec)
Heartbeat CPU 0 instructions: 1210000189 cycles: 1766708008 heartbeat IPC: 0.696 cumulative IPC: 0.6849 (Simulation time: 03 hr 19 min 57 sec)
Heartbeat CPU 0 instructions: 1220000191 cycles: 1781117811 heartbeat IPC: 0.694 cumulative IPC: 0.685 (Simulation time: 03 hr 21 min 41 sec)
Heartbeat CPU 0 instructions: 1230000191 cycles: 1795536501 heartbeat IPC: 0.6935 cumulative IPC: 0.685 (Simulation time: 03 hr 23 min 27 sec)
Heartbeat CPU 0 instructions: 1240000192 cycles: 1809884867 heartbeat IPC: 0.6969 cumulative IPC: 0.6851 (Simulation time: 03 hr 25 min 13 sec)
Heartbeat CPU 0 instructions: 1250000193 cycles: 1824320275 heartbeat IPC: 0.6927 cumulative IPC: 0.6852 (Simulation time: 03 hr 26 min 59 sec)
Heartbeat CPU 0 instructions: 1260000195 cycles: 1838705089 heartbeat IPC: 0.6952 cumulative IPC: 0.6853 (Simulation time: 03 hr 28 min 45 sec)
Heartbeat CPU 0 instructions: 1270000195 cycles: 1853017223 heartbeat IPC: 0.6987 cumulative IPC: 0.6854 (Simulation time: 03 hr 30 min 20 sec)
Heartbeat CPU 0 instructions: 1280000195 cycles: 1867462789 heartbeat IPC: 0.6923 cumulative IPC: 0.6854 (Simulation time: 03 hr 31 min 58 sec)
Heartbeat CPU 0 instructions: 1290000198 cycles: 1882032143 heartbeat IPC: 0.6864 cumulative IPC: 0.6854 (Simulation time: 03 hr 33 min 39 sec)
[ERROR_CYCLE] Error added at CPU cycle 1895264846, next at 1918959287, pending count: 1
[DRAM_CYCLE_ERROR] Cycle-based error applied! address=0xeb13f5a30 additional_latency=1990500 cycles
Heartbeat CPU 0 instructions: 1300000199 cycles: 1896354594 heartbeat IPC: 0.6982 cumulative IPC: 0.6855 (Simulation time: 03 hr 35 min 16 sec)
Heartbeat CPU 0 instructions: 1310000199 cycles: 1910584081 heartbeat IPC: 0.7028 cumulative IPC: 0.6857 (Simulation time: 03 hr 36 min 39 sec)
[ERROR_CYCLE] Error added at CPU cycle 1918959288, next at 1942970277, pending count: 1
[DRAM_CYCLE_ERROR] Cycle-based error applied! address=0xde45b87a0 additional_latency=1990500 cycles
Heartbeat CPU 0 instructions: 1320000200 cycles: 1925115140 heartbeat IPC: 0.6882 cumulative IPC: 0.6857 (Simulation time: 03 hr 37 min 56 sec)
Heartbeat CPU 0 instructions: 1330000200 cycles: 1939439714 heartbeat IPC: 0.6981 cumulative IPC: 0.6858 (Simulation time: 03 hr 39 min 14 sec)
[ERROR_CYCLE] Error added at CPU cycle 1942970277, next at 2231190340, pending count: 1
[DRAM_CYCLE_ERROR] Cycle-based error applied! address=0xe18fd9b70 additional_latency=1990500 cycles
Heartbeat CPU 0 instructions: 1340000202 cycles: 1953812749 heartbeat IPC: 0.6957 cumulative IPC: 0.6858 (Simulation time: 03 hr 40 min 54 sec)
Heartbeat CPU 0 instructions: 1350000205 cycles: 1968301942 heartbeat IPC: 0.6902 cumulative IPC: 0.6859 (Simulation time: 03 hr 42 min 19 sec)
Heartbeat CPU 0 instructions: 1360000205 cycles: 1982473169 heartbeat IPC: 0.7057 cumulative IPC: 0.686 (Simulation time: 03 hr 43 min 38 sec)
Heartbeat CPU 0 instructions: 1370000207 cycles: 1996942547 heartbeat IPC: 0.6911 cumulative IPC: 0.686 (Simulation time: 03 hr 45 min 22 sec)
Heartbeat CPU 0 instructions: 1380000207 cycles: 2011413855 heartbeat IPC: 0.691 cumulative IPC: 0.6861 (Simulation time: 03 hr 47 min 07 sec)
Heartbeat CPU 0 instructions: 1390000207 cycles: 2025888307 heartbeat IPC: 0.6909 cumulative IPC: 0.6861 (Simulation time: 03 hr 48 min 35 sec)
Heartbeat CPU 0 instructions: 1400000207 cycles: 2040226660 heartbeat IPC: 0.6974 cumulative IPC: 0.6862 (Simulation time: 03 hr 49 min 58 sec)
Heartbeat CPU 0 instructions: 1410000207 cycles: 2054703927 heartbeat IPC: 0.6907 cumulative IPC: 0.6862 (Simulation time: 03 hr 51 min 26 sec)
Heartbeat CPU 0 instructions: 1420000207 cycles: 2069289111 heartbeat IPC: 0.6856 cumulative IPC: 0.6862 (Simulation time: 03 hr 53 min 06 sec)
Heartbeat CPU 0 instructions: 1430000211 cycles: 2083784693 heartbeat IPC: 0.6899 cumulative IPC: 0.6863 (Simulation time: 03 hr 54 min 51 sec)
Heartbeat CPU 0 instructions: 1440000213 cycles: 2098419821 heartbeat IPC: 0.6833 cumulative IPC: 0.6862 (Simulation time: 03 hr 56 min 37 sec)
Heartbeat CPU 0 instructions: 1450000215 cycles: 2112535239 heartbeat IPC: 0.7084 cumulative IPC: 0.6864 (Simulation time: 03 hr 58 min 20 sec)
Heartbeat CPU 0 instructions: 1460000218 cycles: 2127009669 heartbeat IPC: 0.6909 cumulative IPC: 0.6864 (Simulation time: 04 hr 00 min 05 sec)
Heartbeat CPU 0 instructions: 1470000218 cycles: 2141332515 heartbeat IPC: 0.6982 cumulative IPC: 0.6865 (Simulation time: 04 hr 01 min 50 sec)
Heartbeat CPU 0 instructions: 1480000218 cycles: 2155720878 heartbeat IPC: 0.695 cumulative IPC: 0.6865 (Simulation time: 04 hr 03 min 34 sec)
Heartbeat CPU 0 instructions: 1490000222 cycles: 2170067327 heartbeat IPC: 0.697 cumulative IPC: 0.6866 (Simulation time: 04 hr 05 min 19 sec)
Heartbeat CPU 0 instructions: 1500000226 cycles: 2184510871 heartbeat IPC: 0.6924 cumulative IPC: 0.6867 (Simulation time: 04 hr 06 min 48 sec)
Heartbeat CPU 0 instructions: 1510000228 cycles: 2198962149 heartbeat IPC: 0.692 cumulative IPC: 0.6867 (Simulation time: 04 hr 08 min 31 sec)
Heartbeat CPU 0 instructions: 1520000228 cycles: 2213395525 heartbeat IPC: 0.6928 cumulative IPC: 0.6867 (Simulation time: 04 hr 10 min 14 sec)
Heartbeat CPU 0 instructions: 1530000229 cycles: 2227980161 heartbeat IPC: 0.6857 cumulative IPC: 0.6867 (Simulation time: 04 hr 11 min 58 sec)
[ERROR_CYCLE] Error added at CPU cycle 2231190341, next at 2270667087, pending count: 1
[DRAM_CYCLE_ERROR] Cycle-based error applied! address=0xadb237620 additional_latency=1990500 cycles
Heartbeat CPU 0 instructions: 1540000230 cycles: 2242516557 heartbeat IPC: 0.6879 cumulative IPC: 0.6867 (Simulation time: 04 hr 13 min 42 sec)
Heartbeat CPU 0 instructions: 1550000230 cycles: 2257262343 heartbeat IPC: 0.6782 cumulative IPC: 0.6867 (Simulation time: 04 hr 15 min 26 sec)
[ERROR_CYCLE] Error added at CPU cycle 2270667087, next at 2698464924, pending count: 1
[DRAM_CYCLE_ERROR] Cycle-based error applied! address=0x9eeb1acc0 additional_latency=1990500 cycles
Heartbeat CPU 0 instructions: 1560000231 cycles: 2271884141 heartbeat IPC: 0.6839 cumulative IPC: 0.6867 (Simulation time: 04 hr 17 min 11 sec)
Heartbeat CPU 0 instructions: 1570000233 cycles: 2286533297 heartbeat IPC: 0.6826 cumulative IPC: 0.6866 (Simulation time: 04 hr 18 min 56 sec)
Heartbeat CPU 0 instructions: 1580000237 cycles: 2301336460 heartbeat IPC: 0.6755 cumulative IPC: 0.6866 (Simulation time: 04 hr 20 min 40 sec)
Heartbeat CPU 0 instructions: 1590000240 cycles: 2316114811 heartbeat IPC: 0.6767 cumulative IPC: 0.6865 (Simulation time: 04 hr 22 min 25 sec)
Heartbeat CPU 0 instructions: 1600000244 cycles: 2330757197 heartbeat IPC: 0.6829 cumulative IPC: 0.6865 (Simulation time: 04 hr 24 min 08 sec)
Heartbeat CPU 0 instructions: 1610000244 cycles: 2345397618 heartbeat IPC: 0.683 cumulative IPC: 0.6865 (Simulation time: 04 hr 25 min 53 sec)
Heartbeat CPU 0 instructions: 1620000248 cycles: 2360045306 heartbeat IPC: 0.6827 cumulative IPC: 0.6864 (Simulation time: 04 hr 27 min 37 sec)
Heartbeat CPU 0 instructions: 1630000248 cycles: 2374780290 heartbeat IPC: 0.6787 cumulative IPC: 0.6864 (Simulation time: 04 hr 29 min 21 sec)
Heartbeat CPU 0 instructions: 1640000252 cycles: 2389349661 heartbeat IPC: 0.6864 cumulative IPC: 0.6864 (Simulation time: 04 hr 30 min 42 sec)
Heartbeat CPU 0 instructions: 1650000253 cycles: 2403967134 heartbeat IPC: 0.6841 cumulative IPC: 0.6864 (Simulation time: 04 hr 32 min 29 sec)
Heartbeat CPU 0 instructions: 1660000253 cycles: 2418669074 heartbeat IPC: 0.6802 cumulative IPC: 0.6863 (Simulation time: 04 hr 33 min 49 sec)
Heartbeat CPU 0 instructions: 1670000254 cycles: 2433331029 heartbeat IPC: 0.682 cumulative IPC: 0.6863 (Simulation time: 04 hr 35 min 34 sec)
Heartbeat CPU 0 instructions: 1680000256 cycles: 2448125733 heartbeat IPC: 0.6759 cumulative IPC: 0.6862 (Simulation time: 04 hr 37 min 19 sec)
Heartbeat CPU 0 instructions: 1690000258 cycles: 2462817429 heartbeat IPC: 0.6807 cumulative IPC: 0.6862 (Simulation time: 04 hr 39 min 05 sec)
Heartbeat CPU 0 instructions: 1700000260 cycles: 2477514730 heartbeat IPC: 0.6804 cumulative IPC: 0.6862 (Simulation time: 04 hr 40 min 51 sec)
Heartbeat CPU 0 instructions: 1710000261 cycles: 2492124076 heartbeat IPC: 0.6845 cumulative IPC: 0.6862 (Simulation time: 04 hr 42 min 38 sec)
Heartbeat CPU 0 instructions: 1720000264 cycles: 2506871192 heartbeat IPC: 0.6781 cumulative IPC: 0.6861 (Simulation time: 04 hr 44 min 25 sec)
Heartbeat CPU 0 instructions: 1730000265 cycles: 2521758944 heartbeat IPC: 0.6717 cumulative IPC: 0.686 (Simulation time: 04 hr 46 min 13 sec)
Heartbeat CPU 0 instructions: 1740000265 cycles: 2536261352 heartbeat IPC: 0.6895 cumulative IPC: 0.686 (Simulation time: 04 hr 47 min 58 sec)
Heartbeat CPU 0 instructions: 1750000269 cycles: 2550838915 heartbeat IPC: 0.686 cumulative IPC: 0.686 (Simulation time: 04 hr 49 min 44 sec)
Heartbeat CPU 0 instructions: 1760000272 cycles: 2565678028 heartbeat IPC: 0.6739 cumulative IPC: 0.686 (Simulation time: 04 hr 51 min 31 sec)
Heartbeat CPU 0 instructions: 1770000272 cycles: 2580517350 heartbeat IPC: 0.6739 cumulative IPC: 0.6859 (Simulation time: 04 hr 53 min 20 sec)
Heartbeat CPU 0 instructions: 1780000273 cycles: 2595165090 heartbeat IPC: 0.6827 cumulative IPC: 0.6859 (Simulation time: 04 hr 55 min 09 sec)
Heartbeat CPU 0 instructions: 1790000276 cycles: 2609784023 heartbeat IPC: 0.684 cumulative IPC: 0.6859 (Simulation time: 04 hr 56 min 57 sec)
Heartbeat CPU 0 instructions: 1800000279 cycles: 2624444960 heartbeat IPC: 0.6821 cumulative IPC: 0.6859 (Simulation time: 04 hr 58 min 46 sec)
Heartbeat CPU 0 instructions: 1810000281 cycles: 2638991413 heartbeat IPC: 0.6875 cumulative IPC: 0.6859 (Simulation time: 05 hr 00 min 26 sec)
Heartbeat CPU 0 instructions: 1820000282 cycles: 2653814732 heartbeat IPC: 0.6746 cumulative IPC: 0.6858 (Simulation time: 05 hr 02 min 13 sec)
Heartbeat CPU 0 instructions: 1830000284 cycles: 2668357082 heartbeat IPC: 0.6876 cumulative IPC: 0.6858 (Simulation time: 05 hr 04 min 00 sec)
Heartbeat CPU 0 instructions: 1840000284 cycles: 2682936078 heartbeat IPC: 0.6859 cumulative IPC: 0.6858 (Simulation time: 05 hr 05 min 38 sec)
Heartbeat CPU 0 instructions: 1850000286 cycles: 2697605331 heartbeat IPC: 0.6817 cumulative IPC: 0.6858 (Simulation time: 05 hr 07 min 27 sec)
[ERROR_CYCLE] Error added at CPU cycle 2698464925, next at 2755971727, pending count: 1
[DRAM_CYCLE_ERROR] Cycle-based error applied! address=0xd86ae7f20 additional_latency=1990500 cycles
Heartbeat CPU 0 instructions: 1860000286 cycles: 2712305410 heartbeat IPC: 0.6803 cumulative IPC: 0.6858 (Simulation time: 05 hr 09 min 15 sec)
Heartbeat CPU 0 instructions: 1870000286 cycles: 2727031514 heartbeat IPC: 0.6791 cumulative IPC: 0.6857 (Simulation time: 05 hr 10 min 56 sec)
Heartbeat CPU 0 instructions: 1880000286 cycles: 2741657430 heartbeat IPC: 0.6837 cumulative IPC: 0.6857 (Simulation time: 05 hr 12 min 32 sec)
[ERROR_CYCLE] Error added at CPU cycle 2755971728, next at 3092316377, pending count: 1
[DRAM_CYCLE_ERROR] Cycle-based error applied! address=0x94c2e2170 additional_latency=1990500 cycles
Heartbeat CPU 0 instructions: 1890000290 cycles: 2756193034 heartbeat IPC: 0.688 cumulative IPC: 0.6857 (Simulation time: 05 hr 14 min 19 sec)
Heartbeat CPU 0 instructions: 1900000294 cycles: 2770766480 heartbeat IPC: 0.6862 cumulative IPC: 0.6857 (Simulation time: 05 hr 16 min 07 sec)
Heartbeat CPU 0 instructions: 1910000296 cycles: 2785253646 heartbeat IPC: 0.6903 cumulative IPC: 0.6858 (Simulation time: 05 hr 17 min 54 sec)
Heartbeat CPU 0 instructions: 1920000297 cycles: 2800063866 heartbeat IPC: 0.6752 cumulative IPC: 0.6857 (Simulation time: 05 hr 19 min 43 sec)
Heartbeat CPU 0 instructions: 1930000298 cycles: 2814843763 heartbeat IPC: 0.6766 cumulative IPC: 0.6857 (Simulation time: 05 hr 21 min 33 sec)
Heartbeat CPU 0 instructions: 1940000298 cycles: 2829452856 heartbeat IPC: 0.6845 cumulative IPC: 0.6856 (Simulation time: 05 hr 23 min 21 sec)
Heartbeat CPU 0 instructions: 1950000298 cycles: 2844080104 heartbeat IPC: 0.6837 cumulative IPC: 0.6856 (Simulation time: 05 hr 25 min 08 sec)
Heartbeat CPU 0 instructions: 1960000299 cycles: 2858559849 heartbeat IPC: 0.6906 cumulative IPC: 0.6857 (Simulation time: 05 hr 26 min 53 sec)
Heartbeat CPU 0 instructions: 1970000299 cycles: 2873064409 heartbeat IPC: 0.6894 cumulative IPC: 0.6857 (Simulation time: 05 hr 28 min 20 sec)
Heartbeat CPU 0 instructions: 1980000299 cycles: 2887582337 heartbeat IPC: 0.6888 cumulative IPC: 0.6857 (Simulation time: 05 hr 30 min 00 sec)
Heartbeat CPU 0 instructions: 1990000300 cycles: 2902012065 heartbeat IPC: 0.693 cumulative IPC: 0.6857 (Simulation time: 05 hr 31 min 43 sec)

=== ERROR PAGE STATISTICS ===
Mode: CYCLE
Error Cycle Interval: 100000000 CPU cycles
Total Error Accesses: 24
==============================
Simulation finished CPU 0 instructions: 1999999986 cycles: 2916422047 cumulative IPC: 0.6858 (Simulation time: 05 hr 33 min 25 sec)
Simulation complete CPU 0 instructions: 1999999986 cycles: 2916422047 cumulative IPC: 0.6858 (Simulation time: 05 hr 33 min 25 sec)

ChampSim completed all CPUs

=== Simulation ===
CPU 0 runs test_traces/620.omnetpp_s-141B.champsimtrace.xz

Region of Interest Statistics

CPU 0 cumulative IPC: 0.6858 instructions: 1999999986 cycles: 2916422047
CPU 0 Branch Prediction Accuracy: 92.96% MPKI: 14.8 Average ROB Occupancy at Mispredict: 42.41
Branch type MPKI
BRANCH_DIRECT_JUMP: 0.8484
BRANCH_INDIRECT: 0.3555
BRANCH_CONDITIONAL: 12.32
BRANCH_DIRECT_CALL: 0.0001295
BRANCH_INDIRECT_CALL: 0.8457
BRANCH_RETURN: 0.4309

cpu0->cpu0_STLB TOTAL        ACCESS:    2805466 HIT:    2805351 MISS:        115 MSHR_MERGE:          0
cpu0->cpu0_STLB LOAD         ACCESS:    2805466 HIT:    2805351 MISS:        115 MSHR_MERGE:          0
cpu0->cpu0_STLB RFO          ACCESS:          0 HIT:          0 MISS:          0 MSHR_MERGE:          0
cpu0->cpu0_STLB PREFETCH     ACCESS:          0 HIT:          0 MISS:          0 MSHR_MERGE:          0
cpu0->cpu0_STLB WRITE        ACCESS:          0 HIT:          0 MISS:          0 MSHR_MERGE:          0
cpu0->cpu0_STLB TRANSLATION  ACCESS:          0 HIT:          0 MISS:          0 MSHR_MERGE:          0
cpu0->cpu0_STLB PREFETCH REQUESTED:          0 ISSUED:          0 USEFUL:          0 USELESS:          0
cpu0->cpu0_STLB AVERAGE MISS LATENCY: 8764 cycles
cpu0->cpu0_L2C TOTAL        ACCESS:   56648256 HIT:   29476006 MISS:   27172250 MSHR_MERGE:          0
cpu0->cpu0_L2C LOAD         ACCESS:   33707419 HIT:   10164086 MISS:   23543333 MSHR_MERGE:          0
cpu0->cpu0_L2C RFO          ACCESS:    4838813 HIT:    1232940 MISS:    3605873 MSHR_MERGE:          0
cpu0->cpu0_L2C PREFETCH     ACCESS:          0 HIT:          0 MISS:          0 MSHR_MERGE:          0
cpu0->cpu0_L2C WRITE        ACCESS:   18102024 HIT:   18078980 MISS:      23044 MSHR_MERGE:          0
cpu0->cpu0_L2C TRANSLATION  ACCESS:          0 HIT:          0 MISS:          0 MSHR_MERGE:          0
cpu0->cpu0_L2C PREFETCH REQUESTED:          0 ISSUED:          0 USEFUL:          0 USELESS:          0
cpu0->cpu0_L2C AVERAGE MISS LATENCY: 88.62 cycles
cpu0->cpu0_L1I TOTAL        ACCESS:  267255098 HIT:  265532236 MISS:    1722862 MSHR_MERGE:     435773
cpu0->cpu0_L1I LOAD         ACCESS:  267255098 HIT:  265532236 MISS:    1722862 MSHR_MERGE:     435773
cpu0->cpu0_L1I RFO          ACCESS:          0 HIT:          0 MISS:          0 MSHR_MERGE:          0
cpu0->cpu0_L1I PREFETCH     ACCESS:          0 HIT:          0 MISS:          0 MSHR_MERGE:          0
cpu0->cpu0_L1I WRITE        ACCESS:          0 HIT:          0 MISS:          0 MSHR_MERGE:          0
cpu0->cpu0_L1I TRANSLATION  ACCESS:          0 HIT:          0 MISS:          0 MSHR_MERGE:          0
cpu0->cpu0_L1I PREFETCH REQUESTED:          0 ISSUED:          0 USEFUL:          0 USELESS:          0
cpu0->cpu0_L1I AVERAGE MISS LATENCY: 11.94 cycles
cpu0->cpu0_L1D TOTAL        ACCESS:  808748293 HIT:  751454507 MISS:   57293786 MSHR_MERGE:   20034496
cpu0->cpu0_L1D LOAD         ACCESS:  441066940 HIT:  397762285 MISS:   43304655 MSHR_MERGE:   10884232
cpu0->cpu0_L1D RFO          ACCESS:          0 HIT:          0 MISS:          0 MSHR_MERGE:          0
cpu0->cpu0_L1D PREFETCH     ACCESS:          0 HIT:          0 MISS:          0 MSHR_MERGE:          0
cpu0->cpu0_L1D WRITE        ACCESS:  367681353 HIT:  353692222 MISS:   13989131 MSHR_MERGE:    9150264
cpu0->cpu0_L1D TRANSLATION  ACCESS:          0 HIT:          0 MISS:          0 MSHR_MERGE:          0
cpu0->cpu0_L1D PREFETCH REQUESTED:          0 ISSUED:          0 USEFUL:          0 USELESS:          0
cpu0->cpu0_L1D AVERAGE MISS LATENCY: 73.27 cycles
cpu0->cpu0_ITLB TOTAL        ACCESS:  234321295 HIT:  234321292 MISS:          3 MSHR_MERGE:          1
cpu0->cpu0_ITLB LOAD         ACCESS:  234321295 HIT:  234321292 MISS:          3 MSHR_MERGE:          1
cpu0->cpu0_ITLB RFO          ACCESS:          0 HIT:          0 MISS:          0 MSHR_MERGE:          0
cpu0->cpu0_ITLB PREFETCH     ACCESS:          0 HIT:          0 MISS:          0 MSHR_MERGE:          0
cpu0->cpu0_ITLB WRITE        ACCESS:          0 HIT:          0 MISS:          0 MSHR_MERGE:          0
cpu0->cpu0_ITLB TRANSLATION  ACCESS:          0 HIT:          0 MISS:          0 MSHR_MERGE:          0
cpu0->cpu0_ITLB PREFETCH REQUESTED:          0 ISSUED:          0 USEFUL:          0 USELESS:          0
cpu0->cpu0_ITLB AVERAGE MISS LATENCY: 1.292e+04 cycles
cpu0->cpu0_DTLB TOTAL        ACCESS:  686936011 HIT:  683476199 MISS:    3459812 MSHR_MERGE:     654348
cpu0->cpu0_DTLB LOAD         ACCESS:  686936011 HIT:  683476199 MISS:    3459812 MSHR_MERGE:     654348
cpu0->cpu0_DTLB RFO          ACCESS:          0 HIT:          0 MISS:          0 MSHR_MERGE:          0
cpu0->cpu0_DTLB PREFETCH     ACCESS:          0 HIT:          0 MISS:          0 MSHR_MERGE:          0
cpu0->cpu0_DTLB WRITE        ACCESS:          0 HIT:          0 MISS:          0 MSHR_MERGE:          0
cpu0->cpu0_DTLB TRANSLATION  ACCESS:          0 HIT:          0 MISS:          0 MSHR_MERGE:          0
cpu0->cpu0_DTLB PREFETCH REQUESTED:          0 ISSUED:          0 USEFUL:          0 USELESS:          0
cpu0->cpu0_DTLB AVERAGE MISS LATENCY: 5.351 cycles
cpu0->LLC TOTAL        ACCESS:   40303072 HIT:   19732393 MISS:   20570679 MSHR_MERGE:          0
cpu0->LLC LOAD         ACCESS:   23543329 HIT:    5180180 MISS:   18363149 MSHR_MERGE:          0
cpu0->LLC RFO          ACCESS:    3605872 HIT:    1446159 MISS:    2159713 MSHR_MERGE:          0
cpu0->LLC PREFETCH     ACCESS:          0 HIT:          0 MISS:          0 MSHR_MERGE:          0
cpu0->LLC WRITE        ACCESS:   13153871 HIT:   13106054 MISS:      47817 MSHR_MERGE:          0
cpu0->LLC TRANSLATION  ACCESS:          0 HIT:          0 MISS:          0 MSHR_MERGE:          0
cpu0->LLC PREFETCH REQUESTED:          0 ISSUED:          0 USEFUL:          0 USELESS:          0
cpu0->LLC AVERAGE MISS LATENCY: 96.27 cycles

DRAM Statistics

Channel 0 RQ ROW_BUFFER_HIT:     361125
  ROW_BUFFER_MISS:    9898172
  AVG DBUS CONGESTED CYCLE: 13.57
Channel 0 WQ ROW_BUFFER_HIT:     755613
  ROW_BUFFER_MISS:    3984975
  FULL:          0
Channel 0 REFRESHES ISSUED:     243019

Channel 1 RQ ROW_BUFFER_HIT:     360742
  ROW_BUFFER_MISS:    9903032
  AVG DBUS CONGESTED CYCLE: 13.58
Channel 1 WQ ROW_BUFFER_HIT:     758278
  ROW_BUFFER_MISS:    4002939
  FULL:          0
Channel 1 REFRESHES ISSUED:     243019
