[VMEM] WARNING: physical memory size is smaller than virtual memory size.

*** ChampSim Multicore Out-of-Order Simulator ***
Warmup Instructions: 0
Simulation Instructions: 9223372036854775807
Number of CPUs: 1
Page size: 4096

Off-chip DRAM Size: 32 GiB Channels: 2 Width: 32-bit Data Rate: 4807 MT/s
[ERROR_PAGE_MANAGER] Error latency: 173500 
[ERROR_PAGE_MANAGER] Random seed: 54321 (fixed for preload reproducibility)
[ERROR_PAGE_MANAGER] Cycle-based error modeling enabled
[ERROR_PAGE_MANAGER] Errors per interval: 1
[ERROR_PAGE_MANAGER] Error cycle interval: 20000000 cycles

=== ERROR PAGE STATISTICS ===
Mode: CYCLE
Error Cycle Interval: 20000000 CPU cycles
Total Error Accesses: 0
==============================
Warmup finished CPU 0 instructions: 0 cycles: 1 cumulative IPC: 0 (Simulation time: 00 hr 00 min 00 sec)
Warmup complete CPU 0 instructions: 0 cycles: 1 cumulative IPC: 0 (Simulation time: 00 hr 00 min 00 sec)
Heartbeat CPU 0 instructions: 10000002 cycles: 5270502 heartbeat IPC: 1.897 cumulative IPC: 1.897 (Simulation time: 00 hr 00 min 54 sec)
Heartbeat CPU 0 instructions: 20000002 cycles: 10639301 heartbeat IPC: 1.863 cumulative IPC: 1.88 (Simulation time: 00 hr 02 min 00 sec)
[ERROR_CYCLE] Error added at CPU cycle 14255611, next at 18306612, pending count: 1
[DRAM_CYCLE_ERROR] Cycle-based error applied! address=0x297232c80 additional_latency=173500 cycles
Heartbeat CPU 0 instructions: 30000006 cycles: 16021169 heartbeat IPC: 1.858 cumulative IPC: 1.873 (Simulation time: 00 hr 03 min 07 sec)
[ERROR_CYCLE] Error added at CPU cycle 18306612, next at 51392127, pending count: 1
[DRAM_CYCLE_ERROR] Cycle-based error applied! address=0x265f4000 additional_latency=173500 cycles
Heartbeat CPU 0 instructions: 40000007 cycles: 21377222 heartbeat IPC: 1.867 cumulative IPC: 1.871 (Simulation time: 00 hr 04 min 13 sec)
Heartbeat CPU 0 instructions: 50000007 cycles: 26754603 heartbeat IPC: 1.86 cumulative IPC: 1.869 (Simulation time: 00 hr 05 min 20 sec)
Heartbeat CPU 0 instructions: 60000007 cycles: 33959064 heartbeat IPC: 1.388 cumulative IPC: 1.767 (Simulation time: 00 hr 06 min 39 sec)
Heartbeat CPU 0 instructions: 70000007 cycles: 41386034 heartbeat IPC: 1.346 cumulative IPC: 1.691 (Simulation time: 00 hr 07 min 59 sec)
Heartbeat CPU 0 instructions: 80000008 cycles: 48845615 heartbeat IPC: 1.341 cumulative IPC: 1.638 (Simulation time: 00 hr 09 min 11 sec)
[ERROR_CYCLE] Error added at CPU cycle 51392127, next at 106935378, pending count: 1
[DRAM_CYCLE_ERROR] Cycle-based error applied! address=0x5305ba1c0 additional_latency=173500 cycles
Heartbeat CPU 0 instructions: 90000010 cycles: 56296580 heartbeat IPC: 1.342 cumulative IPC: 1.599 (Simulation time: 00 hr 10 min 04 sec)
Heartbeat CPU 0 instructions: 100000013 cycles: 63701252 heartbeat IPC: 1.35 cumulative IPC: 1.57 (Simulation time: 00 hr 11 min 00 sec)
Heartbeat CPU 0 instructions: 110000016 cycles: 71112388 heartbeat IPC: 1.349 cumulative IPC: 1.547 (Simulation time: 00 hr 11 min 53 sec)
Heartbeat CPU 0 instructions: 120000019 cycles: 78519926 heartbeat IPC: 1.35 cumulative IPC: 1.528 (Simulation time: 00 hr 13 min 02 sec)
Heartbeat CPU 0 instructions: 130000020 cycles: 85978423 heartbeat IPC: 1.341 cumulative IPC: 1.512 (Simulation time: 00 hr 14 min 02 sec)
Heartbeat CPU 0 instructions: 140000022 cycles: 93352094 heartbeat IPC: 1.356 cumulative IPC: 1.5 (Simulation time: 00 hr 14 min 55 sec)
Heartbeat CPU 0 instructions: 150000024 cycles: 100680828 heartbeat IPC: 1.364 cumulative IPC: 1.49 (Simulation time: 00 hr 16 min 08 sec)
[ERROR_CYCLE] Error added at CPU cycle 106935379, next at 107536449, pending count: 1
[DRAM_CYCLE_ERROR] Cycle-based error applied! address=0x112d86280 additional_latency=173500 cycles
[ERROR_CYCLE] Error added at CPU cycle 107536449, next at 138277283, pending count: 1
[DRAM_CYCLE_ERROR] Cycle-based error applied! address=0x3ae8c7a80 additional_latency=173500 cycles
Heartbeat CPU 0 instructions: 160000024 cycles: 107815479 heartbeat IPC: 1.402 cumulative IPC: 1.484 (Simulation time: 00 hr 17 min 25 sec)
Heartbeat CPU 0 instructions: 170000025 cycles: 114876983 heartbeat IPC: 1.416 cumulative IPC: 1.48 (Simulation time: 00 hr 18 min 43 sec)
Heartbeat CPU 0 instructions: 180000026 cycles: 121966554 heartbeat IPC: 1.411 cumulative IPC: 1.476 (Simulation time: 00 hr 20 min 00 sec)
Heartbeat CPU 0 instructions: 190000027 cycles: 129086794 heartbeat IPC: 1.404 cumulative IPC: 1.472 (Simulation time: 00 hr 21 min 09 sec)
Heartbeat CPU 0 instructions: 200000029 cycles: 136147568 heartbeat IPC: 1.416 cumulative IPC: 1.469 (Simulation time: 00 hr 22 min 28 sec)
[ERROR_CYCLE] Error added at CPU cycle 138277283, next at 141856885, pending count: 1
[DRAM_CYCLE_ERROR] Cycle-based error applied! address=0x21c41e5c0 additional_latency=173500 cycles
[ERROR_CYCLE] Error added at CPU cycle 141856885, next at 153234841, pending count: 1
[DRAM_CYCLE_ERROR] Cycle-based error applied! address=0x351627a00 additional_latency=173500 cycles
Heartbeat CPU 0 instructions: 210000030 cycles: 143192666 heartbeat IPC: 1.419 cumulative IPC: 1.467 (Simulation time: 00 hr 23 min 37 sec)
Heartbeat CPU 0 instructions: 220000032 cycles: 150257673 heartbeat IPC: 1.415 cumulative IPC: 1.464 (Simulation time: 00 hr 24 min 57 sec)
[ERROR_CYCLE] Error added at CPU cycle 153234841, next at 170313718, pending count: 1
[DRAM_CYCLE_ERROR] Cycle-based error applied! address=0x2e71e40 additional_latency=173500 cycles
Heartbeat CPU 0 instructions: 230000034 cycles: 157327370 heartbeat IPC: 1.414 cumulative IPC: 1.462 (Simulation time: 00 hr 26 min 16 sec)
Heartbeat CPU 0 instructions: 240000034 cycles: 164527763 heartbeat IPC: 1.389 cumulative IPC: 1.459 (Simulation time: 00 hr 27 min 36 sec)
[ERROR_CYCLE] Error added at CPU cycle 170313718, next at 175206749, pending count: 1
[DRAM_CYCLE_ERROR] Cycle-based error applied! address=0x7c8c0e900 additional_latency=173500 cycles
Heartbeat CPU 0 instructions: 250000034 cycles: 171600633 heartbeat IPC: 1.414 cumulative IPC: 1.457 (Simulation time: 00 hr 28 min 39 sec)
[ERROR_CYCLE] Error added at CPU cycle 175206749, next at 210725907, pending count: 1
[DRAM_CYCLE_ERROR] Cycle-based error applied! address=0x4446ce028 additional_latency=173500 cycles
Heartbeat CPU 0 instructions: 260000036 cycles: 178701954 heartbeat IPC: 1.408 cumulative IPC: 1.455 (Simulation time: 00 hr 29 min 59 sec)
Heartbeat CPU 0 instructions: 270000036 cycles: 185825615 heartbeat IPC: 1.404 cumulative IPC: 1.453 (Simulation time: 00 hr 31 min 17 sec)
Heartbeat CPU 0 instructions: 280000036 cycles: 192928265 heartbeat IPC: 1.408 cumulative IPC: 1.451 (Simulation time: 00 hr 32 min 36 sec)
Heartbeat CPU 0 instructions: 290000036 cycles: 199985855 heartbeat IPC: 1.417 cumulative IPC: 1.45 (Simulation time: 00 hr 33 min 40 sec)
Heartbeat CPU 0 instructions: 300000039 cycles: 207071493 heartbeat IPC: 1.411 cumulative IPC: 1.449 (Simulation time: 00 hr 34 min 55 sec)
[ERROR_CYCLE] Error added at CPU cycle 210725908, next at 217846273, pending count: 1
[DRAM_CYCLE_ERROR] Cycle-based error applied! address=0x20d0eb8c0 additional_latency=173500 cycles
Heartbeat CPU 0 instructions: 310000040 cycles: 214245788 heartbeat IPC: 1.394 cumulative IPC: 1.447 (Simulation time: 00 hr 36 min 15 sec)
[ERROR_CYCLE] Error added at CPU cycle 217846274, next at 226797996, pending count: 1
[DRAM_CYCLE_ERROR] Cycle-based error applied! address=0x2c0fce840 additional_latency=173500 cycles
Heartbeat CPU 0 instructions: 320000043 cycles: 221300188 heartbeat IPC: 1.418 cumulative IPC: 1.446 (Simulation time: 00 hr 37 min 25 sec)
[ERROR_CYCLE] Error added at CPU cycle 226797996, next at 267503668, pending count: 1
[DRAM_CYCLE_ERROR] Cycle-based error applied! address=0x2bd9944c0 additional_latency=173500 cycles
Heartbeat CPU 0 instructions: 330000044 cycles: 228386770 heartbeat IPC: 1.411 cumulative IPC: 1.445 (Simulation time: 00 hr 38 min 22 sec)
Heartbeat CPU 0 instructions: 340000046 cycles: 235561676 heartbeat IPC: 1.394 cumulative IPC: 1.443 (Simulation time: 00 hr 39 min 36 sec)
Heartbeat CPU 0 instructions: 350000047 cycles: 242683744 heartbeat IPC: 1.404 cumulative IPC: 1.442 (Simulation time: 00 hr 40 min 49 sec)
Heartbeat CPU 0 instructions: 360000051 cycles: 249743432 heartbeat IPC: 1.416 cumulative IPC: 1.441 (Simulation time: 00 hr 41 min 53 sec)
Heartbeat CPU 0 instructions: 370000053 cycles: 256859107 heartbeat IPC: 1.405 cumulative IPC: 1.44 (Simulation time: 00 hr 43 min 02 sec)
Heartbeat CPU 0 instructions: 380000054 cycles: 263927275 heartbeat IPC: 1.415 cumulative IPC: 1.44 (Simulation time: 00 hr 44 min 07 sec)
[ERROR_CYCLE] Error added at CPU cycle 267503668, next at 267748717, pending count: 1
[DRAM_CYCLE_ERROR] Cycle-based error applied! address=0x3c5974540 additional_latency=173500 cycles
[ERROR_CYCLE] Error added at CPU cycle 267748717, next at 290247725, pending count: 1
[DRAM_CYCLE_ERROR] Cycle-based error applied! address=0x19e5ee880 additional_latency=173500 cycles
Heartbeat CPU 0 instructions: 390000055 cycles: 271017217 heartbeat IPC: 1.41 cumulative IPC: 1.439 (Simulation time: 00 hr 45 min 14 sec)
Heartbeat CPU 0 instructions: 400000057 cycles: 278125122 heartbeat IPC: 1.407 cumulative IPC: 1.438 (Simulation time: 00 hr 46 min 16 sec)
Heartbeat CPU 0 instructions: 410000059 cycles: 285168630 heartbeat IPC: 1.42 cumulative IPC: 1.438 (Simulation time: 00 hr 47 min 34 sec)
[ERROR_CYCLE] Error added at CPU cycle 290247726, next at 303374226, pending count: 1
[DRAM_CYCLE_ERROR] Cycle-based error applied! address=0x6ab997840 additional_latency=173500 cycles
Heartbeat CPU 0 instructions: 420000060 cycles: 292220940 heartbeat IPC: 1.418 cumulative IPC: 1.437 (Simulation time: 00 hr 48 min 51 sec)
Heartbeat CPU 0 instructions: 430000060 cycles: 299426320 heartbeat IPC: 1.388 cumulative IPC: 1.436 (Simulation time: 00 hr 50 min 11 sec)
[ERROR_CYCLE] Error added at CPU cycle 303374226, next at 379052965, pending count: 1
[DRAM_CYCLE_ERROR] Cycle-based error applied! address=0x747de2f40 additional_latency=173500 cycles
Heartbeat CPU 0 instructions: 440000060 cycles: 306494297 heartbeat IPC: 1.415 cumulative IPC: 1.436 (Simulation time: 00 hr 51 min 29 sec)
Heartbeat CPU 0 instructions: 450000061 cycles: 313533680 heartbeat IPC: 1.421 cumulative IPC: 1.435 (Simulation time: 00 hr 52 min 47 sec)
Heartbeat CPU 0 instructions: 460000062 cycles: 320656330 heartbeat IPC: 1.404 cumulative IPC: 1.435 (Simulation time: 00 hr 54 min 06 sec)
Heartbeat CPU 0 instructions: 470000064 cycles: 327711746 heartbeat IPC: 1.417 cumulative IPC: 1.434 (Simulation time: 00 hr 55 min 16 sec)
Heartbeat CPU 0 instructions: 480000064 cycles: 334805107 heartbeat IPC: 1.41 cumulative IPC: 1.434 (Simulation time: 00 hr 56 min 34 sec)
Heartbeat CPU 0 instructions: 490000065 cycles: 341850999 heartbeat IPC: 1.419 cumulative IPC: 1.433 (Simulation time: 00 hr 57 min 52 sec)
Heartbeat CPU 0 instructions: 500000067 cycles: 348993219 heartbeat IPC: 1.4 cumulative IPC: 1.433 (Simulation time: 00 hr 59 min 08 sec)
Heartbeat CPU 0 instructions: 510000071 cycles: 356034917 heartbeat IPC: 1.42 cumulative IPC: 1.432 (Simulation time: 01 hr 00 min 27 sec)
Heartbeat CPU 0 instructions: 520000074 cycles: 363196537 heartbeat IPC: 1.396 cumulative IPC: 1.432 (Simulation time: 01 hr 01 min 47 sec)
Heartbeat CPU 0 instructions: 530000075 cycles: 370253585 heartbeat IPC: 1.417 cumulative IPC: 1.431 (Simulation time: 01 hr 03 min 06 sec)
Heartbeat CPU 0 instructions: 540000078 cycles: 377318736 heartbeat IPC: 1.415 cumulative IPC: 1.431 (Simulation time: 01 hr 04 min 25 sec)
[ERROR_CYCLE] Error added at CPU cycle 379052966, next at 383791854, pending count: 1
[DRAM_CYCLE_ERROR] Cycle-based error applied! address=0x105c0f4a8 additional_latency=173500 cycles
[ERROR_CYCLE] Error added at CPU cycle 383791855, next at 388594052, pending count: 1
[DRAM_CYCLE_ERROR] Cycle-based error applied! address=0x159164540 additional_latency=173500 cycles
Heartbeat CPU 0 instructions: 550000081 cycles: 384426474 heartbeat IPC: 1.407 cumulative IPC: 1.431 (Simulation time: 01 hr 05 min 44 sec)
[ERROR_CYCLE] Error added at CPU cycle 388594053, next at 446238065, pending count: 1
[DRAM_CYCLE_ERROR] Cycle-based error applied! address=0x12dbd8640 additional_latency=173500 cycles
Heartbeat CPU 0 instructions: 560000083 cycles: 391524141 heartbeat IPC: 1.409 cumulative IPC: 1.43 (Simulation time: 01 hr 07 min 03 sec)
Heartbeat CPU 0 instructions: 570000084 cycles: 398628097 heartbeat IPC: 1.408 cumulative IPC: 1.43 (Simulation time: 01 hr 08 min 22 sec)
Heartbeat CPU 0 instructions: 580000087 cycles: 405703770 heartbeat IPC: 1.413 cumulative IPC: 1.43 (Simulation time: 01 hr 09 min 41 sec)
Heartbeat CPU 0 instructions: 590000090 cycles: 412829115 heartbeat IPC: 1.403 cumulative IPC: 1.429 (Simulation time: 01 hr 11 min 01 sec)
Heartbeat CPU 0 instructions: 600000093 cycles: 419930133 heartbeat IPC: 1.408 cumulative IPC: 1.429 (Simulation time: 01 hr 12 min 20 sec)
Heartbeat CPU 0 instructions: 610000096 cycles: 427077809 heartbeat IPC: 1.399 cumulative IPC: 1.428 (Simulation time: 01 hr 13 min 39 sec)
Heartbeat CPU 0 instructions: 620000098 cycles: 434223633 heartbeat IPC: 1.399 cumulative IPC: 1.428 (Simulation time: 01 hr 14 min 59 sec)
Heartbeat CPU 0 instructions: 630000100 cycles: 441296365 heartbeat IPC: 1.414 cumulative IPC: 1.428 (Simulation time: 01 hr 16 min 18 sec)
[ERROR_CYCLE] Error added at CPU cycle 446238066, next at 454133415, pending count: 1
[DRAM_CYCLE_ERROR] Cycle-based error applied! address=0x7c6494dc0 additional_latency=173500 cycles
Heartbeat CPU 0 instructions: 640000100 cycles: 448352512 heartbeat IPC: 1.417 cumulative IPC: 1.427 (Simulation time: 01 hr 17 min 36 sec)
[ERROR_CYCLE] Error added at CPU cycle 454133415, next at 539692982, pending count: 1
[DRAM_CYCLE_ERROR] Cycle-based error applied! address=0x21d30af00 additional_latency=173500 cycles
Heartbeat CPU 0 instructions: 650000104 cycles: 455430381 heartbeat IPC: 1.413 cumulative IPC: 1.427 (Simulation time: 01 hr 18 min 54 sec)
Heartbeat CPU 0 instructions: 660000105 cycles: 462487552 heartbeat IPC: 1.417 cumulative IPC: 1.427 (Simulation time: 01 hr 20 min 13 sec)
Heartbeat CPU 0 instructions: 670000107 cycles: 469557093 heartbeat IPC: 1.415 cumulative IPC: 1.427 (Simulation time: 01 hr 21 min 32 sec)
Heartbeat CPU 0 instructions: 680000110 cycles: 476576280 heartbeat IPC: 1.425 cumulative IPC: 1.427 (Simulation time: 01 hr 22 min 52 sec)
Heartbeat CPU 0 instructions: 690000113 cycles: 483658077 heartbeat IPC: 1.412 cumulative IPC: 1.427 (Simulation time: 01 hr 24 min 07 sec)
Heartbeat CPU 0 instructions: 700000113 cycles: 490702705 heartbeat IPC: 1.42 cumulative IPC: 1.427 (Simulation time: 01 hr 25 min 06 sec)
Heartbeat CPU 0 instructions: 710000113 cycles: 497845763 heartbeat IPC: 1.4 cumulative IPC: 1.426 (Simulation time: 01 hr 26 min 08 sec)
Heartbeat CPU 0 instructions: 720000113 cycles: 504947303 heartbeat IPC: 1.408 cumulative IPC: 1.426 (Simulation time: 01 hr 27 min 27 sec)
Heartbeat CPU 0 instructions: 730000116 cycles: 512047447 heartbeat IPC: 1.408 cumulative IPC: 1.426 (Simulation time: 01 hr 28 min 46 sec)
Heartbeat CPU 0 instructions: 740000117 cycles: 519130730 heartbeat IPC: 1.412 cumulative IPC: 1.425 (Simulation time: 01 hr 30 min 06 sec)
Heartbeat CPU 0 instructions: 750000120 cycles: 526197764 heartbeat IPC: 1.415 cumulative IPC: 1.425 (Simulation time: 01 hr 31 min 25 sec)
Heartbeat CPU 0 instructions: 760000122 cycles: 533302538 heartbeat IPC: 1.408 cumulative IPC: 1.425 (Simulation time: 01 hr 32 min 45 sec)
[ERROR_CYCLE] Error added at CPU cycle 539692982, next at 551194342, pending count: 1
[DRAM_CYCLE_ERROR] Cycle-based error applied! address=0x24f5f3e80 additional_latency=173500 cycles
Heartbeat CPU 0 instructions: 770000124 cycles: 540388012 heartbeat IPC: 1.411 cumulative IPC: 1.425 (Simulation time: 01 hr 34 min 06 sec)
Heartbeat CPU 0 instructions: 780000124 cycles: 547461747 heartbeat IPC: 1.414 cumulative IPC: 1.425 (Simulation time: 01 hr 35 min 27 sec)
[ERROR_CYCLE] Error added at CPU cycle 551194342, next at 618463271, pending count: 1
[DRAM_CYCLE_ERROR] Cycle-based error applied! address=0x7e02fe600 additional_latency=173500 cycles
Heartbeat CPU 0 instructions: 790000124 cycles: 554591673 heartbeat IPC: 1.403 cumulative IPC: 1.424 (Simulation time: 01 hr 36 min 48 sec)
Heartbeat CPU 0 instructions: 800000127 cycles: 561799299 heartbeat IPC: 1.387 cumulative IPC: 1.424 (Simulation time: 01 hr 38 min 03 sec)
Heartbeat CPU 0 instructions: 810000127 cycles: 568859463 heartbeat IPC: 1.416 cumulative IPC: 1.424 (Simulation time: 01 hr 39 min 22 sec)
Heartbeat CPU 0 instructions: 820000128 cycles: 575944405 heartbeat IPC: 1.411 cumulative IPC: 1.424 (Simulation time: 01 hr 40 min 41 sec)
Heartbeat CPU 0 instructions: 830000130 cycles: 583020408 heartbeat IPC: 1.413 cumulative IPC: 1.424 (Simulation time: 01 hr 41 min 56 sec)
Heartbeat CPU 0 instructions: 840000130 cycles: 590104143 heartbeat IPC: 1.412 cumulative IPC: 1.423 (Simulation time: 01 hr 42 min 56 sec)
Heartbeat CPU 0 instructions: 850000134 cycles: 597176474 heartbeat IPC: 1.414 cumulative IPC: 1.423 (Simulation time: 01 hr 44 min 00 sec)
Heartbeat CPU 0 instructions: 860000138 cycles: 604249115 heartbeat IPC: 1.414 cumulative IPC: 1.423 (Simulation time: 01 hr 45 min 18 sec)
Heartbeat CPU 0 instructions: 870000138 cycles: 611348166 heartbeat IPC: 1.409 cumulative IPC: 1.423 (Simulation time: 01 hr 46 min 35 sec)
Heartbeat CPU 0 instructions: 880000140 cycles: 618459115 heartbeat IPC: 1.406 cumulative IPC: 1.423 (Simulation time: 01 hr 47 min 44 sec)
[ERROR_CYCLE] Error added at CPU cycle 618463271, next at 624429521, pending count: 1
[DRAM_CYCLE_ERROR] Cycle-based error applied! address=0x605df5040 additional_latency=173500 cycles
[ERROR_CYCLE] Error added at CPU cycle 624429521, next at 652969032, pending count: 1
[DRAM_CYCLE_ERROR] Cycle-based error applied! address=0x2fc0ab100 additional_latency=173500 cycles
Heartbeat CPU 0 instructions: 890000143 cycles: 625510786 heartbeat IPC: 1.418 cumulative IPC: 1.423 (Simulation time: 01 hr 48 min 59 sec)
Heartbeat CPU 0 instructions: 900000143 cycles: 632618180 heartbeat IPC: 1.407 cumulative IPC: 1.423 (Simulation time: 01 hr 50 min 11 sec)
Heartbeat CPU 0 instructions: 910000143 cycles: 639684346 heartbeat IPC: 1.415 cumulative IPC: 1.423 (Simulation time: 01 hr 51 min 13 sec)
Heartbeat CPU 0 instructions: 920000143 cycles: 646822045 heartbeat IPC: 1.401 cumulative IPC: 1.422 (Simulation time: 01 hr 52 min 18 sec)
[ERROR_CYCLE] Error added at CPU cycle 652969033, next at 657238516, pending count: 1
[DRAM_CYCLE_ERROR] Cycle-based error applied! address=0x5308a8a80 additional_latency=173500 cycles
Heartbeat CPU 0 instructions: 930000144 cycles: 653887053 heartbeat IPC: 1.415 cumulative IPC: 1.422 (Simulation time: 01 hr 53 min 26 sec)
[ERROR_CYCLE] Error added at CPU cycle 657238516, next at 663890677, pending count: 1
[DRAM_CYCLE_ERROR] Cycle-based error applied! address=0x693dcbb00 additional_latency=173500 cycles
Heartbeat CPU 0 instructions: 940000148 cycles: 660966914 heartbeat IPC: 1.412 cumulative IPC: 1.422 (Simulation time: 01 hr 54 min 46 sec)
[ERROR_CYCLE] Error added at CPU cycle 663890677, next at 693244034, pending count: 1
[DRAM_CYCLE_ERROR] Cycle-based error applied! address=0x4e579f540 additional_latency=173500 cycles
Heartbeat CPU 0 instructions: 950000149 cycles: 668100835 heartbeat IPC: 1.402 cumulative IPC: 1.422 (Simulation time: 01 hr 56 min 06 sec)
Heartbeat CPU 0 instructions: 960000152 cycles: 675191854 heartbeat IPC: 1.41 cumulative IPC: 1.422 (Simulation time: 01 hr 57 min 27 sec)
Heartbeat CPU 0 instructions: 970000152 cycles: 682285644 heartbeat IPC: 1.41 cumulative IPC: 1.422 (Simulation time: 01 hr 58 min 39 sec)
Heartbeat CPU 0 instructions: 980000156 cycles: 689369779 heartbeat IPC: 1.412 cumulative IPC: 1.422 (Simulation time: 01 hr 59 min 42 sec)
[ERROR_CYCLE] Error added at CPU cycle 693244035, next at 693408343, pending count: 1
[DRAM_CYCLE_ERROR] Cycle-based error applied! address=0x6a54bf080 additional_latency=173500 cycles
[ERROR_CYCLE] Error added at CPU cycle 693408343, next at 702111115, pending count: 1
[DRAM_CYCLE_ERROR] Cycle-based error applied! address=0x71dce8840 additional_latency=173500 cycles
Heartbeat CPU 0 instructions: 990000158 cycles: 696506272 heartbeat IPC: 1.401 cumulative IPC: 1.421 (Simulation time: 02 hr 00 min 37 sec)
[ERROR_CYCLE] Error added at CPU cycle 702111115, next at 707431038, pending count: 1
[DRAM_CYCLE_ERROR] Cycle-based error applied! address=0x6b72b57c0 additional_latency=173500 cycles
Heartbeat CPU 0 instructions: 1000000159 cycles: 703582874 heartbeat IPC: 1.413 cumulative IPC: 1.421 (Simulation time: 02 hr 01 min 33 sec)
[ERROR_CYCLE] Error added at CPU cycle 707431038, next at 717157141, pending count: 1
[DRAM_CYCLE_ERROR] Cycle-based error applied! address=0x4e3e79e80 additional_latency=173500 cycles
Heartbeat CPU 0 instructions: 1010000159 cycles: 710705747 heartbeat IPC: 1.404 cumulative IPC: 1.421 (Simulation time: 02 hr 02 min 31 sec)
[ERROR_CYCLE] Error added at CPU cycle 717157141, next at 719468166, pending count: 1
[DRAM_CYCLE_ERROR] Cycle-based error applied! address=0x7ce030140 additional_latency=173500 cycles
Heartbeat CPU 0 instructions: 1020000159 cycles: 717826451 heartbeat IPC: 1.404 cumulative IPC: 1.421 (Simulation time: 02 hr 03 min 36 sec)
[ERROR_CYCLE] Error added at CPU cycle 719468166, next at 729931125, pending count: 1
[DRAM_CYCLE_ERROR] Cycle-based error applied! address=0x6eed20c0 additional_latency=173500 cycles
Heartbeat CPU 0 instructions: 1030000161 cycles: 724859755 heartbeat IPC: 1.422 cumulative IPC: 1.421 (Simulation time: 02 hr 04 min 32 sec)
[ERROR_CYCLE] Error added at CPU cycle 729931125, next at 740327757, pending count: 1
[DRAM_CYCLE_ERROR] Cycle-based error applied! address=0x7e35f1e40 additional_latency=173500 cycles
Heartbeat CPU 0 instructions: 1040000161 cycles: 731968508 heartbeat IPC: 1.407 cumulative IPC: 1.421 (Simulation time: 02 hr 05 min 47 sec)
Heartbeat CPU 0 instructions: 1050000161 cycles: 739067820 heartbeat IPC: 1.409 cumulative IPC: 1.421 (Simulation time: 02 hr 07 min 07 sec)
[ERROR_CYCLE] Error added at CPU cycle 740327757, next at 769723378, pending count: 1
[DRAM_CYCLE_ERROR] Cycle-based error applied! address=0x27fd39a00 additional_latency=173500 cycles
Heartbeat CPU 0 instructions: 1060000165 cycles: 746162221 heartbeat IPC: 1.41 cumulative IPC: 1.421 (Simulation time: 02 hr 08 min 26 sec)
Heartbeat CPU 0 instructions: 1070000167 cycles: 753250184 heartbeat IPC: 1.411 cumulative IPC: 1.421 (Simulation time: 02 hr 09 min 45 sec)
Heartbeat CPU 0 instructions: 1080000169 cycles: 760398110 heartbeat IPC: 1.399 cumulative IPC: 1.42 (Simulation time: 02 hr 11 min 04 sec)
Heartbeat CPU 0 instructions: 1090000170 cycles: 767482681 heartbeat IPC: 1.412 cumulative IPC: 1.42 (Simulation time: 02 hr 12 min 23 sec)
[ERROR_CYCLE] Error added at CPU cycle 769723378, next at 806610107, pending count: 1
[DRAM_CYCLE_ERROR] Cycle-based error applied! address=0x3742f6600 additional_latency=173500 cycles
Heartbeat CPU 0 instructions: 1100000172 cycles: 774615047 heartbeat IPC: 1.402 cumulative IPC: 1.42 (Simulation time: 02 hr 13 min 42 sec)
Heartbeat CPU 0 instructions: 1110000176 cycles: 781692549 heartbeat IPC: 1.413 cumulative IPC: 1.42 (Simulation time: 02 hr 15 min 02 sec)
Heartbeat CPU 0 instructions: 1120000177 cycles: 788850409 heartbeat IPC: 1.397 cumulative IPC: 1.42 (Simulation time: 02 hr 16 min 18 sec)
Heartbeat CPU 0 instructions: 1130000178 cycles: 795938876 heartbeat IPC: 1.411 cumulative IPC: 1.42 (Simulation time: 02 hr 17 min 20 sec)
Heartbeat CPU 0 instructions: 1140000182 cycles: 803047071 heartbeat IPC: 1.407 cumulative IPC: 1.42 (Simulation time: 02 hr 18 min 24 sec)
[ERROR_CYCLE] Error added at CPU cycle 806610107, next at 816598203, pending count: 1
[DRAM_CYCLE_ERROR] Cycle-based error applied! address=0x1db5d3e40 additional_latency=173500 cycles
Heartbeat CPU 0 instructions: 1150000184 cycles: 810133200 heartbeat IPC: 1.411 cumulative IPC: 1.42 (Simulation time: 02 hr 19 min 27 sec)
[ERROR_CYCLE] Error added at CPU cycle 816598204, next at 829157728, pending count: 1
[DRAM_CYCLE_ERROR] Cycle-based error applied! address=0x44fb59900 additional_latency=173500 cycles
Heartbeat CPU 0 instructions: 1160000186 cycles: 817174492 heartbeat IPC: 1.42 cumulative IPC: 1.42 (Simulation time: 02 hr 20 min 34 sec)
Heartbeat CPU 0 instructions: 1170000186 cycles: 824233526 heartbeat IPC: 1.417 cumulative IPC: 1.42 (Simulation time: 02 hr 21 min 52 sec)
[ERROR_CYCLE] Error added at CPU cycle 829157728, next at 831354542, pending count: 1
[DRAM_CYCLE_ERROR] Cycle-based error applied! address=0x4d2608540 additional_latency=173500 cycles
[ERROR_CYCLE] Error added at CPU cycle 831354542, next at 835587951, pending count: 1
[DRAM_CYCLE_ERROR] Cycle-based error applied! address=0x63dc5f340 additional_latency=173500 cycles
Heartbeat CPU 0 instructions: 1180000188 cycles: 831417406 heartbeat IPC: 1.392 cumulative IPC: 1.419 (Simulation time: 02 hr 23 min 11 sec)
[ERROR_CYCLE] Error added at CPU cycle 835587951, next at 857924333, pending count: 1
[DRAM_CYCLE_ERROR] Cycle-based error applied! address=0x1fd637340 additional_latency=173500 cycles
Heartbeat CPU 0 instructions: 1190000188 cycles: 838426762 heartbeat IPC: 1.427 cumulative IPC: 1.419 (Simulation time: 02 hr 24 min 29 sec)
Heartbeat CPU 0 instructions: 1200000188 cycles: 845519148 heartbeat IPC: 1.41 cumulative IPC: 1.419 (Simulation time: 02 hr 25 min 47 sec)
Heartbeat CPU 0 instructions: 1210000190 cycles: 852590816 heartbeat IPC: 1.414 cumulative IPC: 1.419 (Simulation time: 02 hr 27 min 05 sec)
[ERROR_CYCLE] Error added at CPU cycle 857924334, next at 870797452, pending count: 1
[DRAM_CYCLE_ERROR] Cycle-based error applied! address=0x6aef25000 additional_latency=173500 cycles
Heartbeat CPU 0 instructions: 1220000192 cycles: 859688830 heartbeat IPC: 1.409 cumulative IPC: 1.419 (Simulation time: 02 hr 28 min 21 sec)
Heartbeat CPU 0 instructions: 1230000192 cycles: 866756536 heartbeat IPC: 1.415 cumulative IPC: 1.419 (Simulation time: 02 hr 29 min 38 sec)
[ERROR_CYCLE] Error added at CPU cycle 870797452, next at 903141115, pending count: 1
[DRAM_CYCLE_ERROR] Cycle-based error applied! address=0x5db8a8880 additional_latency=173500 cycles
Heartbeat CPU 0 instructions: 1240000192 cycles: 873852141 heartbeat IPC: 1.409 cumulative IPC: 1.419 (Simulation time: 02 hr 30 min 54 sec)
Heartbeat CPU 0 instructions: 1250000192 cycles: 880967672 heartbeat IPC: 1.405 cumulative IPC: 1.419 (Simulation time: 02 hr 32 min 11 sec)
Heartbeat CPU 0 instructions: 1260000194 cycles: 888077134 heartbeat IPC: 1.407 cumulative IPC: 1.419 (Simulation time: 02 hr 33 min 23 sec)
Heartbeat CPU 0 instructions: 1270000195 cycles: 895268133 heartbeat IPC: 1.391 cumulative IPC: 1.419 (Simulation time: 02 hr 34 min 21 sec)
Heartbeat CPU 0 instructions: 1280000195 cycles: 902307921 heartbeat IPC: 1.42 cumulative IPC: 1.419 (Simulation time: 02 hr 35 min 30 sec)
[ERROR_CYCLE] Error added at CPU cycle 903141115, next at 908832379, pending count: 1
[DRAM_CYCLE_ERROR] Cycle-based error applied! address=0x1d4408ac0 additional_latency=173500 cycles
[ERROR_CYCLE] Error added at CPU cycle 908832379, next at 935886573, pending count: 1
[DRAM_CYCLE_ERROR] Cycle-based error applied! address=0x17252d740 additional_latency=173500 cycles
Heartbeat CPU 0 instructions: 1290000197 cycles: 909421004 heartbeat IPC: 1.406 cumulative IPC: 1.418 (Simulation time: 02 hr 36 min 40 sec)
Heartbeat CPU 0 instructions: 1300000200 cycles: 916527306 heartbeat IPC: 1.407 cumulative IPC: 1.418 (Simulation time: 02 hr 38 min 00 sec)
Heartbeat CPU 0 instructions: 1310000200 cycles: 923570518 heartbeat IPC: 1.42 cumulative IPC: 1.418 (Simulation time: 02 hr 39 min 18 sec)
Heartbeat CPU 0 instructions: 1320000203 cycles: 930694562 heartbeat IPC: 1.404 cumulative IPC: 1.418 (Simulation time: 02 hr 40 min 38 sec)
[ERROR_CYCLE] Error added at CPU cycle 935886573, next at 958300697, pending count: 1
[DRAM_CYCLE_ERROR] Cycle-based error applied! address=0x1f1951480 additional_latency=173500 cycles
Heartbeat CPU 0 instructions: 1330000204 cycles: 937752664 heartbeat IPC: 1.417 cumulative IPC: 1.418 (Simulation time: 02 hr 41 min 57 sec)
Heartbeat CPU 0 instructions: 1340000207 cycles: 944808229 heartbeat IPC: 1.417 cumulative IPC: 1.418 (Simulation time: 02 hr 43 min 17 sec)
Heartbeat CPU 0 instructions: 1350000209 cycles: 951936559 heartbeat IPC: 1.403 cumulative IPC: 1.418 (Simulation time: 02 hr 44 min 34 sec)
[ERROR_CYCLE] Error added at CPU cycle 958300698, next at 979637607, pending count: 1
[DRAM_CYCLE_ERROR] Cycle-based error applied! address=0x53b5b4200 additional_latency=173500 cycles
Heartbeat CPU 0 instructions: 1360000211 cycles: 959160163 heartbeat IPC: 1.384 cumulative IPC: 1.418 (Simulation time: 02 hr 45 min 51 sec)
Heartbeat CPU 0 instructions: 1370000214 cycles: 966257654 heartbeat IPC: 1.409 cumulative IPC: 1.418 (Simulation time: 02 hr 47 min 07 sec)
Heartbeat CPU 0 instructions: 1380000215 cycles: 973363365 heartbeat IPC: 1.407 cumulative IPC: 1.418 (Simulation time: 02 hr 48 min 24 sec)
[ERROR_CYCLE] Error added at CPU cycle 979637607, next at 984398776, pending count: 1
[DRAM_CYCLE_ERROR] Cycle-based error applied! address=0x40c1db040 additional_latency=173500 cycles
Heartbeat CPU 0 instructions: 1390000219 cycles: 980437526 heartbeat IPC: 1.414 cumulative IPC: 1.418 (Simulation time: 02 hr 49 min 40 sec)
[ERROR_CYCLE] Error added at CPU cycle 984398776, next at 1002210124, pending count: 1
[DRAM_CYCLE_ERROR] Cycle-based error applied! address=0xabee3d00 additional_latency=173500 cycles
Heartbeat CPU 0 instructions: 1400000220 cycles: 987571015 heartbeat IPC: 1.402 cumulative IPC: 1.418 (Simulation time: 02 hr 50 min 58 sec)
Heartbeat CPU 0 instructions: 1410000220 cycles: 994663644 heartbeat IPC: 1.41 cumulative IPC: 1.418 (Simulation time: 02 hr 52 min 17 sec)
Heartbeat CPU 0 instructions: 1420000220 cycles: 1001761480 heartbeat IPC: 1.409 cumulative IPC: 1.418 (Simulation time: 02 hr 53 min 36 sec)
[ERROR_CYCLE] Error added at CPU cycle 1002210124, next at 1032827874, pending count: 1
[DRAM_CYCLE_ERROR] Cycle-based error applied! address=0x38080ed0 additional_latency=173500 cycles
Heartbeat CPU 0 instructions: 1430000223 cycles: 1008810930 heartbeat IPC: 1.419 cumulative IPC: 1.418 (Simulation time: 02 hr 54 min 54 sec)
Heartbeat CPU 0 instructions: 1440000227 cycles: 1015862938 heartbeat IPC: 1.418 cumulative IPC: 1.418 (Simulation time: 02 hr 56 min 13 sec)
Heartbeat CPU 0 instructions: 1450000228 cycles: 1022921624 heartbeat IPC: 1.417 cumulative IPC: 1.418 (Simulation time: 02 hr 57 min 32 sec)
Heartbeat CPU 0 instructions: 1460000232 cycles: 1030105605 heartbeat IPC: 1.392 cumulative IPC: 1.417 (Simulation time: 02 hr 58 min 52 sec)
[ERROR_CYCLE] Error added at CPU cycle 1032827875, next at 1046516285, pending count: 1
[DRAM_CYCLE_ERROR] Cycle-based error applied! address=0x7d2aac80 additional_latency=173500 cycles
Heartbeat CPU 0 instructions: 1470000235 cycles: 1037251081 heartbeat IPC: 1.399 cumulative IPC: 1.417 (Simulation time: 03 hr 00 min 05 sec)
Heartbeat CPU 0 instructions: 1480000237 cycles: 1044354397 heartbeat IPC: 1.408 cumulative IPC: 1.417 (Simulation time: 03 hr 01 min 16 sec)
[ERROR_CYCLE] Error added at CPU cycle 1046516285, next at 1048641051, pending count: 1
[DRAM_CYCLE_ERROR] Cycle-based error applied! address=0x1ec48a7c0 additional_latency=173500 cycles
[ERROR_CYCLE] Error added at CPU cycle 1048641052, next at 1090842597, pending count: 1
[DRAM_CYCLE_ERROR] Cycle-based error applied! address=0x32f247140 additional_latency=173500 cycles
Heartbeat CPU 0 instructions: 1490000240 cycles: 1051424563 heartbeat IPC: 1.414 cumulative IPC: 1.417 (Simulation time: 03 hr 02 min 36 sec)
Heartbeat CPU 0 instructions: 1500000240 cycles: 1058509506 heartbeat IPC: 1.411 cumulative IPC: 1.417 (Simulation time: 03 hr 03 min 56 sec)
Heartbeat CPU 0 instructions: 1510000242 cycles: 1065560286 heartbeat IPC: 1.418 cumulative IPC: 1.417 (Simulation time: 03 hr 05 min 15 sec)
Heartbeat CPU 0 instructions: 1520000243 cycles: 1072599803 heartbeat IPC: 1.421 cumulative IPC: 1.417 (Simulation time: 03 hr 06 min 35 sec)
Heartbeat CPU 0 instructions: 1530000243 cycles: 1079649411 heartbeat IPC: 1.419 cumulative IPC: 1.417 (Simulation time: 03 hr 07 min 55 sec)
Heartbeat CPU 0 instructions: 1540000243 cycles: 1086776948 heartbeat IPC: 1.403 cumulative IPC: 1.417 (Simulation time: 03 hr 09 min 08 sec)
[ERROR_CYCLE] Error added at CPU cycle 1090842598, next at 1110023097, pending count: 1
[DRAM_CYCLE_ERROR] Cycle-based error applied! address=0x739ab3ac0 additional_latency=173500 cycles
Heartbeat CPU 0 instructions: 1550000247 cycles: 1094041366 heartbeat IPC: 1.377 cumulative IPC: 1.417 (Simulation time: 03 hr 10 min 16 sec)
Heartbeat CPU 0 instructions: 1560000250 cycles: 1101078528 heartbeat IPC: 1.421 cumulative IPC: 1.417 (Simulation time: 03 hr 11 min 35 sec)
Heartbeat CPU 0 instructions: 1570000251 cycles: 1108136894 heartbeat IPC: 1.417 cumulative IPC: 1.417 (Simulation time: 03 hr 12 min 54 sec)
[ERROR_CYCLE] Error added at CPU cycle 1110023098, next at 1133414207, pending count: 1
[DRAM_CYCLE_ERROR] Cycle-based error applied! address=0x2ad3d0d40 additional_latency=173500 cycles
Heartbeat CPU 0 instructions: 1580000254 cycles: 1115194515 heartbeat IPC: 1.417 cumulative IPC: 1.417 (Simulation time: 03 hr 14 min 13 sec)
Heartbeat CPU 0 instructions: 1590000255 cycles: 1122289970 heartbeat IPC: 1.409 cumulative IPC: 1.417 (Simulation time: 03 hr 15 min 31 sec)
Heartbeat CPU 0 instructions: 1600000256 cycles: 1129412392 heartbeat IPC: 1.404 cumulative IPC: 1.417 (Simulation time: 03 hr 16 min 42 sec)
[ERROR_CYCLE] Error added at CPU cycle 1133414207, next at 1204668974, pending count: 1
[DRAM_CYCLE_ERROR] Cycle-based error applied! address=0x70595a880 additional_latency=173500 cycles
Heartbeat CPU 0 instructions: 1610000257 cycles: 1136471408 heartbeat IPC: 1.417 cumulative IPC: 1.417 (Simulation time: 03 hr 17 min 59 sec)
Heartbeat CPU 0 instructions: 1620000257 cycles: 1143560098 heartbeat IPC: 1.411 cumulative IPC: 1.417 (Simulation time: 03 hr 19 min 20 sec)
Heartbeat CPU 0 instructions: 1630000261 cycles: 1150664127 heartbeat IPC: 1.408 cumulative IPC: 1.417 (Simulation time: 03 hr 20 min 37 sec)
Heartbeat CPU 0 instructions: 1640000264 cycles: 1157878263 heartbeat IPC: 1.386 cumulative IPC: 1.416 (Simulation time: 03 hr 21 min 59 sec)
Heartbeat CPU 0 instructions: 1650000265 cycles: 1164934171 heartbeat IPC: 1.417 cumulative IPC: 1.416 (Simulation time: 03 hr 23 min 11 sec)
Heartbeat CPU 0 instructions: 1660000266 cycles: 1172006509 heartbeat IPC: 1.414 cumulative IPC: 1.416 (Simulation time: 03 hr 24 min 28 sec)
Heartbeat CPU 0 instructions: 1670000266 cycles: 1179041122 heartbeat IPC: 1.422 cumulative IPC: 1.416 (Simulation time: 03 hr 25 min 47 sec)
Heartbeat CPU 0 instructions: 1680000268 cycles: 1186110792 heartbeat IPC: 1.414 cumulative IPC: 1.416 (Simulation time: 03 hr 27 min 06 sec)
Heartbeat CPU 0 instructions: 1690000272 cycles: 1193209606 heartbeat IPC: 1.409 cumulative IPC: 1.416 (Simulation time: 03 hr 28 min 17 sec)
Heartbeat CPU 0 instructions: 1700000275 cycles: 1200300132 heartbeat IPC: 1.41 cumulative IPC: 1.416 (Simulation time: 03 hr 29 min 10 sec)
[ERROR_CYCLE] Error added at CPU cycle 1204668974, next at 1215603388, pending count: 1
[DRAM_CYCLE_ERROR] Cycle-based error applied! address=0x605aea900 additional_latency=173500 cycles
Heartbeat CPU 0 instructions: 1710000278 cycles: 1207446709 heartbeat IPC: 1.399 cumulative IPC: 1.416 (Simulation time: 03 hr 30 min 25 sec)
Heartbeat CPU 0 instructions: 1720000279 cycles: 1214549578 heartbeat IPC: 1.408 cumulative IPC: 1.416 (Simulation time: 03 hr 31 min 42 sec)
[ERROR_CYCLE] Error added at CPU cycle 1215603389, next at 1217087080, pending count: 1
[DRAM_CYCLE_ERROR] Cycle-based error applied! address=0x400256240 additional_latency=173500 cycles
[ERROR_CYCLE] Error added at CPU cycle 1217087081, next at 1221310176, pending count: 1
[DRAM_CYCLE_ERROR] Cycle-based error applied! address=0x2120dd640 additional_latency=173500 cycles
[ERROR_CYCLE] Error added at CPU cycle 1221310177, next at 1226438693, pending count: 1
[DRAM_CYCLE_ERROR] Cycle-based error applied! address=0x44c7ccf80 additional_latency=173500 cycles
Heartbeat CPU 0 instructions: 1730000283 cycles: 1221647736 heartbeat IPC: 1.409 cumulative IPC: 1.416 (Simulation time: 03 hr 33 min 00 sec)
[ERROR_CYCLE] Error added at CPU cycle 1226438693, next at 1227461842, pending count: 1
[DRAM_CYCLE_ERROR] Cycle-based error applied! address=0x731137c88 additional_latency=173500 cycles
[ERROR_CYCLE] Error added at CPU cycle 1227461842, next at 1231373065, pending count: 1
[DRAM_CYCLE_ERROR] Cycle-based error applied! address=0x455144a40 additional_latency=173500 cycles
Heartbeat CPU 0 instructions: 1740000286 cycles: 1228833868 heartbeat IPC: 1.392 cumulative IPC: 1.416 (Simulation time: 03 hr 34 min 18 sec)
[ERROR_CYCLE] Error added at CPU cycle 1231373065, next at 1247660783, pending count: 1
[DRAM_CYCLE_ERROR] Cycle-based error applied! address=0x7428b9f40 additional_latency=173500 cycles
Heartbeat CPU 0 instructions: 1750000286 cycles: 1235917087 heartbeat IPC: 1.412 cumulative IPC: 1.416 (Simulation time: 03 hr 35 min 36 sec)
Heartbeat CPU 0 instructions: 1760000286 cycles: 1242999163 heartbeat IPC: 1.412 cumulative IPC: 1.416 (Simulation time: 03 hr 36 min 53 sec)
[ERROR_CYCLE] Error added at CPU cycle 1247660783, next at 1311009174, pending count: 1
[DRAM_CYCLE_ERROR] Cycle-based error applied! address=0x1d882e740 additional_latency=173500 cycles
Heartbeat CPU 0 instructions: 1770000287 cycles: 1250067939 heartbeat IPC: 1.415 cumulative IPC: 1.416 (Simulation time: 03 hr 38 min 10 sec)
Heartbeat CPU 0 instructions: 1780000288 cycles: 1257124631 heartbeat IPC: 1.417 cumulative IPC: 1.416 (Simulation time: 03 hr 39 min 27 sec)
Heartbeat CPU 0 instructions: 1790000289 cycles: 1264165723 heartbeat IPC: 1.42 cumulative IPC: 1.416 (Simulation time: 03 hr 40 min 45 sec)
Heartbeat CPU 0 instructions: 1800000292 cycles: 1271302184 heartbeat IPC: 1.401 cumulative IPC: 1.416 (Simulation time: 03 hr 42 min 03 sec)
Heartbeat CPU 0 instructions: 1810000294 cycles: 1278429603 heartbeat IPC: 1.403 cumulative IPC: 1.416 (Simulation time: 03 hr 43 min 20 sec)
Heartbeat CPU 0 instructions: 1820000296 cycles: 1285477780 heartbeat IPC: 1.419 cumulative IPC: 1.416 (Simulation time: 03 hr 44 min 38 sec)
Heartbeat CPU 0 instructions: 1830000296 cycles: 1292700658 heartbeat IPC: 1.384 cumulative IPC: 1.416 (Simulation time: 03 hr 45 min 56 sec)
Heartbeat CPU 0 instructions: 1840000299 cycles: 1299789341 heartbeat IPC: 1.411 cumulative IPC: 1.416 (Simulation time: 03 hr 47 min 14 sec)
Heartbeat CPU 0 instructions: 1850000301 cycles: 1306891970 heartbeat IPC: 1.408 cumulative IPC: 1.416 (Simulation time: 03 hr 48 min 31 sec)
[ERROR_CYCLE] Error added at CPU cycle 1311009175, next at 1370592850, pending count: 1
[DRAM_CYCLE_ERROR] Cycle-based error applied! address=0x3a19fb280 additional_latency=173500 cycles
Heartbeat CPU 0 instructions: 1860000305 cycles: 1314012556 heartbeat IPC: 1.404 cumulative IPC: 1.416 (Simulation time: 03 hr 49 min 48 sec)
Heartbeat CPU 0 instructions: 1870000309 cycles: 1321073017 heartbeat IPC: 1.416 cumulative IPC: 1.416 (Simulation time: 03 hr 51 min 06 sec)
Heartbeat CPU 0 instructions: 1880000312 cycles: 1328104146 heartbeat IPC: 1.422 cumulative IPC: 1.416 (Simulation time: 03 hr 52 min 25 sec)
Heartbeat CPU 0 instructions: 1890000313 cycles: 1335152929 heartbeat IPC: 1.419 cumulative IPC: 1.416 (Simulation time: 03 hr 53 min 44 sec)
Heartbeat CPU 0 instructions: 1900000316 cycles: 1342242218 heartbeat IPC: 1.411 cumulative IPC: 1.416 (Simulation time: 03 hr 55 min 04 sec)
Heartbeat CPU 0 instructions: 1910000320 cycles: 1349382458 heartbeat IPC: 1.401 cumulative IPC: 1.415 (Simulation time: 03 hr 56 min 24 sec)
Heartbeat CPU 0 instructions: 1920000320 cycles: 1356540376 heartbeat IPC: 1.397 cumulative IPC: 1.415 (Simulation time: 03 hr 57 min 44 sec)
Heartbeat CPU 0 instructions: 1930000323 cycles: 1363606614 heartbeat IPC: 1.415 cumulative IPC: 1.415 (Simulation time: 03 hr 59 min 04 sec)
[ERROR_CYCLE] Error added at CPU cycle 1370592850, next at 1384134719, pending count: 1
[DRAM_CYCLE_ERROR] Cycle-based error applied! address=0x2a4356340 additional_latency=173500 cycles
Heartbeat CPU 0 instructions: 1940000323 cycles: 1370686238 heartbeat IPC: 1.413 cumulative IPC: 1.415 (Simulation time: 04 hr 00 min 23 sec)
Heartbeat CPU 0 instructions: 1950000323 cycles: 1377750071 heartbeat IPC: 1.416 cumulative IPC: 1.415 (Simulation time: 04 hr 01 min 42 sec)
[ERROR_CYCLE] Error added at CPU cycle 1384134720, next at 1387121723, pending count: 1
[DRAM_CYCLE_ERROR] Cycle-based error applied! address=0x525552a80 additional_latency=173500 cycles
Heartbeat CPU 0 instructions: 1960000324 cycles: 1384796201 heartbeat IPC: 1.419 cumulative IPC: 1.415 (Simulation time: 04 hr 02 min 57 sec)
[ERROR_CYCLE] Error added at CPU cycle 1387121723, next at 1393135226, pending count: 1
[DRAM_CYCLE_ERROR] Cycle-based error applied! address=0x642be12e8 additional_latency=173500 cycles
Heartbeat CPU 0 instructions: 1970000328 cycles: 1391882017 heartbeat IPC: 1.411 cumulative IPC: 1.415 (Simulation time: 04 hr 04 min 10 sec)
[ERROR_CYCLE] Error added at CPU cycle 1393135226, next at 1410245518, pending count: 1
[DRAM_CYCLE_ERROR] Cycle-based error applied! address=0x316cf83c0 additional_latency=173500 cycles
Heartbeat CPU 0 instructions: 1980000332 cycles: 1398970336 heartbeat IPC: 1.411 cumulative IPC: 1.415 (Simulation time: 04 hr 05 min 30 sec)
Heartbeat CPU 0 instructions: 1990000335 cycles: 1406076589 heartbeat IPC: 1.407 cumulative IPC: 1.415 (Simulation time: 04 hr 06 min 50 sec)
[ERROR_CYCLE] Error added at CPU cycle 1410245519, next at 1495091885, pending count: 1
[DRAM_CYCLE_ERROR] Cycle-based error applied! address=0x5780bfa40 additional_latency=173500 cycles

=== ERROR PAGE STATISTICS ===
Mode: CYCLE
Error Cycle Interval: 20000000 CPU cycles
Total Error Accesses: 72
==============================
Simulation finished CPU 0 instructions: 1999999510 cycles: 1413200757 cumulative IPC: 1.415 (Simulation time: 04 hr 08 min 10 sec)
Simulation complete CPU 0 instructions: 1999999510 cycles: 1413200757 cumulative IPC: 1.415 (Simulation time: 04 hr 08 min 10 sec)

ChampSim completed all CPUs

=== Simulation ===
CPU 0 runs test_traces/607.cactuBSSN_s-2421B.champsimtrace.xz

Region of Interest Statistics

CPU 0 cumulative IPC: 1.415 instructions: 1999999510 cycles: 1413200757
CPU 0 Branch Prediction Accuracy: 98.41% MPKI: 0.0223 Average ROB Occupancy at Mispredict: 325.4
Branch type MPKI
BRANCH_DIRECT_JUMP: 3.4e-05
BRANCH_INDIRECT: 4.45e-05
BRANCH_CONDITIONAL: 0.0122
BRANCH_DIRECT_CALL: 0.000332
BRANCH_INDIRECT_CALL: 1.5e-06
BRANCH_RETURN: 0.009687

cpu0->cpu0_STLB TOTAL        ACCESS:  148903346 HIT:  148663291 MISS:     240055 MSHR_MERGE:          0
cpu0->cpu0_STLB LOAD         ACCESS:  148903346 HIT:  148663291 MISS:     240055 MSHR_MERGE:          0
cpu0->cpu0_STLB RFO          ACCESS:          0 HIT:          0 MISS:          0 MSHR_MERGE:          0
cpu0->cpu0_STLB PREFETCH     ACCESS:          0 HIT:          0 MISS:          0 MSHR_MERGE:          0
cpu0->cpu0_STLB WRITE        ACCESS:          0 HIT:          0 MISS:          0 MSHR_MERGE:          0
cpu0->cpu0_STLB TRANSLATION  ACCESS:          0 HIT:          0 MISS:          0 MSHR_MERGE:          0
cpu0->cpu0_STLB PREFETCH REQUESTED:          0 ISSUED:          0 USEFUL:          0 USELESS:          0
cpu0->cpu0_STLB AVERAGE MISS LATENCY: 359.5 cycles
cpu0->cpu0_L2C TOTAL        ACCESS:  251289168 HIT:  226390651 MISS:   24898517 MSHR_MERGE:          0
cpu0->cpu0_L2C LOAD         ACCESS:  217208689 HIT:  193165553 MISS:   24043136 MSHR_MERGE:          0
cpu0->cpu0_L2C RFO          ACCESS:   16163569 HIT:   15308314 MISS:     855255 MSHR_MERGE:          0
cpu0->cpu0_L2C PREFETCH     ACCESS:          0 HIT:          0 MISS:          0 MSHR_MERGE:          0
cpu0->cpu0_L2C WRITE        ACCESS:   17916910 HIT:   17916784 MISS:        126 MSHR_MERGE:          0
cpu0->cpu0_L2C TRANSLATION  ACCESS:          0 HIT:          0 MISS:          0 MSHR_MERGE:          0
cpu0->cpu0_L2C PREFETCH REQUESTED:          0 ISSUED:          0 USEFUL:          0 USELESS:          0
cpu0->cpu0_L2C AVERAGE MISS LATENCY: 82.01 cycles
cpu0->cpu0_L1I TOTAL        ACCESS:  406935905 HIT:  404289392 MISS:    2646513 MSHR_MERGE:    1296370
cpu0->cpu0_L1I LOAD         ACCESS:  406935905 HIT:  404289392 MISS:    2646513 MSHR_MERGE:    1296370
cpu0->cpu0_L1I RFO          ACCESS:          0 HIT:          0 MISS:          0 MSHR_MERGE:          0
cpu0->cpu0_L1I PREFETCH     ACCESS:          0 HIT:          0 MISS:          0 MSHR_MERGE:          0
cpu0->cpu0_L1I WRITE        ACCESS:          0 HIT:          0 MISS:          0 MSHR_MERGE:          0
cpu0->cpu0_L1I TRANSLATION  ACCESS:          0 HIT:          0 MISS:          0 MSHR_MERGE:          0
cpu0->cpu0_L1I PREFETCH REQUESTED:          0 ISSUED:          0 USEFUL:          0 USELESS:          0
cpu0->cpu0_L1I AVERAGE MISS LATENCY: 7.259 cycles
cpu0->cpu0_L1D TOTAL        ACCESS:  640906744 HIT:  369555963 MISS:  271350781 MSHR_MERGE:   38772441
cpu0->cpu0_L1D LOAD         ACCESS:  414156203 HIT:  160511292 MISS:  253644911 MSHR_MERGE:   37237472
cpu0->cpu0_L1D RFO          ACCESS:          0 HIT:          0 MISS:          0 MSHR_MERGE:          0
cpu0->cpu0_L1D PREFETCH     ACCESS:          0 HIT:          0 MISS:          0 MSHR_MERGE:          0
cpu0->cpu0_L1D WRITE        ACCESS:  226750541 HIT:  209044671 MISS:   17705870 MSHR_MERGE:    1534969
cpu0->cpu0_L1D TRANSLATION  ACCESS:          0 HIT:          0 MISS:          0 MSHR_MERGE:          0
cpu0->cpu0_L1D PREFETCH REQUESTED:          0 ISSUED:          0 USEFUL:          0 USELESS:          0
cpu0->cpu0_L1D AVERAGE MISS LATENCY: 17.55 cycles
cpu0->cpu0_ITLB TOTAL        ACCESS:  335216309 HIT:  335216099 MISS:        210 MSHR_MERGE:        134
cpu0->cpu0_ITLB LOAD         ACCESS:  335216309 HIT:  335216099 MISS:        210 MSHR_MERGE:        134
cpu0->cpu0_ITLB RFO          ACCESS:          0 HIT:          0 MISS:          0 MSHR_MERGE:          0
cpu0->cpu0_ITLB PREFETCH     ACCESS:          0 HIT:          0 MISS:          0 MSHR_MERGE:          0
cpu0->cpu0_ITLB WRITE        ACCESS:          0 HIT:          0 MISS:          0 MSHR_MERGE:          0
cpu0->cpu0_ITLB TRANSLATION  ACCESS:          0 HIT:          0 MISS:          0 MSHR_MERGE:          0
cpu0->cpu0_ITLB PREFETCH REQUESTED:          0 ISSUED:          0 USEFUL:          0 USELESS:          0
cpu0->cpu0_ITLB AVERAGE MISS LATENCY: 600.6 cycles
cpu0->cpu0_DTLB TOTAL        ACCESS:  541435953 HIT:  342339522 MISS:  199096431 MSHR_MERGE:   50193160
cpu0->cpu0_DTLB LOAD         ACCESS:  541435953 HIT:  342339522 MISS:  199096431 MSHR_MERGE:   50193160
cpu0->cpu0_DTLB RFO          ACCESS:          0 HIT:          0 MISS:          0 MSHR_MERGE:          0
cpu0->cpu0_DTLB PREFETCH     ACCESS:          0 HIT:          0 MISS:          0 MSHR_MERGE:          0
cpu0->cpu0_DTLB WRITE        ACCESS:          0 HIT:          0 MISS:          0 MSHR_MERGE:          0
cpu0->cpu0_DTLB TRANSLATION  ACCESS:          0 HIT:          0 MISS:          0 MSHR_MERGE:          0
cpu0->cpu0_DTLB PREFETCH REQUESTED:          0 ISSUED:          0 USEFUL:          0 USELESS:          0
cpu0->cpu0_DTLB AVERAGE MISS LATENCY: 5.708 cycles
cpu0->LLC TOTAL        ACCESS:   27391824 HIT:   12266646 MISS:   15125178 MSHR_MERGE:          0
cpu0->LLC LOAD         ACCESS:   24043123 HIT:    8949992 MISS:   15093131 MSHR_MERGE:          0
cpu0->LLC RFO          ACCESS:     848868 HIT:     818249 MISS:      30619 MSHR_MERGE:          0
cpu0->LLC PREFETCH     ACCESS:          0 HIT:          0 MISS:          0 MSHR_MERGE:          0
cpu0->LLC WRITE        ACCESS:    2499833 HIT:    2498405 MISS:       1428 MSHR_MERGE:          0
cpu0->LLC TRANSLATION  ACCESS:          0 HIT:          0 MISS:          0 MSHR_MERGE:          0
cpu0->LLC PREFETCH REQUESTED:          0 ISSUED:          0 USEFUL:          0 USELESS:          0
cpu0->LLC AVERAGE MISS LATENCY: 109.3 cycles

DRAM Statistics

Channel 0 RQ ROW_BUFFER_HIT:       1186
  ROW_BUFFER_MISS:    7867176
  AVG DBUS CONGESTED CYCLE: 9.332
Channel 0 WQ ROW_BUFFER_HIT:     207493
  ROW_BUFFER_MISS:     737417
  FULL:          0
Channel 0 REFRESHES ISSUED:     117759

Channel 1 RQ ROW_BUFFER_HIT:       1330
  ROW_BUFFER_MISS:    7865985
  AVG DBUS CONGESTED CYCLE: 9.334
Channel 1 WQ ROW_BUFFER_HIT:     208305
  ROW_BUFFER_MISS:     736701
  FULL:          0
Channel 1 REFRESHES ISSUED:     117759
