
*** ChampSim Multicore Out-of-Order Simulator ***
Warmup Instructions: 0
Simulation Instructions: 9223372036854775807
Number of CPUs: 1
Page size: 2097152

Off-chip DRAM Size: 64 GiB Channels: 2 Width: 32-bit Data Rate: 4807 MT/s
[ERROR_PAGE_MANAGER] Error latency: 1990500 
[ERROR_PAGE_MANAGER] Random seed: 54321 (fixed for preload reproducibility)
[ERROR_PAGE_MANAGER] Cycle-based error modeling enabled
[ERROR_PAGE_MANAGER] Errors per interval: 1
[ERROR_PAGE_MANAGER] Error cycle interval: 100000000 cycles

=== ERROR PAGE STATISTICS ===
Mode: CYCLE
Error Cycle Interval: 100000000 CPU cycles
Total Error Accesses: 0
==============================
Warmup finished CPU 0 instructions: 0 cycles: 1 cumulative IPC: 0 (Simulation time: 00 hr 00 min 00 sec)
Warmup complete CPU 0 instructions: 0 cycles: 1 cumulative IPC: 0 (Simulation time: 00 hr 00 min 00 sec)
Heartbeat CPU 0 instructions: 10000003 cycles: 8703863 heartbeat IPC: 1.149 cumulative IPC: 1.149 (Simulation time: 00 hr 01 min 22 sec)
Heartbeat CPU 0 instructions: 20000006 cycles: 18922752 heartbeat IPC: 0.9786 cumulative IPC: 1.057 (Simulation time: 00 hr 02 min 51 sec)
Heartbeat CPU 0 instructions: 30000006 cycles: 30623615 heartbeat IPC: 0.8546 cumulative IPC: 0.9796 (Simulation time: 00 hr 04 min 27 sec)
Heartbeat CPU 0 instructions: 40000008 cycles: 46229583 heartbeat IPC: 0.6408 cumulative IPC: 0.8652 (Simulation time: 00 hr 06 min 33 sec)
Heartbeat CPU 0 instructions: 50000009 cycles: 57209867 heartbeat IPC: 0.9107 cumulative IPC: 0.874 (Simulation time: 00 hr 08 min 08 sec)
Heartbeat CPU 0 instructions: 60000012 cycles: 68553480 heartbeat IPC: 0.8816 cumulative IPC: 0.8752 (Simulation time: 00 hr 09 min 46 sec)
[ERROR_CYCLE] Error added at CPU cycle 71278057, next at 91533063, pending count: 1
[DRAM_CYCLE_ERROR] Cycle-based error applied! address=0xdafd41dc8 additional_latency=1990500 cycles
Heartbeat CPU 0 instructions: 70000016 cycles: 82530325 heartbeat IPC: 0.7155 cumulative IPC: 0.8482 (Simulation time: 00 hr 11 min 49 sec)
[ERROR_CYCLE] Error added at CPU cycle 91533064, next at 256960641, pending count: 1
[DRAM_CYCLE_ERROR] Cycle-based error applied! address=0x6869198 additional_latency=1990500 cycles
Heartbeat CPU 0 instructions: 80000019 cycles: 94281651 heartbeat IPC: 0.851 cumulative IPC: 0.8485 (Simulation time: 00 hr 13 min 27 sec)
Heartbeat CPU 0 instructions: 90000020 cycles: 106146580 heartbeat IPC: 0.8428 cumulative IPC: 0.8479 (Simulation time: 00 hr 15 min 09 sec)
Heartbeat CPU 0 instructions: 100000021 cycles: 122728863 heartbeat IPC: 0.6031 cumulative IPC: 0.8148 (Simulation time: 00 hr 17 min 27 sec)
Heartbeat CPU 0 instructions: 110000024 cycles: 128532841 heartbeat IPC: 1.723 cumulative IPC: 0.8558 (Simulation time: 00 hr 18 min 27 sec)
Heartbeat CPU 0 instructions: 120000026 cycles: 135610774 heartbeat IPC: 1.413 cumulative IPC: 0.8849 (Simulation time: 00 hr 19 min 32 sec)
Heartbeat CPU 0 instructions: 130000026 cycles: 141169467 heartbeat IPC: 1.799 cumulative IPC: 0.9209 (Simulation time: 00 hr 20 min 23 sec)
Heartbeat CPU 0 instructions: 140000028 cycles: 148579990 heartbeat IPC: 1.349 cumulative IPC: 0.9423 (Simulation time: 00 hr 21 min 32 sec)
Heartbeat CPU 0 instructions: 150000029 cycles: 154217933 heartbeat IPC: 1.774 cumulative IPC: 0.9726 (Simulation time: 00 hr 22 min 29 sec)
Heartbeat CPU 0 instructions: 160000032 cycles: 161077398 heartbeat IPC: 1.458 cumulative IPC: 0.9933 (Simulation time: 00 hr 23 min 36 sec)
Heartbeat CPU 0 instructions: 170000035 cycles: 168052940 heartbeat IPC: 1.434 cumulative IPC: 1.012 (Simulation time: 00 hr 24 min 45 sec)
Heartbeat CPU 0 instructions: 180000037 cycles: 173649664 heartbeat IPC: 1.787 cumulative IPC: 1.037 (Simulation time: 00 hr 25 min 42 sec)
Heartbeat CPU 0 instructions: 190000038 cycles: 181644621 heartbeat IPC: 1.251 cumulative IPC: 1.046 (Simulation time: 00 hr 26 min 57 sec)
Heartbeat CPU 0 instructions: 200000039 cycles: 187979971 heartbeat IPC: 1.578 cumulative IPC: 1.064 (Simulation time: 00 hr 27 min 57 sec)
Heartbeat CPU 0 instructions: 210000039 cycles: 194330710 heartbeat IPC: 1.575 cumulative IPC: 1.081 (Simulation time: 00 hr 29 min 00 sec)
Heartbeat CPU 0 instructions: 220000040 cycles: 200749391 heartbeat IPC: 1.558 cumulative IPC: 1.096 (Simulation time: 00 hr 30 min 04 sec)
Heartbeat CPU 0 instructions: 230000041 cycles: 212812991 heartbeat IPC: 0.8289 cumulative IPC: 1.081 (Simulation time: 00 hr 31 min 46 sec)
Heartbeat CPU 0 instructions: 240000042 cycles: 224976409 heartbeat IPC: 0.8221 cumulative IPC: 1.067 (Simulation time: 00 hr 33 min 32 sec)
Heartbeat CPU 0 instructions: 250000042 cycles: 230633107 heartbeat IPC: 1.768 cumulative IPC: 1.084 (Simulation time: 00 hr 34 min 30 sec)
Heartbeat CPU 0 instructions: 260000045 cycles: 236916361 heartbeat IPC: 1.592 cumulative IPC: 1.097 (Simulation time: 00 hr 35 min 33 sec)
Heartbeat CPU 0 instructions: 270000046 cycles: 242848920 heartbeat IPC: 1.686 cumulative IPC: 1.112 (Simulation time: 00 hr 36 min 34 sec)
Heartbeat CPU 0 instructions: 280000049 cycles: 248319556 heartbeat IPC: 1.828 cumulative IPC: 1.128 (Simulation time: 00 hr 37 min 30 sec)
Heartbeat CPU 0 instructions: 290000052 cycles: 254467561 heartbeat IPC: 1.627 cumulative IPC: 1.14 (Simulation time: 00 hr 38 min 32 sec)
[ERROR_CYCLE] Error added at CPU cycle 256960642, next at 534676898, pending count: 1
[DRAM_CYCLE_ERROR] Cycle-based error applied! address=0xee7dcb400 additional_latency=1990500 cycles
Heartbeat CPU 0 instructions: 300000054 cycles: 261937215 heartbeat IPC: 1.339 cumulative IPC: 1.145 (Simulation time: 00 hr 39 min 40 sec)
Heartbeat CPU 0 instructions: 310000054 cycles: 273508172 heartbeat IPC: 0.8642 cumulative IPC: 1.133 (Simulation time: 00 hr 41 min 20 sec)
Heartbeat CPU 0 instructions: 320000057 cycles: 282078991 heartbeat IPC: 1.167 cumulative IPC: 1.134 (Simulation time: 00 hr 42 min 39 sec)
Heartbeat CPU 0 instructions: 330000060 cycles: 292559806 heartbeat IPC: 0.9541 cumulative IPC: 1.128 (Simulation time: 00 hr 44 min 10 sec)
Heartbeat CPU 0 instructions: 340000061 cycles: 304394373 heartbeat IPC: 0.845 cumulative IPC: 1.117 (Simulation time: 00 hr 45 min 49 sec)
Heartbeat CPU 0 instructions: 350000062 cycles: 320208271 heartbeat IPC: 0.6324 cumulative IPC: 1.093 (Simulation time: 00 hr 48 min 17 sec)
Heartbeat CPU 0 instructions: 360000064 cycles: 331571535 heartbeat IPC: 0.88 cumulative IPC: 1.086 (Simulation time: 00 hr 49 min 55 sec)
Heartbeat CPU 0 instructions: 370000064 cycles: 343106635 heartbeat IPC: 0.8669 cumulative IPC: 1.078 (Simulation time: 00 hr 51 min 31 sec)
Heartbeat CPU 0 instructions: 380000065 cycles: 357314854 heartbeat IPC: 0.7038 cumulative IPC: 1.063 (Simulation time: 00 hr 53 min 33 sec)
Heartbeat CPU 0 instructions: 390000065 cycles: 369295085 heartbeat IPC: 0.8347 cumulative IPC: 1.056 (Simulation time: 00 hr 55 min 10 sec)
Heartbeat CPU 0 instructions: 400000065 cycles: 381477452 heartbeat IPC: 0.8209 cumulative IPC: 1.049 (Simulation time: 00 hr 56 min 51 sec)
Heartbeat CPU 0 instructions: 410000068 cycles: 395500437 heartbeat IPC: 0.7131 cumulative IPC: 1.037 (Simulation time: 00 hr 58 min 49 sec)
Heartbeat CPU 0 instructions: 420000071 cycles: 407216474 heartbeat IPC: 0.8535 cumulative IPC: 1.031 (Simulation time: 01 hr 00 min 26 sec)
Heartbeat CPU 0 instructions: 430000073 cycles: 420968134 heartbeat IPC: 0.7272 cumulative IPC: 1.021 (Simulation time: 01 hr 02 min 17 sec)
Heartbeat CPU 0 instructions: 440000075 cycles: 434355900 heartbeat IPC: 0.747 cumulative IPC: 1.013 (Simulation time: 01 hr 04 min 08 sec)
Heartbeat CPU 0 instructions: 450000079 cycles: 445824832 heartbeat IPC: 0.8719 cumulative IPC: 1.009 (Simulation time: 01 hr 05 min 44 sec)
Heartbeat CPU 0 instructions: 460000080 cycles: 460791605 heartbeat IPC: 0.6681 cumulative IPC: 0.9983 (Simulation time: 01 hr 07 min 37 sec)
Heartbeat CPU 0 instructions: 470000083 cycles: 477395004 heartbeat IPC: 0.6023 cumulative IPC: 0.9845 (Simulation time: 01 hr 09 min 28 sec)
Heartbeat CPU 0 instructions: 480000085 cycles: 483324282 heartbeat IPC: 1.687 cumulative IPC: 0.9931 (Simulation time: 01 hr 10 min 32 sec)
Heartbeat CPU 0 instructions: 490000085 cycles: 490398791 heartbeat IPC: 1.414 cumulative IPC: 0.9992 (Simulation time: 01 hr 11 min 45 sec)
Heartbeat CPU 0 instructions: 500000085 cycles: 499150870 heartbeat IPC: 1.143 cumulative IPC: 1.002 (Simulation time: 01 hr 13 min 09 sec)
Heartbeat CPU 0 instructions: 510000085 cycles: 510000715 heartbeat IPC: 0.9217 cumulative IPC: 1 (Simulation time: 01 hr 14 min 41 sec)
Heartbeat CPU 0 instructions: 520000087 cycles: 516015210 heartbeat IPC: 1.663 cumulative IPC: 1.008 (Simulation time: 01 hr 15 min 45 sec)
Heartbeat CPU 0 instructions: 530000091 cycles: 523183138 heartbeat IPC: 1.395 cumulative IPC: 1.013 (Simulation time: 01 hr 16 min 59 sec)
Heartbeat CPU 0 instructions: 540000092 cycles: 532705328 heartbeat IPC: 1.05 cumulative IPC: 1.014 (Simulation time: 01 hr 18 min 23 sec)
[ERROR_CYCLE] Error added at CPU cycle 534676899, next at 537682250, pending count: 1
[DRAM_CYCLE_ERROR] Cycle-based error applied! address=0x66870f980 additional_latency=1990500 cycles
[ERROR_CYCLE] Error added at CPU cycle 537682251, next at 691386421, pending count: 1
[DRAM_CYCLE_ERROR] Cycle-based error applied! address=0x3dbdc248 additional_latency=1990500 cycles
Heartbeat CPU 0 instructions: 550000092 cycles: 543881441 heartbeat IPC: 0.8948 cumulative IPC: 1.011 (Simulation time: 01 hr 19 min 56 sec)
Heartbeat CPU 0 instructions: 560000093 cycles: 549976232 heartbeat IPC: 1.641 cumulative IPC: 1.018 (Simulation time: 01 hr 21 min 01 sec)
Heartbeat CPU 0 instructions: 570000093 cycles: 557214254 heartbeat IPC: 1.382 cumulative IPC: 1.023 (Simulation time: 01 hr 22 min 07 sec)
Heartbeat CPU 0 instructions: 580000093 cycles: 566771950 heartbeat IPC: 1.046 cumulative IPC: 1.023 (Simulation time: 01 hr 23 min 29 sec)
Heartbeat CPU 0 instructions: 590000093 cycles: 577668659 heartbeat IPC: 0.9177 cumulative IPC: 1.021 (Simulation time: 01 hr 24 min 57 sec)
Heartbeat CPU 0 instructions: 600000094 cycles: 583799989 heartbeat IPC: 1.631 cumulative IPC: 1.028 (Simulation time: 01 hr 26 min 01 sec)
Heartbeat CPU 0 instructions: 610000094 cycles: 591058831 heartbeat IPC: 1.378 cumulative IPC: 1.032 (Simulation time: 01 hr 27 min 13 sec)
Heartbeat CPU 0 instructions: 620000094 cycles: 600949570 heartbeat IPC: 1.011 cumulative IPC: 1.032 (Simulation time: 01 hr 28 min 36 sec)
Heartbeat CPU 0 instructions: 630000097 cycles: 611938592 heartbeat IPC: 0.91 cumulative IPC: 1.03 (Simulation time: 01 hr 30 min 05 sec)
Heartbeat CPU 0 instructions: 640000097 cycles: 618070266 heartbeat IPC: 1.631 cumulative IPC: 1.035 (Simulation time: 01 hr 31 min 09 sec)
Heartbeat CPU 0 instructions: 650000097 cycles: 625327199 heartbeat IPC: 1.378 cumulative IPC: 1.039 (Simulation time: 01 hr 32 min 21 sec)
Heartbeat CPU 0 instructions: 660000098 cycles: 635253087 heartbeat IPC: 1.007 cumulative IPC: 1.039 (Simulation time: 01 hr 33 min 43 sec)
Heartbeat CPU 0 instructions: 670000098 cycles: 646873947 heartbeat IPC: 0.8605 cumulative IPC: 1.036 (Simulation time: 01 hr 35 min 16 sec)
Heartbeat CPU 0 instructions: 680000100 cycles: 653211446 heartbeat IPC: 1.578 cumulative IPC: 1.041 (Simulation time: 01 hr 36 min 18 sec)
Heartbeat CPU 0 instructions: 690000101 cycles: 659568166 heartbeat IPC: 1.573 cumulative IPC: 1.046 (Simulation time: 01 hr 37 min 20 sec)
Heartbeat CPU 0 instructions: 700000102 cycles: 665918433 heartbeat IPC: 1.575 cumulative IPC: 1.051 (Simulation time: 01 hr 38 min 23 sec)
Heartbeat CPU 0 instructions: 710000102 cycles: 673088971 heartbeat IPC: 1.395 cumulative IPC: 1.055 (Simulation time: 01 hr 39 min 17 sec)
Heartbeat CPU 0 instructions: 720000103 cycles: 679907189 heartbeat IPC: 1.467 cumulative IPC: 1.059 (Simulation time: 01 hr 40 min 15 sec)
Heartbeat CPU 0 instructions: 730000104 cycles: 686862058 heartbeat IPC: 1.438 cumulative IPC: 1.063 (Simulation time: 01 hr 41 min 17 sec)
[ERROR_CYCLE] Error added at CPU cycle 691386422, next at 709284434, pending count: 1
[DRAM_CYCLE_ERROR] Cycle-based error applied! address=0xad0b3f000 additional_latency=1990500 cycles
Heartbeat CPU 0 instructions: 740000105 cycles: 694723310 heartbeat IPC: 1.272 cumulative IPC: 1.065 (Simulation time: 01 hr 42 min 06 sec)
Heartbeat CPU 0 instructions: 750000105 cycles: 702412796 heartbeat IPC: 1.3 cumulative IPC: 1.068 (Simulation time: 01 hr 42 min 44 sec)
[ERROR_CYCLE] Error added at CPU cycle 709284434, next at 766174217, pending count: 1
[DRAM_CYCLE_ERROR] Cycle-based error applied! address=0x1c2bd0dc0 additional_latency=1990500 cycles
Heartbeat CPU 0 instructions: 760000105 cycles: 710206694 heartbeat IPC: 1.283 cumulative IPC: 1.07 (Simulation time: 01 hr 43 min 24 sec)
Heartbeat CPU 0 instructions: 770000105 cycles: 717969311 heartbeat IPC: 1.288 cumulative IPC: 1.072 (Simulation time: 01 hr 44 min 04 sec)
Heartbeat CPU 0 instructions: 780000105 cycles: 725741847 heartbeat IPC: 1.287 cumulative IPC: 1.075 (Simulation time: 01 hr 44 min 43 sec)
Heartbeat CPU 0 instructions: 790000105 cycles: 733612760 heartbeat IPC: 1.271 cumulative IPC: 1.077 (Simulation time: 01 hr 45 min 33 sec)
Heartbeat CPU 0 instructions: 800000107 cycles: 741356810 heartbeat IPC: 1.291 cumulative IPC: 1.079 (Simulation time: 01 hr 46 min 15 sec)
Heartbeat CPU 0 instructions: 810000108 cycles: 749178395 heartbeat IPC: 1.279 cumulative IPC: 1.081 (Simulation time: 01 hr 46 min 54 sec)
Heartbeat CPU 0 instructions: 820000108 cycles: 757098439 heartbeat IPC: 1.263 cumulative IPC: 1.083 (Simulation time: 01 hr 47 min 34 sec)
Heartbeat CPU 0 instructions: 830000109 cycles: 764748225 heartbeat IPC: 1.307 cumulative IPC: 1.085 (Simulation time: 01 hr 48 min 20 sec)
[ERROR_CYCLE] Error added at CPU cycle 766174218, next at 851568605, pending count: 1
[DRAM_CYCLE_ERROR] Cycle-based error applied! address=0x7d76c9228 additional_latency=1990500 cycles
Heartbeat CPU 0 instructions: 840000109 cycles: 772809048 heartbeat IPC: 1.241 cumulative IPC: 1.087 (Simulation time: 01 hr 49 min 15 sec)
Heartbeat CPU 0 instructions: 850000111 cycles: 780531840 heartbeat IPC: 1.295 cumulative IPC: 1.089 (Simulation time: 01 hr 50 min 16 sec)
Heartbeat CPU 0 instructions: 860000115 cycles: 788595002 heartbeat IPC: 1.24 cumulative IPC: 1.091 (Simulation time: 01 hr 51 min 17 sec)
Heartbeat CPU 0 instructions: 870000115 cycles: 796362631 heartbeat IPC: 1.287 cumulative IPC: 1.092 (Simulation time: 01 hr 52 min 18 sec)
Heartbeat CPU 0 instructions: 880000118 cycles: 804338668 heartbeat IPC: 1.254 cumulative IPC: 1.094 (Simulation time: 01 hr 53 min 12 sec)
Heartbeat CPU 0 instructions: 890000118 cycles: 812381528 heartbeat IPC: 1.243 cumulative IPC: 1.096 (Simulation time: 01 hr 54 min 11 sec)
Heartbeat CPU 0 instructions: 900000118 cycles: 820112549 heartbeat IPC: 1.293 cumulative IPC: 1.097 (Simulation time: 01 hr 55 min 10 sec)
Heartbeat CPU 0 instructions: 910000118 cycles: 828442163 heartbeat IPC: 1.201 cumulative IPC: 1.098 (Simulation time: 01 hr 56 min 13 sec)
Heartbeat CPU 0 instructions: 920000118 cycles: 836348164 heartbeat IPC: 1.265 cumulative IPC: 1.1 (Simulation time: 01 hr 57 min 13 sec)
Heartbeat CPU 0 instructions: 930000121 cycles: 844326899 heartbeat IPC: 1.253 cumulative IPC: 1.101 (Simulation time: 01 hr 58 min 14 sec)
[ERROR_CYCLE] Error added at CPU cycle 851568605, next at 876033762, pending count: 1
[DRAM_CYCLE_ERROR] Cycle-based error applied! address=0x47e3828e8 additional_latency=1990500 cycles
Heartbeat CPU 0 instructions: 940000124 cycles: 852403429 heartbeat IPC: 1.238 cumulative IPC: 1.103 (Simulation time: 01 hr 59 min 15 sec)
Heartbeat CPU 0 instructions: 950000124 cycles: 860241650 heartbeat IPC: 1.276 cumulative IPC: 1.104 (Simulation time: 02 hr 00 min 15 sec)
Heartbeat CPU 0 instructions: 960000124 cycles: 868391432 heartbeat IPC: 1.227 cumulative IPC: 1.105 (Simulation time: 02 hr 01 min 16 sec)
[ERROR_CYCLE] Error added at CPU cycle 876033763, next at 1053629556, pending count: 1
Heartbeat CPU 0 instructions: 970000124 cycles: 876192827 heartbeat IPC: 1.282 cumulative IPC: 1.107 (Simulation time: 02 hr 02 min 10 sec)
[DRAM_CYCLE_ERROR] Cycle-based error applied! address=0xc39f7b97c additional_latency=1990500 cycles
Heartbeat CPU 0 instructions: 980000124 cycles: 884443352 heartbeat IPC: 1.212 cumulative IPC: 1.108 (Simulation time: 02 hr 03 min 14 sec)
Heartbeat CPU 0 instructions: 990000125 cycles: 892177850 heartbeat IPC: 1.293 cumulative IPC: 1.11 (Simulation time: 02 hr 04 min 15 sec)
Heartbeat CPU 0 instructions: 1000000128 cycles: 900410828 heartbeat IPC: 1.215 cumulative IPC: 1.111 (Simulation time: 02 hr 05 min 19 sec)
Heartbeat CPU 0 instructions: 1010000128 cycles: 908098325 heartbeat IPC: 1.301 cumulative IPC: 1.112 (Simulation time: 02 hr 06 min 20 sec)
Heartbeat CPU 0 instructions: 1020000128 cycles: 916232436 heartbeat IPC: 1.229 cumulative IPC: 1.113 (Simulation time: 02 hr 07 min 23 sec)
Heartbeat CPU 0 instructions: 1030000128 cycles: 924111324 heartbeat IPC: 1.269 cumulative IPC: 1.115 (Simulation time: 02 hr 08 min 24 sec)
Heartbeat CPU 0 instructions: 1040000128 cycles: 932301598 heartbeat IPC: 1.221 cumulative IPC: 1.116 (Simulation time: 02 hr 09 min 28 sec)
Heartbeat CPU 0 instructions: 1050000129 cycles: 940285359 heartbeat IPC: 1.253 cumulative IPC: 1.117 (Simulation time: 02 hr 10 min 24 sec)
Heartbeat CPU 0 instructions: 1060000133 cycles: 948024975 heartbeat IPC: 1.292 cumulative IPC: 1.118 (Simulation time: 02 hr 11 min 24 sec)
Heartbeat CPU 0 instructions: 1070000136 cycles: 956162769 heartbeat IPC: 1.229 cumulative IPC: 1.119 (Simulation time: 02 hr 12 min 27 sec)
Heartbeat CPU 0 instructions: 1080000139 cycles: 964085020 heartbeat IPC: 1.262 cumulative IPC: 1.12 (Simulation time: 02 hr 13 min 29 sec)
Heartbeat CPU 0 instructions: 1090000139 cycles: 972042414 heartbeat IPC: 1.257 cumulative IPC: 1.121 (Simulation time: 02 hr 14 min 31 sec)
Heartbeat CPU 0 instructions: 1100000139 cycles: 979843690 heartbeat IPC: 1.282 cumulative IPC: 1.123 (Simulation time: 02 hr 15 min 32 sec)
Heartbeat CPU 0 instructions: 1110000140 cycles: 987792662 heartbeat IPC: 1.258 cumulative IPC: 1.124 (Simulation time: 02 hr 16 min 33 sec)
Heartbeat CPU 0 instructions: 1120000140 cycles: 995434896 heartbeat IPC: 1.309 cumulative IPC: 1.125 (Simulation time: 02 hr 17 min 33 sec)
Heartbeat CPU 0 instructions: 1130000142 cycles: 1003856229 heartbeat IPC: 1.187 cumulative IPC: 1.126 (Simulation time: 02 hr 18 min 37 sec)
Heartbeat CPU 0 instructions: 1140000142 cycles: 1011677277 heartbeat IPC: 1.279 cumulative IPC: 1.127 (Simulation time: 02 hr 19 min 34 sec)
Heartbeat CPU 0 instructions: 1150000143 cycles: 1018043224 heartbeat IPC: 1.571 cumulative IPC: 1.13 (Simulation time: 02 hr 20 min 16 sec)
Heartbeat CPU 0 instructions: 1160000147 cycles: 1024420172 heartbeat IPC: 1.568 cumulative IPC: 1.132 (Simulation time: 02 hr 21 min 10 sec)
Heartbeat CPU 0 instructions: 1170000151 cycles: 1034186720 heartbeat IPC: 1.024 cumulative IPC: 1.131 (Simulation time: 02 hr 22 min 46 sec)
Heartbeat CPU 0 instructions: 1180000153 cycles: 1049793929 heartbeat IPC: 0.6407 cumulative IPC: 1.124 (Simulation time: 02 hr 24 min 40 sec)
[ERROR_CYCLE] Error added at CPU cycle 1053629556, next at 1089231385, pending count: 1
[DRAM_CYCLE_ERROR] Cycle-based error applied! address=0xfaafd52c0 additional_latency=1990500 cycles
Heartbeat CPU 0 instructions: 1190000154 cycles: 1059040554 heartbeat IPC: 1.081 cumulative IPC: 1.124 (Simulation time: 02 hr 26 min 19 sec)
Heartbeat CPU 0 instructions: 1200000154 cycles: 1066169920 heartbeat IPC: 1.403 cumulative IPC: 1.126 (Simulation time: 02 hr 27 min 31 sec)
Heartbeat CPU 0 instructions: 1210000157 cycles: 1073301058 heartbeat IPC: 1.402 cumulative IPC: 1.127 (Simulation time: 02 hr 28 min 43 sec)
Heartbeat CPU 0 instructions: 1220000159 cycles: 1080419609 heartbeat IPC: 1.405 cumulative IPC: 1.129 (Simulation time: 02 hr 29 min 56 sec)
[ERROR_CYCLE] Error added at CPU cycle 1089231385, next at 1133989996, pending count: 1
[DRAM_CYCLE_ERROR] Cycle-based error applied! address=0xa38a2cc00 additional_latency=1990500 cycles
Heartbeat CPU 0 instructions: 1230000162 cycles: 1095928905 heartbeat IPC: 0.6448 cumulative IPC: 1.122 (Simulation time: 02 hr 31 min 25 sec)
Heartbeat CPU 0 instructions: 1240000163 cycles: 1106857492 heartbeat IPC: 0.915 cumulative IPC: 1.12 (Simulation time: 02 hr 32 min 37 sec)
Heartbeat CPU 0 instructions: 1250000165 cycles: 1114648549 heartbeat IPC: 1.284 cumulative IPC: 1.121 (Simulation time: 02 hr 33 min 26 sec)
Heartbeat CPU 0 instructions: 1260000165 cycles: 1122399534 heartbeat IPC: 1.29 cumulative IPC: 1.123 (Simulation time: 02 hr 34 min 25 sec)
Heartbeat CPU 0 instructions: 1270000168 cycles: 1130149467 heartbeat IPC: 1.29 cumulative IPC: 1.124 (Simulation time: 02 hr 35 min 20 sec)
[ERROR_CYCLE] Error added at CPU cycle 1133989996, next at 1337518358, pending count: 1
[DRAM_CYCLE_ERROR] Cycle-based error applied! address=0x3e8449f80 additional_latency=1990500 cycles
Heartbeat CPU 0 instructions: 1280000169 cycles: 1137897474 heartbeat IPC: 1.291 cumulative IPC: 1.125 (Simulation time: 02 hr 36 min 13 sec)
Heartbeat CPU 0 instructions: 1290000171 cycles: 1145641402 heartbeat IPC: 1.291 cumulative IPC: 1.126 (Simulation time: 02 hr 37 min 14 sec)
Heartbeat CPU 0 instructions: 1300000171 cycles: 1153387210 heartbeat IPC: 1.291 cumulative IPC: 1.127 (Simulation time: 02 hr 38 min 15 sec)
Heartbeat CPU 0 instructions: 1310000175 cycles: 1161117197 heartbeat IPC: 1.294 cumulative IPC: 1.128 (Simulation time: 02 hr 39 min 15 sec)
Heartbeat CPU 0 instructions: 1320000176 cycles: 1168831668 heartbeat IPC: 1.296 cumulative IPC: 1.129 (Simulation time: 02 hr 40 min 16 sec)
Heartbeat CPU 0 instructions: 1330000180 cycles: 1176534881 heartbeat IPC: 1.298 cumulative IPC: 1.13 (Simulation time: 02 hr 41 min 16 sec)
Heartbeat CPU 0 instructions: 1340000180 cycles: 1184225398 heartbeat IPC: 1.3 cumulative IPC: 1.132 (Simulation time: 02 hr 42 min 16 sec)
Heartbeat CPU 0 instructions: 1350000181 cycles: 1191899770 heartbeat IPC: 1.303 cumulative IPC: 1.133 (Simulation time: 02 hr 43 min 17 sec)
Heartbeat CPU 0 instructions: 1360000182 cycles: 1199558814 heartbeat IPC: 1.306 cumulative IPC: 1.134 (Simulation time: 02 hr 44 min 18 sec)
Heartbeat CPU 0 instructions: 1370000185 cycles: 1207230366 heartbeat IPC: 1.304 cumulative IPC: 1.135 (Simulation time: 02 hr 45 min 17 sec)
Heartbeat CPU 0 instructions: 1380000189 cycles: 1214893754 heartbeat IPC: 1.305 cumulative IPC: 1.136 (Simulation time: 02 hr 46 min 15 sec)
Heartbeat CPU 0 instructions: 1390000190 cycles: 1222560931 heartbeat IPC: 1.304 cumulative IPC: 1.137 (Simulation time: 02 hr 47 min 06 sec)
Heartbeat CPU 0 instructions: 1400000190 cycles: 1230230787 heartbeat IPC: 1.304 cumulative IPC: 1.138 (Simulation time: 02 hr 47 min 56 sec)
Heartbeat CPU 0 instructions: 1410000193 cycles: 1237901800 heartbeat IPC: 1.304 cumulative IPC: 1.139 (Simulation time: 02 hr 48 min 47 sec)
Heartbeat CPU 0 instructions: 1420000194 cycles: 1245584974 heartbeat IPC: 1.302 cumulative IPC: 1.14 (Simulation time: 02 hr 49 min 31 sec)
Heartbeat CPU 0 instructions: 1430000194 cycles: 1253270665 heartbeat IPC: 1.301 cumulative IPC: 1.141 (Simulation time: 02 hr 50 min 23 sec)
Heartbeat CPU 0 instructions: 1440000194 cycles: 1260955606 heartbeat IPC: 1.301 cumulative IPC: 1.142 (Simulation time: 02 hr 51 min 14 sec)
Heartbeat CPU 0 instructions: 1450000194 cycles: 1268631675 heartbeat IPC: 1.303 cumulative IPC: 1.143 (Simulation time: 02 hr 51 min 58 sec)
Heartbeat CPU 0 instructions: 1460000194 cycles: 1276308745 heartbeat IPC: 1.303 cumulative IPC: 1.144 (Simulation time: 02 hr 52 min 58 sec)
Heartbeat CPU 0 instructions: 1470000194 cycles: 1283988636 heartbeat IPC: 1.302 cumulative IPC: 1.145 (Simulation time: 02 hr 53 min 57 sec)
Heartbeat CPU 0 instructions: 1480000194 cycles: 1291672169 heartbeat IPC: 1.301 cumulative IPC: 1.146 (Simulation time: 02 hr 54 min 57 sec)
Heartbeat CPU 0 instructions: 1490000195 cycles: 1299358372 heartbeat IPC: 1.301 cumulative IPC: 1.147 (Simulation time: 02 hr 55 min 45 sec)
Heartbeat CPU 0 instructions: 1500000196 cycles: 1307044397 heartbeat IPC: 1.301 cumulative IPC: 1.148 (Simulation time: 02 hr 56 min 27 sec)
Heartbeat CPU 0 instructions: 1510000196 cycles: 1314730996 heartbeat IPC: 1.301 cumulative IPC: 1.149 (Simulation time: 02 hr 57 min 06 sec)
Heartbeat CPU 0 instructions: 1520000196 cycles: 1322407225 heartbeat IPC: 1.303 cumulative IPC: 1.149 (Simulation time: 02 hr 57 min 54 sec)
Heartbeat CPU 0 instructions: 1530000196 cycles: 1330089795 heartbeat IPC: 1.302 cumulative IPC: 1.15 (Simulation time: 02 hr 58 min 48 sec)
[ERROR_CYCLE] Error added at CPU cycle 1337518359, next at 1338743607, pending count: 1
[DRAM_CYCLE_ERROR] Cycle-based error applied! address=0xfddcb1c0 additional_latency=1990500 cycles
Heartbeat CPU 0 instructions: 1540000197 cycles: 1337772118 heartbeat IPC: 1.302 cumulative IPC: 1.151 (Simulation time: 02 hr 59 min 40 sec)
[ERROR_CYCLE] Error added at CPU cycle 1338743607, next at 1451238650, pending count: 1
[DRAM_CYCLE_ERROR] Cycle-based error applied! address=0x3e844c3c0 additional_latency=1990500 cycles
Heartbeat CPU 0 instructions: 1550000197 cycles: 1345440201 heartbeat IPC: 1.304 cumulative IPC: 1.152 (Simulation time: 03 hr 00 min 31 sec)
Heartbeat CPU 0 instructions: 1560000199 cycles: 1353073567 heartbeat IPC: 1.31 cumulative IPC: 1.153 (Simulation time: 03 hr 01 min 17 sec)
Heartbeat CPU 0 instructions: 1570000199 cycles: 1360707696 heartbeat IPC: 1.31 cumulative IPC: 1.154 (Simulation time: 03 hr 01 min 57 sec)
Heartbeat CPU 0 instructions: 1580000199 cycles: 1368355149 heartbeat IPC: 1.308 cumulative IPC: 1.155 (Simulation time: 03 hr 02 min 42 sec)
Heartbeat CPU 0 instructions: 1590000200 cycles: 1376004784 heartbeat IPC: 1.307 cumulative IPC: 1.156 (Simulation time: 03 hr 03 min 37 sec)
Heartbeat CPU 0 instructions: 1600000200 cycles: 1383645178 heartbeat IPC: 1.309 cumulative IPC: 1.156 (Simulation time: 03 hr 04 min 36 sec)
Heartbeat CPU 0 instructions: 1610000200 cycles: 1391289378 heartbeat IPC: 1.308 cumulative IPC: 1.157 (Simulation time: 03 hr 05 min 34 sec)
Heartbeat CPU 0 instructions: 1620000200 cycles: 1398924715 heartbeat IPC: 1.31 cumulative IPC: 1.158 (Simulation time: 03 hr 06 min 28 sec)
Heartbeat CPU 0 instructions: 1630000202 cycles: 1406569457 heartbeat IPC: 1.308 cumulative IPC: 1.159 (Simulation time: 03 hr 07 min 20 sec)
Heartbeat CPU 0 instructions: 1640000206 cycles: 1414215719 heartbeat IPC: 1.308 cumulative IPC: 1.16 (Simulation time: 03 hr 08 min 14 sec)
Heartbeat CPU 0 instructions: 1650000206 cycles: 1421865705 heartbeat IPC: 1.307 cumulative IPC: 1.16 (Simulation time: 03 hr 09 min 07 sec)
Heartbeat CPU 0 instructions: 1660000210 cycles: 1429526825 heartbeat IPC: 1.305 cumulative IPC: 1.161 (Simulation time: 03 hr 09 min 52 sec)
Heartbeat CPU 0 instructions: 1670000210 cycles: 1437192983 heartbeat IPC: 1.304 cumulative IPC: 1.162 (Simulation time: 03 hr 10 min 42 sec)
Heartbeat CPU 0 instructions: 1680000210 cycles: 1444867421 heartbeat IPC: 1.303 cumulative IPC: 1.163 (Simulation time: 03 hr 11 min 36 sec)
[ERROR_CYCLE] Error added at CPU cycle 1451238650, next at 1516871150, pending count: 1
[DRAM_CYCLE_ERROR] Cycle-based error applied! address=0x3e844d780 additional_latency=1990500 cycles
Heartbeat CPU 0 instructions: 1690000210 cycles: 1452548908 heartbeat IPC: 1.302 cumulative IPC: 1.163 (Simulation time: 03 hr 12 min 26 sec)
Heartbeat CPU 0 instructions: 1700000211 cycles: 1460222652 heartbeat IPC: 1.303 cumulative IPC: 1.164 (Simulation time: 03 hr 13 min 17 sec)
Heartbeat CPU 0 instructions: 1710000214 cycles: 1467898086 heartbeat IPC: 1.303 cumulative IPC: 1.165 (Simulation time: 03 hr 14 min 06 sec)
Heartbeat CPU 0 instructions: 1720000215 cycles: 1475574131 heartbeat IPC: 1.303 cumulative IPC: 1.166 (Simulation time: 03 hr 14 min 46 sec)
Heartbeat CPU 0 instructions: 1730000215 cycles: 1483249409 heartbeat IPC: 1.303 cumulative IPC: 1.166 (Simulation time: 03 hr 15 min 42 sec)
Heartbeat CPU 0 instructions: 1740000215 cycles: 1490923669 heartbeat IPC: 1.303 cumulative IPC: 1.167 (Simulation time: 03 hr 16 min 42 sec)
Heartbeat CPU 0 instructions: 1750000216 cycles: 1498597024 heartbeat IPC: 1.303 cumulative IPC: 1.168 (Simulation time: 03 hr 17 min 42 sec)
Heartbeat CPU 0 instructions: 1760000220 cycles: 1506271973 heartbeat IPC: 1.303 cumulative IPC: 1.168 (Simulation time: 03 hr 18 min 38 sec)
Heartbeat CPU 0 instructions: 1770000220 cycles: 1513951137 heartbeat IPC: 1.302 cumulative IPC: 1.169 (Simulation time: 03 hr 19 min 30 sec)
[ERROR_CYCLE] Error added at CPU cycle 1516871150, next at 1895264846, pending count: 1
[DRAM_CYCLE_ERROR] Cycle-based error applied! address=0x3e844e2c0 additional_latency=1990500 cycles
Heartbeat CPU 0 instructions: 1780000220 cycles: 1521626165 heartbeat IPC: 1.303 cumulative IPC: 1.17 (Simulation time: 03 hr 20 min 27 sec)
Heartbeat CPU 0 instructions: 1790000221 cycles: 1529311368 heartbeat IPC: 1.301 cumulative IPC: 1.17 (Simulation time: 03 hr 21 min 18 sec)
Heartbeat CPU 0 instructions: 1800000221 cycles: 1536984640 heartbeat IPC: 1.303 cumulative IPC: 1.171 (Simulation time: 03 hr 22 min 15 sec)
Heartbeat CPU 0 instructions: 1810000221 cycles: 1544659277 heartbeat IPC: 1.303 cumulative IPC: 1.172 (Simulation time: 03 hr 23 min 15 sec)
Heartbeat CPU 0 instructions: 1820000221 cycles: 1552336038 heartbeat IPC: 1.303 cumulative IPC: 1.172 (Simulation time: 03 hr 24 min 11 sec)
Heartbeat CPU 0 instructions: 1830000223 cycles: 1559429374 heartbeat IPC: 1.41 cumulative IPC: 1.174 (Simulation time: 03 hr 24 min 58 sec)
Heartbeat CPU 0 instructions: 1840000224 cycles: 1565547689 heartbeat IPC: 1.634 cumulative IPC: 1.175 (Simulation time: 03 hr 25 min 43 sec)
Heartbeat CPU 0 instructions: 1850000225 cycles: 1571829368 heartbeat IPC: 1.592 cumulative IPC: 1.177 (Simulation time: 03 hr 26 min 37 sec)
Heartbeat CPU 0 instructions: 1860000226 cycles: 1578200004 heartbeat IPC: 1.57 cumulative IPC: 1.179 (Simulation time: 03 hr 27 min 30 sec)
Heartbeat CPU 0 instructions: 1870000227 cycles: 1584605941 heartbeat IPC: 1.561 cumulative IPC: 1.18 (Simulation time: 03 hr 28 min 15 sec)
Heartbeat CPU 0 instructions: 1880000228 cycles: 1591123214 heartbeat IPC: 1.534 cumulative IPC: 1.182 (Simulation time: 03 hr 29 min 04 sec)
Heartbeat CPU 0 instructions: 1890000228 cycles: 1597616509 heartbeat IPC: 1.54 cumulative IPC: 1.183 (Simulation time: 03 hr 29 min 48 sec)
Heartbeat CPU 0 instructions: 1900000230 cycles: 1602923968 heartbeat IPC: 1.884 cumulative IPC: 1.185 (Simulation time: 03 hr 30 min 34 sec)
Heartbeat CPU 0 instructions: 1910000230 cycles: 1608171788 heartbeat IPC: 1.906 cumulative IPC: 1.188 (Simulation time: 03 hr 31 min 13 sec)
Heartbeat CPU 0 instructions: 1920000232 cycles: 1613563807 heartbeat IPC: 1.855 cumulative IPC: 1.19 (Simulation time: 03 hr 32 min 02 sec)
Heartbeat CPU 0 instructions: 1930000233 cycles: 1618864943 heartbeat IPC: 1.886 cumulative IPC: 1.192 (Simulation time: 03 hr 32 min 52 sec)
Heartbeat CPU 0 instructions: 1940000236 cycles: 1624122604 heartbeat IPC: 1.902 cumulative IPC: 1.194 (Simulation time: 03 hr 33 min 30 sec)
Heartbeat CPU 0 instructions: 1950000236 cycles: 1629476707 heartbeat IPC: 1.868 cumulative IPC: 1.197 (Simulation time: 03 hr 34 min 20 sec)
Heartbeat CPU 0 instructions: 1960000239 cycles: 1634786345 heartbeat IPC: 1.883 cumulative IPC: 1.199 (Simulation time: 03 hr 35 min 03 sec)
Heartbeat CPU 0 instructions: 1970000239 cycles: 1640085204 heartbeat IPC: 1.887 cumulative IPC: 1.201 (Simulation time: 03 hr 35 min 43 sec)
Heartbeat CPU 0 instructions: 1980000239 cycles: 1645336947 heartbeat IPC: 1.904 cumulative IPC: 1.203 (Simulation time: 03 hr 36 min 35 sec)
Heartbeat CPU 0 instructions: 1990000240 cycles: 1650569389 heartbeat IPC: 1.911 cumulative IPC: 1.206 (Simulation time: 03 hr 37 min 27 sec)

=== ERROR PAGE STATISTICS ===
Mode: CYCLE
Error Cycle Interval: 100000000 CPU cycles
Total Error Accesses: 17
==============================
Simulation finished CPU 0 instructions: 1999999905 cycles: 1658911167 cumulative IPC: 1.206 (Simulation time: 03 hr 38 min 41 sec)
Simulation complete CPU 0 instructions: 1999999905 cycles: 1658911167 cumulative IPC: 1.206 (Simulation time: 03 hr 38 min 41 sec)

ChampSim completed all CPUs

=== Simulation ===
CPU 0 runs test_traces/621.wrf_s-6673B.champsimtrace.xz

Region of Interest Statistics

CPU 0 cumulative IPC: 1.206 instructions: 1999999905 cycles: 1658911167
CPU 0 Branch Prediction Accuracy: 93.25% MPKI: 6.743 Average ROB Occupancy at Mispredict: 67.09
Branch type MPKI
BRANCH_DIRECT_JUMP: 0.00112
BRANCH_INDIRECT: 6.95e-05
BRANCH_CONDITIONAL: 5.98
BRANCH_DIRECT_CALL: 0.002089
BRANCH_INDIRECT_CALL: 2e-06
BRANCH_RETURN: 0.7595

cpu0->cpu0_STLB TOTAL        ACCESS:        124 HIT:         45 MISS:         79 MSHR_MERGE:          0
cpu0->cpu0_STLB LOAD         ACCESS:        124 HIT:         45 MISS:         79 MSHR_MERGE:          0
cpu0->cpu0_STLB RFO          ACCESS:          0 HIT:          0 MISS:          0 MSHR_MERGE:          0
cpu0->cpu0_STLB PREFETCH     ACCESS:          0 HIT:          0 MISS:          0 MSHR_MERGE:          0
cpu0->cpu0_STLB WRITE        ACCESS:          0 HIT:          0 MISS:          0 MSHR_MERGE:          0
cpu0->cpu0_STLB TRANSLATION  ACCESS:          0 HIT:          0 MISS:          0 MSHR_MERGE:          0
cpu0->cpu0_STLB PREFETCH REQUESTED:          0 ISSUED:          0 USEFUL:          0 USELESS:          0
cpu0->cpu0_STLB AVERAGE MISS LATENCY: 9394 cycles
cpu0->cpu0_L2C TOTAL        ACCESS:   24599222 HIT:   13032783 MISS:   11566439 MSHR_MERGE:          0
cpu0->cpu0_L2C LOAD         ACCESS:   13805858 HIT:    4693277 MISS:    9112581 MSHR_MERGE:          0
cpu0->cpu0_L2C RFO          ACCESS:    3870381 HIT:    1420524 MISS:    2449857 MSHR_MERGE:          0
cpu0->cpu0_L2C PREFETCH     ACCESS:          0 HIT:          0 MISS:          0 MSHR_MERGE:          0
cpu0->cpu0_L2C WRITE        ACCESS:    6922983 HIT:    6918982 MISS:       4001 MSHR_MERGE:          0
cpu0->cpu0_L2C TRANSLATION  ACCESS:          0 HIT:          0 MISS:          0 MSHR_MERGE:          0
cpu0->cpu0_L2C PREFETCH REQUESTED:          0 ISSUED:          0 USEFUL:          0 USELESS:          0
cpu0->cpu0_L2C AVERAGE MISS LATENCY: 112 cycles
cpu0->cpu0_L1I TOTAL        ACCESS:  172487396 HIT:  171360985 MISS:    1126411 MSHR_MERGE:     424114
cpu0->cpu0_L1I LOAD         ACCESS:  172487396 HIT:  171360985 MISS:    1126411 MSHR_MERGE:     424114
cpu0->cpu0_L1I RFO          ACCESS:          0 HIT:          0 MISS:          0 MSHR_MERGE:          0
cpu0->cpu0_L1I PREFETCH     ACCESS:          0 HIT:          0 MISS:          0 MSHR_MERGE:          0
cpu0->cpu0_L1I WRITE        ACCESS:          0 HIT:          0 MISS:          0 MSHR_MERGE:          0
cpu0->cpu0_L1I TRANSLATION  ACCESS:          0 HIT:          0 MISS:          0 MSHR_MERGE:          0
cpu0->cpu0_L1I PREFETCH REQUESTED:          0 ISSUED:          0 USEFUL:          0 USELESS:          0
cpu0->cpu0_L1I AVERAGE MISS LATENCY: 13.72 cycles
cpu0->cpu0_L1D TOTAL        ACCESS:  525691388 HIT:  487953908 MISS:   37737480 MSHR_MERGE:   20763332
cpu0->cpu0_L1D LOAD         ACCESS:  412524102 HIT:  388560247 MISS:   23963855 MSHR_MERGE:   10860214
cpu0->cpu0_L1D RFO          ACCESS:          0 HIT:          0 MISS:          0 MSHR_MERGE:          0
cpu0->cpu0_L1D PREFETCH     ACCESS:          0 HIT:          0 MISS:          0 MSHR_MERGE:          0
cpu0->cpu0_L1D WRITE        ACCESS:  113167286 HIT:   99393661 MISS:   13773625 MSHR_MERGE:    9903118
cpu0->cpu0_L1D TRANSLATION  ACCESS:          0 HIT:          0 MISS:          0 MSHR_MERGE:          0
cpu0->cpu0_L1D PREFETCH REQUESTED:          0 ISSUED:          0 USEFUL:          0 USELESS:          0
cpu0->cpu0_L1D AVERAGE MISS LATENCY: 84.88 cycles
cpu0->cpu0_ITLB TOTAL        ACCESS:  147579388 HIT:  147579359 MISS:         29 MSHR_MERGE:         20
cpu0->cpu0_ITLB LOAD         ACCESS:  147579388 HIT:  147579359 MISS:         29 MSHR_MERGE:         20
cpu0->cpu0_ITLB RFO          ACCESS:          0 HIT:          0 MISS:          0 MSHR_MERGE:          0
cpu0->cpu0_ITLB PREFETCH     ACCESS:          0 HIT:          0 MISS:          0 MSHR_MERGE:          0
cpu0->cpu0_ITLB WRITE        ACCESS:          0 HIT:          0 MISS:          0 MSHR_MERGE:          0
cpu0->cpu0_ITLB TRANSLATION  ACCESS:          0 HIT:          0 MISS:          0 MSHR_MERGE:          0
cpu0->cpu0_ITLB PREFETCH REQUESTED:          0 ISSUED:          0 USEFUL:          0 USELESS:          0
cpu0->cpu0_ITLB AVERAGE MISS LATENCY: 8667 cycles
cpu0->cpu0_DTLB TOTAL        ACCESS:  450951107 HIT:  450950750 MISS:        357 MSHR_MERGE:        242
cpu0->cpu0_DTLB LOAD         ACCESS:  450951107 HIT:  450950750 MISS:        357 MSHR_MERGE:        242
cpu0->cpu0_DTLB RFO          ACCESS:          0 HIT:          0 MISS:          0 MSHR_MERGE:          0
cpu0->cpu0_DTLB PREFETCH     ACCESS:          0 HIT:          0 MISS:          0 MSHR_MERGE:          0
cpu0->cpu0_DTLB WRITE        ACCESS:          0 HIT:          0 MISS:          0 MSHR_MERGE:          0
cpu0->cpu0_DTLB TRANSLATION  ACCESS:          0 HIT:          0 MISS:          0 MSHR_MERGE:          0
cpu0->cpu0_DTLB PREFETCH REQUESTED:          0 ISSUED:          0 USEFUL:          0 USELESS:          0
cpu0->cpu0_DTLB AVERAGE MISS LATENCY: 5781 cycles
cpu0->LLC TOTAL        ACCESS:   16402686 HIT:    6357217 MISS:   10045469 MSHR_MERGE:          0
cpu0->LLC LOAD         ACCESS:    9112581 HIT:    1198507 MISS:    7914074 MSHR_MERGE:          0
cpu0->LLC RFO          ACCESS:    2449857 HIT:     330214 MISS:    2119643 MSHR_MERGE:          0
cpu0->LLC PREFETCH     ACCESS:          0 HIT:          0 MISS:          0 MSHR_MERGE:          0
cpu0->LLC WRITE        ACCESS:    4840248 HIT:    4828496 MISS:      11752 MSHR_MERGE:          0
cpu0->LLC TRANSLATION  ACCESS:          0 HIT:          0 MISS:          0 MSHR_MERGE:          0
cpu0->LLC PREFETCH REQUESTED:          0 ISSUED:          0 USEFUL:          0 USELESS:          0
cpu0->LLC AVERAGE MISS LATENCY: 110.7 cycles

DRAM Statistics

Channel 0 RQ ROW_BUFFER_HIT:     274099
  ROW_BUFFER_MISS:    4742656
  AVG DBUS CONGESTED CYCLE: 10.73
Channel 0 WQ ROW_BUFFER_HIT:     576641
  ROW_BUFFER_MISS:    1430678
  FULL:          6
Channel 0 REFRESHES ISSUED:     138233

Channel 1 RQ ROW_BUFFER_HIT:     273417
  ROW_BUFFER_MISS:    4743490
  AVG DBUS CONGESTED CYCLE: 10.73
Channel 1 WQ ROW_BUFFER_HIT:     579067
  ROW_BUFFER_MISS:    1427869
  FULL:        704
Channel 1 REFRESHES ISSUED:     138233
