[VMEM] WARNING: physical memory size is smaller than virtual memory size.

*** ChampSim Multicore Out-of-Order Simulator ***
Warmup Instructions: 0
Simulation Instructions: 9223372036854775807
Number of CPUs: 1
Page size: 4096

Off-chip DRAM Size: 32 GiB Channels: 2 Width: 32-bit Data Rate: 4807 MT/s
[ERROR_PAGE_MANAGER] Error latency: 173500 
[ERROR_PAGE_MANAGER] Random seed: 54321 (fixed for preload reproducibility)
[ERROR_PAGE_MANAGER] Cycle-based error modeling enabled
[ERROR_PAGE_MANAGER] Errors per interval: 1
[ERROR_PAGE_MANAGER] Error cycle interval: 200000000000 cycles

=== ERROR PAGE STATISTICS ===
Mode: CYCLE
Error Cycle Interval: 200000000000 CPU cycles
Total Error Accesses: 0
==============================
Warmup finished CPU 0 instructions: 0 cycles: 1 cumulative IPC: 0 (Simulation time: 00 hr 00 min 00 sec)
Warmup complete CPU 0 instructions: 0 cycles: 1 cumulative IPC: 0 (Simulation time: 00 hr 00 min 00 sec)
Heartbeat CPU 0 instructions: 10000004 cycles: 8263981 heartbeat IPC: 1.21 cumulative IPC: 1.21 (Simulation time: 00 hr 00 min 52 sec)
Heartbeat CPU 0 instructions: 20000004 cycles: 16521633 heartbeat IPC: 1.211 cumulative IPC: 1.211 (Simulation time: 00 hr 01 min 52 sec)
Heartbeat CPU 0 instructions: 30000005 cycles: 24746995 heartbeat IPC: 1.216 cumulative IPC: 1.212 (Simulation time: 00 hr 02 min 54 sec)
Heartbeat CPU 0 instructions: 40000008 cycles: 32968087 heartbeat IPC: 1.216 cumulative IPC: 1.213 (Simulation time: 00 hr 03 min 53 sec)
Heartbeat CPU 0 instructions: 50000009 cycles: 41178448 heartbeat IPC: 1.218 cumulative IPC: 1.214 (Simulation time: 00 hr 05 min 08 sec)
Heartbeat CPU 0 instructions: 60000010 cycles: 49416011 heartbeat IPC: 1.214 cumulative IPC: 1.214 (Simulation time: 00 hr 06 min 23 sec)
Heartbeat CPU 0 instructions: 70000013 cycles: 57707576 heartbeat IPC: 1.206 cumulative IPC: 1.213 (Simulation time: 00 hr 07 min 38 sec)
Heartbeat CPU 0 instructions: 80000013 cycles: 65957035 heartbeat IPC: 1.212 cumulative IPC: 1.213 (Simulation time: 00 hr 08 min 53 sec)
Heartbeat CPU 0 instructions: 90000014 cycles: 74219730 heartbeat IPC: 1.21 cumulative IPC: 1.213 (Simulation time: 00 hr 10 min 06 sec)
Heartbeat CPU 0 instructions: 100000015 cycles: 82484131 heartbeat IPC: 1.21 cumulative IPC: 1.212 (Simulation time: 00 hr 11 min 06 sec)
Heartbeat CPU 0 instructions: 110000018 cycles: 90711711 heartbeat IPC: 1.215 cumulative IPC: 1.213 (Simulation time: 00 hr 12 min 14 sec)
Heartbeat CPU 0 instructions: 120000022 cycles: 98943621 heartbeat IPC: 1.215 cumulative IPC: 1.213 (Simulation time: 00 hr 13 min 29 sec)
Heartbeat CPU 0 instructions: 130000024 cycles: 107167400 heartbeat IPC: 1.216 cumulative IPC: 1.213 (Simulation time: 00 hr 14 min 45 sec)
Heartbeat CPU 0 instructions: 140000025 cycles: 115461337 heartbeat IPC: 1.206 cumulative IPC: 1.213 (Simulation time: 00 hr 16 min 01 sec)
Heartbeat CPU 0 instructions: 150000028 cycles: 123735016 heartbeat IPC: 1.209 cumulative IPC: 1.212 (Simulation time: 00 hr 17 min 14 sec)
Heartbeat CPU 0 instructions: 160000029 cycles: 131956241 heartbeat IPC: 1.216 cumulative IPC: 1.213 (Simulation time: 00 hr 18 min 23 sec)
Heartbeat CPU 0 instructions: 170000032 cycles: 140207108 heartbeat IPC: 1.212 cumulative IPC: 1.212 (Simulation time: 00 hr 19 min 40 sec)
Heartbeat CPU 0 instructions: 180000035 cycles: 148460529 heartbeat IPC: 1.212 cumulative IPC: 1.212 (Simulation time: 00 hr 20 min 58 sec)
Heartbeat CPU 0 instructions: 190000037 cycles: 156680284 heartbeat IPC: 1.217 cumulative IPC: 1.213 (Simulation time: 00 hr 22 min 15 sec)
Heartbeat CPU 0 instructions: 200000039 cycles: 164863005 heartbeat IPC: 1.222 cumulative IPC: 1.213 (Simulation time: 00 hr 23 min 32 sec)
Heartbeat CPU 0 instructions: 210000042 cycles: 173109134 heartbeat IPC: 1.213 cumulative IPC: 1.213 (Simulation time: 00 hr 24 min 44 sec)
Heartbeat CPU 0 instructions: 220000046 cycles: 181332218 heartbeat IPC: 1.216 cumulative IPC: 1.213 (Simulation time: 00 hr 25 min 36 sec)
Heartbeat CPU 0 instructions: 230000048 cycles: 189589081 heartbeat IPC: 1.211 cumulative IPC: 1.213 (Simulation time: 00 hr 26 min 53 sec)
Heartbeat CPU 0 instructions: 240000049 cycles: 197846630 heartbeat IPC: 1.211 cumulative IPC: 1.213 (Simulation time: 00 hr 28 min 01 sec)
Heartbeat CPU 0 instructions: 250000050 cycles: 206095378 heartbeat IPC: 1.212 cumulative IPC: 1.213 (Simulation time: 00 hr 29 min 01 sec)
Heartbeat CPU 0 instructions: 260000052 cycles: 214315653 heartbeat IPC: 1.217 cumulative IPC: 1.213 (Simulation time: 00 hr 30 min 13 sec)
Heartbeat CPU 0 instructions: 270000054 cycles: 222591440 heartbeat IPC: 1.208 cumulative IPC: 1.213 (Simulation time: 00 hr 31 min 25 sec)
Heartbeat CPU 0 instructions: 280000055 cycles: 230846535 heartbeat IPC: 1.211 cumulative IPC: 1.213 (Simulation time: 00 hr 32 min 40 sec)
Heartbeat CPU 0 instructions: 290000059 cycles: 239101690 heartbeat IPC: 1.211 cumulative IPC: 1.213 (Simulation time: 00 hr 33 min 49 sec)
Heartbeat CPU 0 instructions: 300000062 cycles: 247334541 heartbeat IPC: 1.215 cumulative IPC: 1.213 (Simulation time: 00 hr 34 min 59 sec)
Heartbeat CPU 0 instructions: 310000062 cycles: 255593449 heartbeat IPC: 1.211 cumulative IPC: 1.213 (Simulation time: 00 hr 36 min 02 sec)
Heartbeat CPU 0 instructions: 320000065 cycles: 263815979 heartbeat IPC: 1.216 cumulative IPC: 1.213 (Simulation time: 00 hr 37 min 20 sec)
Heartbeat CPU 0 instructions: 330000065 cycles: 272027245 heartbeat IPC: 1.218 cumulative IPC: 1.213 (Simulation time: 00 hr 38 min 37 sec)
Heartbeat CPU 0 instructions: 340000066 cycles: 280270923 heartbeat IPC: 1.213 cumulative IPC: 1.213 (Simulation time: 00 hr 39 min 46 sec)
Heartbeat CPU 0 instructions: 350000070 cycles: 288481736 heartbeat IPC: 1.218 cumulative IPC: 1.213 (Simulation time: 00 hr 41 min 04 sec)
Heartbeat CPU 0 instructions: 360000070 cycles: 296728019 heartbeat IPC: 1.213 cumulative IPC: 1.213 (Simulation time: 00 hr 42 min 22 sec)
Heartbeat CPU 0 instructions: 370000071 cycles: 304941724 heartbeat IPC: 1.217 cumulative IPC: 1.213 (Simulation time: 00 hr 43 min 36 sec)
Heartbeat CPU 0 instructions: 380000075 cycles: 313224366 heartbeat IPC: 1.207 cumulative IPC: 1.213 (Simulation time: 00 hr 44 min 30 sec)
Heartbeat CPU 0 instructions: 390000077 cycles: 321456579 heartbeat IPC: 1.215 cumulative IPC: 1.213 (Simulation time: 00 hr 45 min 33 sec)
Heartbeat CPU 0 instructions: 400000080 cycles: 329716122 heartbeat IPC: 1.211 cumulative IPC: 1.213 (Simulation time: 00 hr 46 min 48 sec)
Heartbeat CPU 0 instructions: 410000081 cycles: 337944397 heartbeat IPC: 1.215 cumulative IPC: 1.213 (Simulation time: 00 hr 47 min 53 sec)
Heartbeat CPU 0 instructions: 420000081 cycles: 346193230 heartbeat IPC: 1.212 cumulative IPC: 1.213 (Simulation time: 00 hr 49 min 11 sec)
Heartbeat CPU 0 instructions: 430000081 cycles: 354448756 heartbeat IPC: 1.211 cumulative IPC: 1.213 (Simulation time: 00 hr 50 min 29 sec)
Heartbeat CPU 0 instructions: 440000085 cycles: 362694913 heartbeat IPC: 1.213 cumulative IPC: 1.213 (Simulation time: 00 hr 51 min 30 sec)
Heartbeat CPU 0 instructions: 450000086 cycles: 370960608 heartbeat IPC: 1.21 cumulative IPC: 1.213 (Simulation time: 00 hr 52 min 34 sec)
Heartbeat CPU 0 instructions: 460000087 cycles: 379233033 heartbeat IPC: 1.209 cumulative IPC: 1.213 (Simulation time: 00 hr 53 min 42 sec)
Heartbeat CPU 0 instructions: 470000088 cycles: 387450007 heartbeat IPC: 1.217 cumulative IPC: 1.213 (Simulation time: 00 hr 55 min 00 sec)
Heartbeat CPU 0 instructions: 480000088 cycles: 395705149 heartbeat IPC: 1.211 cumulative IPC: 1.213 (Simulation time: 00 hr 56 min 19 sec)
Heartbeat CPU 0 instructions: 490000091 cycles: 403959803 heartbeat IPC: 1.211 cumulative IPC: 1.213 (Simulation time: 00 hr 57 min 37 sec)
Heartbeat CPU 0 instructions: 500000092 cycles: 412152905 heartbeat IPC: 1.221 cumulative IPC: 1.213 (Simulation time: 00 hr 58 min 55 sec)
Heartbeat CPU 0 instructions: 510000092 cycles: 420402061 heartbeat IPC: 1.212 cumulative IPC: 1.213 (Simulation time: 01 hr 00 min 12 sec)
Heartbeat CPU 0 instructions: 520000096 cycles: 428662175 heartbeat IPC: 1.211 cumulative IPC: 1.213 (Simulation time: 01 hr 01 min 19 sec)
Heartbeat CPU 0 instructions: 530000100 cycles: 436910328 heartbeat IPC: 1.212 cumulative IPC: 1.213 (Simulation time: 01 hr 02 min 21 sec)
Heartbeat CPU 0 instructions: 540000104 cycles: 445159678 heartbeat IPC: 1.212 cumulative IPC: 1.213 (Simulation time: 01 hr 03 min 30 sec)
Heartbeat CPU 0 instructions: 550000108 cycles: 453403527 heartbeat IPC: 1.213 cumulative IPC: 1.213 (Simulation time: 01 hr 04 min 41 sec)
Heartbeat CPU 0 instructions: 560000111 cycles: 461630728 heartbeat IPC: 1.215 cumulative IPC: 1.213 (Simulation time: 01 hr 05 min 58 sec)
Heartbeat CPU 0 instructions: 570000112 cycles: 469891368 heartbeat IPC: 1.211 cumulative IPC: 1.213 (Simulation time: 01 hr 07 min 17 sec)
Heartbeat CPU 0 instructions: 580000116 cycles: 478084561 heartbeat IPC: 1.221 cumulative IPC: 1.213 (Simulation time: 01 hr 08 min 35 sec)
Heartbeat CPU 0 instructions: 590000117 cycles: 486341471 heartbeat IPC: 1.211 cumulative IPC: 1.213 (Simulation time: 01 hr 09 min 54 sec)
Heartbeat CPU 0 instructions: 600000119 cycles: 494578809 heartbeat IPC: 1.214 cumulative IPC: 1.213 (Simulation time: 01 hr 11 min 13 sec)
Heartbeat CPU 0 instructions: 610000122 cycles: 502834849 heartbeat IPC: 1.211 cumulative IPC: 1.213 (Simulation time: 01 hr 12 min 31 sec)
Heartbeat CPU 0 instructions: 620000125 cycles: 511041525 heartbeat IPC: 1.219 cumulative IPC: 1.213 (Simulation time: 01 hr 13 min 48 sec)
Heartbeat CPU 0 instructions: 630000125 cycles: 519301533 heartbeat IPC: 1.211 cumulative IPC: 1.213 (Simulation time: 01 hr 15 min 04 sec)
Heartbeat CPU 0 instructions: 640000129 cycles: 527552697 heartbeat IPC: 1.212 cumulative IPC: 1.213 (Simulation time: 01 hr 16 min 19 sec)
Heartbeat CPU 0 instructions: 650000132 cycles: 535822412 heartbeat IPC: 1.209 cumulative IPC: 1.213 (Simulation time: 01 hr 17 min 35 sec)
Heartbeat CPU 0 instructions: 660000133 cycles: 544008198 heartbeat IPC: 1.222 cumulative IPC: 1.213 (Simulation time: 01 hr 18 min 51 sec)
Heartbeat CPU 0 instructions: 670000137 cycles: 552234550 heartbeat IPC: 1.216 cumulative IPC: 1.213 (Simulation time: 01 hr 20 min 07 sec)
Heartbeat CPU 0 instructions: 680000141 cycles: 560507797 heartbeat IPC: 1.209 cumulative IPC: 1.213 (Simulation time: 01 hr 21 min 24 sec)
Heartbeat CPU 0 instructions: 690000141 cycles: 568746536 heartbeat IPC: 1.214 cumulative IPC: 1.213 (Simulation time: 01 hr 22 min 39 sec)
Heartbeat CPU 0 instructions: 700000141 cycles: 576997447 heartbeat IPC: 1.212 cumulative IPC: 1.213 (Simulation time: 01 hr 23 min 56 sec)
Heartbeat CPU 0 instructions: 710000144 cycles: 585239900 heartbeat IPC: 1.213 cumulative IPC: 1.213 (Simulation time: 01 hr 25 min 12 sec)
Heartbeat CPU 0 instructions: 720000148 cycles: 593483581 heartbeat IPC: 1.213 cumulative IPC: 1.213 (Simulation time: 01 hr 26 min 29 sec)
Heartbeat CPU 0 instructions: 730000148 cycles: 601744449 heartbeat IPC: 1.211 cumulative IPC: 1.213 (Simulation time: 01 hr 27 min 45 sec)
Heartbeat CPU 0 instructions: 740000148 cycles: 609997806 heartbeat IPC: 1.212 cumulative IPC: 1.213 (Simulation time: 01 hr 29 min 02 sec)
Heartbeat CPU 0 instructions: 750000149 cycles: 618250548 heartbeat IPC: 1.212 cumulative IPC: 1.213 (Simulation time: 01 hr 30 min 18 sec)
Heartbeat CPU 0 instructions: 760000150 cycles: 626478919 heartbeat IPC: 1.215 cumulative IPC: 1.213 (Simulation time: 01 hr 31 min 34 sec)
Heartbeat CPU 0 instructions: 770000150 cycles: 634700865 heartbeat IPC: 1.216 cumulative IPC: 1.213 (Simulation time: 01 hr 32 min 50 sec)
Heartbeat CPU 0 instructions: 780000152 cycles: 642960005 heartbeat IPC: 1.211 cumulative IPC: 1.213 (Simulation time: 01 hr 34 min 07 sec)
Heartbeat CPU 0 instructions: 790000153 cycles: 651190241 heartbeat IPC: 1.215 cumulative IPC: 1.213 (Simulation time: 01 hr 35 min 23 sec)
Heartbeat CPU 0 instructions: 800000155 cycles: 659433956 heartbeat IPC: 1.213 cumulative IPC: 1.213 (Simulation time: 01 hr 36 min 39 sec)
Heartbeat CPU 0 instructions: 810000158 cycles: 667690886 heartbeat IPC: 1.211 cumulative IPC: 1.213 (Simulation time: 01 hr 37 min 56 sec)
Heartbeat CPU 0 instructions: 820000159 cycles: 675901852 heartbeat IPC: 1.218 cumulative IPC: 1.213 (Simulation time: 01 hr 39 min 12 sec)
Heartbeat CPU 0 instructions: 830000161 cycles: 684146226 heartbeat IPC: 1.213 cumulative IPC: 1.213 (Simulation time: 01 hr 40 min 28 sec)
Heartbeat CPU 0 instructions: 840000162 cycles: 692389303 heartbeat IPC: 1.213 cumulative IPC: 1.213 (Simulation time: 01 hr 41 min 44 sec)
Heartbeat CPU 0 instructions: 850000162 cycles: 700625189 heartbeat IPC: 1.214 cumulative IPC: 1.213 (Simulation time: 01 hr 43 min 00 sec)
Heartbeat CPU 0 instructions: 860000162 cycles: 708846515 heartbeat IPC: 1.216 cumulative IPC: 1.213 (Simulation time: 01 hr 44 min 16 sec)
Heartbeat CPU 0 instructions: 870000163 cycles: 717062792 heartbeat IPC: 1.217 cumulative IPC: 1.213 (Simulation time: 01 hr 45 min 32 sec)
Heartbeat CPU 0 instructions: 880000164 cycles: 725322965 heartbeat IPC: 1.211 cumulative IPC: 1.213 (Simulation time: 01 hr 46 min 48 sec)
Heartbeat CPU 0 instructions: 890000167 cycles: 733558368 heartbeat IPC: 1.214 cumulative IPC: 1.213 (Simulation time: 01 hr 48 min 04 sec)
Heartbeat CPU 0 instructions: 900000167 cycles: 741749343 heartbeat IPC: 1.221 cumulative IPC: 1.213 (Simulation time: 01 hr 49 min 20 sec)
Heartbeat CPU 0 instructions: 910000170 cycles: 749991549 heartbeat IPC: 1.213 cumulative IPC: 1.213 (Simulation time: 01 hr 50 min 36 sec)
Heartbeat CPU 0 instructions: 920000172 cycles: 758224111 heartbeat IPC: 1.215 cumulative IPC: 1.213 (Simulation time: 01 hr 51 min 52 sec)
Heartbeat CPU 0 instructions: 930000172 cycles: 766474248 heartbeat IPC: 1.212 cumulative IPC: 1.213 (Simulation time: 01 hr 53 min 09 sec)
Heartbeat CPU 0 instructions: 940000173 cycles: 774731413 heartbeat IPC: 1.211 cumulative IPC: 1.213 (Simulation time: 01 hr 54 min 25 sec)
Heartbeat CPU 0 instructions: 950000174 cycles: 783000467 heartbeat IPC: 1.209 cumulative IPC: 1.213 (Simulation time: 01 hr 55 min 38 sec)
Heartbeat CPU 0 instructions: 960000177 cycles: 791284023 heartbeat IPC: 1.207 cumulative IPC: 1.213 (Simulation time: 01 hr 56 min 56 sec)
Heartbeat CPU 0 instructions: 970000177 cycles: 799536677 heartbeat IPC: 1.212 cumulative IPC: 1.213 (Simulation time: 01 hr 58 min 13 sec)
Heartbeat CPU 0 instructions: 980000178 cycles: 807759081 heartbeat IPC: 1.216 cumulative IPC: 1.213 (Simulation time: 01 hr 59 min 26 sec)
Heartbeat CPU 0 instructions: 990000178 cycles: 815992759 heartbeat IPC: 1.215 cumulative IPC: 1.213 (Simulation time: 02 hr 00 min 37 sec)
Heartbeat CPU 0 instructions: 1000000180 cycles: 824258405 heartbeat IPC: 1.21 cumulative IPC: 1.213 (Simulation time: 02 hr 01 min 53 sec)
Heartbeat CPU 0 instructions: 1010000181 cycles: 832528010 heartbeat IPC: 1.209 cumulative IPC: 1.213 (Simulation time: 02 hr 03 min 12 sec)
Heartbeat CPU 0 instructions: 1020000183 cycles: 840779405 heartbeat IPC: 1.212 cumulative IPC: 1.213 (Simulation time: 02 hr 04 min 30 sec)
Heartbeat CPU 0 instructions: 1030000184 cycles: 849026032 heartbeat IPC: 1.213 cumulative IPC: 1.213 (Simulation time: 02 hr 05 min 47 sec)
Heartbeat CPU 0 instructions: 1040000185 cycles: 857226473 heartbeat IPC: 1.219 cumulative IPC: 1.213 (Simulation time: 02 hr 06 min 47 sec)
Heartbeat CPU 0 instructions: 1050000186 cycles: 865471031 heartbeat IPC: 1.213 cumulative IPC: 1.213 (Simulation time: 02 hr 08 min 00 sec)
Heartbeat CPU 0 instructions: 1060000190 cycles: 873687581 heartbeat IPC: 1.217 cumulative IPC: 1.213 (Simulation time: 02 hr 08 min 59 sec)
Heartbeat CPU 0 instructions: 1070000194 cycles: 881908706 heartbeat IPC: 1.216 cumulative IPC: 1.213 (Simulation time: 02 hr 10 min 11 sec)
Heartbeat CPU 0 instructions: 1080000194 cycles: 890115012 heartbeat IPC: 1.219 cumulative IPC: 1.213 (Simulation time: 02 hr 11 min 26 sec)
Heartbeat CPU 0 instructions: 1090000194 cycles: 898419145 heartbeat IPC: 1.204 cumulative IPC: 1.213 (Simulation time: 02 hr 12 min 38 sec)
Heartbeat CPU 0 instructions: 1100000194 cycles: 906695983 heartbeat IPC: 1.208 cumulative IPC: 1.213 (Simulation time: 02 hr 13 min 55 sec)
Heartbeat CPU 0 instructions: 1110000198 cycles: 914979181 heartbeat IPC: 1.207 cumulative IPC: 1.213 (Simulation time: 02 hr 15 min 11 sec)
Heartbeat CPU 0 instructions: 1120000200 cycles: 923208796 heartbeat IPC: 1.215 cumulative IPC: 1.213 (Simulation time: 02 hr 16 min 25 sec)
Heartbeat CPU 0 instructions: 1130000201 cycles: 931450445 heartbeat IPC: 1.213 cumulative IPC: 1.213 (Simulation time: 02 hr 17 min 40 sec)
Heartbeat CPU 0 instructions: 1140000204 cycles: 939693660 heartbeat IPC: 1.213 cumulative IPC: 1.213 (Simulation time: 02 hr 18 min 54 sec)
Heartbeat CPU 0 instructions: 1150000204 cycles: 947940469 heartbeat IPC: 1.213 cumulative IPC: 1.213 (Simulation time: 02 hr 20 min 08 sec)
Heartbeat CPU 0 instructions: 1160000206 cycles: 956189857 heartbeat IPC: 1.212 cumulative IPC: 1.213 (Simulation time: 02 hr 21 min 11 sec)
Heartbeat CPU 0 instructions: 1170000209 cycles: 964420335 heartbeat IPC: 1.215 cumulative IPC: 1.213 (Simulation time: 02 hr 22 min 18 sec)
Heartbeat CPU 0 instructions: 1180000209 cycles: 972657781 heartbeat IPC: 1.214 cumulative IPC: 1.213 (Simulation time: 02 hr 23 min 25 sec)
Heartbeat CPU 0 instructions: 1190000210 cycles: 980903369 heartbeat IPC: 1.213 cumulative IPC: 1.213 (Simulation time: 02 hr 24 min 38 sec)
Heartbeat CPU 0 instructions: 1200000211 cycles: 989146973 heartbeat IPC: 1.213 cumulative IPC: 1.213 (Simulation time: 02 hr 25 min 56 sec)
Heartbeat CPU 0 instructions: 1210000214 cycles: 997408488 heartbeat IPC: 1.21 cumulative IPC: 1.213 (Simulation time: 02 hr 27 min 07 sec)
Heartbeat CPU 0 instructions: 1220000214 cycles: 1005628480 heartbeat IPC: 1.217 cumulative IPC: 1.213 (Simulation time: 02 hr 28 min 10 sec)
Heartbeat CPU 0 instructions: 1230000215 cycles: 1013840619 heartbeat IPC: 1.218 cumulative IPC: 1.213 (Simulation time: 02 hr 29 min 22 sec)
Heartbeat CPU 0 instructions: 1240000215 cycles: 1022086281 heartbeat IPC: 1.213 cumulative IPC: 1.213 (Simulation time: 02 hr 30 min 21 sec)
Heartbeat CPU 0 instructions: 1250000217 cycles: 1030313275 heartbeat IPC: 1.216 cumulative IPC: 1.213 (Simulation time: 02 hr 31 min 28 sec)
Heartbeat CPU 0 instructions: 1260000220 cycles: 1038560158 heartbeat IPC: 1.213 cumulative IPC: 1.213 (Simulation time: 02 hr 32 min 45 sec)
Heartbeat CPU 0 instructions: 1270000220 cycles: 1046790503 heartbeat IPC: 1.215 cumulative IPC: 1.213 (Simulation time: 02 hr 34 min 03 sec)
Heartbeat CPU 0 instructions: 1280000221 cycles: 1055044442 heartbeat IPC: 1.212 cumulative IPC: 1.213 (Simulation time: 02 hr 35 min 07 sec)
Heartbeat CPU 0 instructions: 1290000222 cycles: 1063278438 heartbeat IPC: 1.214 cumulative IPC: 1.213 (Simulation time: 02 hr 35 min 58 sec)
Heartbeat CPU 0 instructions: 1300000225 cycles: 1071532431 heartbeat IPC: 1.212 cumulative IPC: 1.213 (Simulation time: 02 hr 36 min 49 sec)
Heartbeat CPU 0 instructions: 1310000229 cycles: 1079797225 heartbeat IPC: 1.21 cumulative IPC: 1.213 (Simulation time: 02 hr 37 min 46 sec)
Heartbeat CPU 0 instructions: 1320000231 cycles: 1088036219 heartbeat IPC: 1.214 cumulative IPC: 1.213 (Simulation time: 02 hr 38 min 58 sec)
Heartbeat CPU 0 instructions: 1330000231 cycles: 1096295323 heartbeat IPC: 1.211 cumulative IPC: 1.213 (Simulation time: 02 hr 40 min 15 sec)
Heartbeat CPU 0 instructions: 1340000232 cycles: 1104537906 heartbeat IPC: 1.213 cumulative IPC: 1.213 (Simulation time: 02 hr 41 min 17 sec)
Heartbeat CPU 0 instructions: 1350000236 cycles: 1112732611 heartbeat IPC: 1.22 cumulative IPC: 1.213 (Simulation time: 02 hr 42 min 07 sec)
Heartbeat CPU 0 instructions: 1360000237 cycles: 1120967345 heartbeat IPC: 1.214 cumulative IPC: 1.213 (Simulation time: 02 hr 43 min 00 sec)
Heartbeat CPU 0 instructions: 1370000241 cycles: 1129257841 heartbeat IPC: 1.206 cumulative IPC: 1.213 (Simulation time: 02 hr 43 min 52 sec)
Heartbeat CPU 0 instructions: 1380000241 cycles: 1137513954 heartbeat IPC: 1.211 cumulative IPC: 1.213 (Simulation time: 02 hr 44 min 58 sec)
Heartbeat CPU 0 instructions: 1390000244 cycles: 1145770345 heartbeat IPC: 1.211 cumulative IPC: 1.213 (Simulation time: 02 hr 46 min 14 sec)
Heartbeat CPU 0 instructions: 1400000247 cycles: 1154038264 heartbeat IPC: 1.209 cumulative IPC: 1.213 (Simulation time: 02 hr 47 min 30 sec)
Heartbeat CPU 0 instructions: 1410000248 cycles: 1162284224 heartbeat IPC: 1.213 cumulative IPC: 1.213 (Simulation time: 02 hr 48 min 46 sec)
Heartbeat CPU 0 instructions: 1420000252 cycles: 1170536304 heartbeat IPC: 1.212 cumulative IPC: 1.213 (Simulation time: 02 hr 50 min 02 sec)
Heartbeat CPU 0 instructions: 1430000252 cycles: 1178821829 heartbeat IPC: 1.207 cumulative IPC: 1.213 (Simulation time: 02 hr 51 min 18 sec)
Heartbeat CPU 0 instructions: 1440000252 cycles: 1187069934 heartbeat IPC: 1.212 cumulative IPC: 1.213 (Simulation time: 02 hr 52 min 34 sec)
Heartbeat CPU 0 instructions: 1450000253 cycles: 1195319455 heartbeat IPC: 1.212 cumulative IPC: 1.213 (Simulation time: 02 hr 53 min 51 sec)
Heartbeat CPU 0 instructions: 1460000254 cycles: 1203543558 heartbeat IPC: 1.216 cumulative IPC: 1.213 (Simulation time: 02 hr 54 min 53 sec)
Heartbeat CPU 0 instructions: 1470000255 cycles: 1211769284 heartbeat IPC: 1.216 cumulative IPC: 1.213 (Simulation time: 02 hr 56 min 01 sec)
Heartbeat CPU 0 instructions: 1480000255 cycles: 1220017783 heartbeat IPC: 1.212 cumulative IPC: 1.213 (Simulation time: 02 hr 57 min 19 sec)
Heartbeat CPU 0 instructions: 1490000258 cycles: 1228261700 heartbeat IPC: 1.213 cumulative IPC: 1.213 (Simulation time: 02 hr 58 min 36 sec)
Heartbeat CPU 0 instructions: 1500000259 cycles: 1236504893 heartbeat IPC: 1.213 cumulative IPC: 1.213 (Simulation time: 02 hr 59 min 42 sec)
Heartbeat CPU 0 instructions: 1510000262 cycles: 1244777605 heartbeat IPC: 1.209 cumulative IPC: 1.213 (Simulation time: 03 hr 01 min 00 sec)
Heartbeat CPU 0 instructions: 1520000266 cycles: 1252965782 heartbeat IPC: 1.221 cumulative IPC: 1.213 (Simulation time: 03 hr 02 min 13 sec)
Heartbeat CPU 0 instructions: 1530000268 cycles: 1261256193 heartbeat IPC: 1.206 cumulative IPC: 1.213 (Simulation time: 03 hr 03 min 14 sec)
Heartbeat CPU 0 instructions: 1540000269 cycles: 1269464674 heartbeat IPC: 1.218 cumulative IPC: 1.213 (Simulation time: 03 hr 04 min 21 sec)
Heartbeat CPU 0 instructions: 1550000271 cycles: 1277716472 heartbeat IPC: 1.212 cumulative IPC: 1.213 (Simulation time: 03 hr 05 min 21 sec)
Heartbeat CPU 0 instructions: 1560000273 cycles: 1285924247 heartbeat IPC: 1.218 cumulative IPC: 1.213 (Simulation time: 03 hr 06 min 24 sec)
Heartbeat CPU 0 instructions: 1570000273 cycles: 1294165570 heartbeat IPC: 1.213 cumulative IPC: 1.213 (Simulation time: 03 hr 07 min 28 sec)
Heartbeat CPU 0 instructions: 1580000274 cycles: 1302402130 heartbeat IPC: 1.214 cumulative IPC: 1.213 (Simulation time: 03 hr 08 min 31 sec)
Heartbeat CPU 0 instructions: 1590000277 cycles: 1310650829 heartbeat IPC: 1.212 cumulative IPC: 1.213 (Simulation time: 03 hr 09 min 42 sec)
Heartbeat CPU 0 instructions: 1600000278 cycles: 1318928846 heartbeat IPC: 1.208 cumulative IPC: 1.213 (Simulation time: 03 hr 11 min 02 sec)
Heartbeat CPU 0 instructions: 1610000279 cycles: 1327142738 heartbeat IPC: 1.217 cumulative IPC: 1.213 (Simulation time: 03 hr 12 min 19 sec)
Heartbeat CPU 0 instructions: 1620000279 cycles: 1335408465 heartbeat IPC: 1.21 cumulative IPC: 1.213 (Simulation time: 03 hr 13 min 35 sec)
Heartbeat CPU 0 instructions: 1630000281 cycles: 1343624370 heartbeat IPC: 1.217 cumulative IPC: 1.213 (Simulation time: 03 hr 14 min 51 sec)
Heartbeat CPU 0 instructions: 1640000282 cycles: 1351853173 heartbeat IPC: 1.215 cumulative IPC: 1.213 (Simulation time: 03 hr 16 min 07 sec)
Heartbeat CPU 0 instructions: 1650000284 cycles: 1360115832 heartbeat IPC: 1.21 cumulative IPC: 1.213 (Simulation time: 03 hr 17 min 24 sec)
Heartbeat CPU 0 instructions: 1660000285 cycles: 1368325965 heartbeat IPC: 1.218 cumulative IPC: 1.213 (Simulation time: 03 hr 18 min 40 sec)
Heartbeat CPU 0 instructions: 1670000285 cycles: 1376587813 heartbeat IPC: 1.21 cumulative IPC: 1.213 (Simulation time: 03 hr 19 min 56 sec)
Heartbeat CPU 0 instructions: 1680000286 cycles: 1384843858 heartbeat IPC: 1.211 cumulative IPC: 1.213 (Simulation time: 03 hr 21 min 12 sec)
Heartbeat CPU 0 instructions: 1690000289 cycles: 1393100802 heartbeat IPC: 1.211 cumulative IPC: 1.213 (Simulation time: 03 hr 22 min 29 sec)
Heartbeat CPU 0 instructions: 1700000290 cycles: 1401359037 heartbeat IPC: 1.211 cumulative IPC: 1.213 (Simulation time: 03 hr 23 min 45 sec)
Heartbeat CPU 0 instructions: 1710000291 cycles: 1409592429 heartbeat IPC: 1.215 cumulative IPC: 1.213 (Simulation time: 03 hr 25 min 01 sec)
Heartbeat CPU 0 instructions: 1720000292 cycles: 1417856532 heartbeat IPC: 1.21 cumulative IPC: 1.213 (Simulation time: 03 hr 26 min 17 sec)
Heartbeat CPU 0 instructions: 1730000293 cycles: 1426113856 heartbeat IPC: 1.211 cumulative IPC: 1.213 (Simulation time: 03 hr 27 min 24 sec)
Heartbeat CPU 0 instructions: 1740000295 cycles: 1434373164 heartbeat IPC: 1.211 cumulative IPC: 1.213 (Simulation time: 03 hr 28 min 23 sec)
Heartbeat CPU 0 instructions: 1750000296 cycles: 1442575739 heartbeat IPC: 1.219 cumulative IPC: 1.213 (Simulation time: 03 hr 29 min 31 sec)
Heartbeat CPU 0 instructions: 1760000299 cycles: 1450850517 heartbeat IPC: 1.208 cumulative IPC: 1.213 (Simulation time: 03 hr 30 min 47 sec)
Heartbeat CPU 0 instructions: 1770000303 cycles: 1459127348 heartbeat IPC: 1.208 cumulative IPC: 1.213 (Simulation time: 03 hr 31 min 57 sec)
Heartbeat CPU 0 instructions: 1780000303 cycles: 1467379745 heartbeat IPC: 1.212 cumulative IPC: 1.213 (Simulation time: 03 hr 33 min 05 sec)
Heartbeat CPU 0 instructions: 1790000306 cycles: 1475644781 heartbeat IPC: 1.21 cumulative IPC: 1.213 (Simulation time: 03 hr 34 min 23 sec)
Heartbeat CPU 0 instructions: 1800000307 cycles: 1483921314 heartbeat IPC: 1.208 cumulative IPC: 1.213 (Simulation time: 03 hr 35 min 35 sec)
Heartbeat CPU 0 instructions: 1810000308 cycles: 1492174663 heartbeat IPC: 1.212 cumulative IPC: 1.213 (Simulation time: 03 hr 36 min 45 sec)
Heartbeat CPU 0 instructions: 1820000309 cycles: 1500444458 heartbeat IPC: 1.209 cumulative IPC: 1.213 (Simulation time: 03 hr 38 min 04 sec)
Heartbeat CPU 0 instructions: 1830000310 cycles: 1508683170 heartbeat IPC: 1.214 cumulative IPC: 1.213 (Simulation time: 03 hr 39 min 20 sec)
Heartbeat CPU 0 instructions: 1840000314 cycles: 1516901793 heartbeat IPC: 1.217 cumulative IPC: 1.213 (Simulation time: 03 hr 40 min 37 sec)
Heartbeat CPU 0 instructions: 1850000315 cycles: 1525151374 heartbeat IPC: 1.212 cumulative IPC: 1.213 (Simulation time: 03 hr 41 min 54 sec)
Heartbeat CPU 0 instructions: 1860000319 cycles: 1533381397 heartbeat IPC: 1.215 cumulative IPC: 1.213 (Simulation time: 03 hr 42 min 53 sec)
Heartbeat CPU 0 instructions: 1870000319 cycles: 1541604149 heartbeat IPC: 1.216 cumulative IPC: 1.213 (Simulation time: 03 hr 43 min 55 sec)
Heartbeat CPU 0 instructions: 1880000323 cycles: 1549845984 heartbeat IPC: 1.213 cumulative IPC: 1.213 (Simulation time: 03 hr 44 min 54 sec)
Heartbeat CPU 0 instructions: 1890000324 cycles: 1558095541 heartbeat IPC: 1.212 cumulative IPC: 1.213 (Simulation time: 03 hr 45 min 49 sec)
Heartbeat CPU 0 instructions: 1900000325 cycles: 1566368718 heartbeat IPC: 1.209 cumulative IPC: 1.213 (Simulation time: 03 hr 46 min 51 sec)
Heartbeat CPU 0 instructions: 1910000327 cycles: 1574597917 heartbeat IPC: 1.215 cumulative IPC: 1.213 (Simulation time: 03 hr 48 min 04 sec)
Heartbeat CPU 0 instructions: 1920000328 cycles: 1582833924 heartbeat IPC: 1.214 cumulative IPC: 1.213 (Simulation time: 03 hr 49 min 23 sec)
Heartbeat CPU 0 instructions: 1930000329 cycles: 1591021118 heartbeat IPC: 1.221 cumulative IPC: 1.213 (Simulation time: 03 hr 50 min 41 sec)
Heartbeat CPU 0 instructions: 1940000329 cycles: 1599269399 heartbeat IPC: 1.212 cumulative IPC: 1.213 (Simulation time: 03 hr 52 min 01 sec)
Heartbeat CPU 0 instructions: 1950000329 cycles: 1607524115 heartbeat IPC: 1.211 cumulative IPC: 1.213 (Simulation time: 03 hr 53 min 16 sec)
Heartbeat CPU 0 instructions: 1960000332 cycles: 1615752443 heartbeat IPC: 1.215 cumulative IPC: 1.213 (Simulation time: 03 hr 54 min 19 sec)
Heartbeat CPU 0 instructions: 1970000334 cycles: 1623984502 heartbeat IPC: 1.215 cumulative IPC: 1.213 (Simulation time: 03 hr 55 min 37 sec)
Heartbeat CPU 0 instructions: 1980000335 cycles: 1632215617 heartbeat IPC: 1.215 cumulative IPC: 1.213 (Simulation time: 03 hr 56 min 51 sec)
Heartbeat CPU 0 instructions: 1990000336 cycles: 1640455335 heartbeat IPC: 1.214 cumulative IPC: 1.213 (Simulation time: 03 hr 57 min 48 sec)

=== ERROR PAGE STATISTICS ===
Mode: CYCLE
Error Cycle Interval: 200000000000 CPU cycles
Total Error Accesses: 0
==============================
Simulation finished CPU 0 instructions: 1999999656 cycles: 1648729523 cumulative IPC: 1.213 (Simulation time: 03 hr 58 min 51 sec)
Simulation complete CPU 0 instructions: 1999999656 cycles: 1648729523 cumulative IPC: 1.213 (Simulation time: 03 hr 58 min 51 sec)

ChampSim completed all CPUs

=== Simulation ===
CPU 0 runs test_traces/603.bwaves_s-2931B.champsimtrace.xz

Region of Interest Statistics

CPU 0 cumulative IPC: 1.213 instructions: 1999999656 cycles: 1648729523
CPU 0 Branch Prediction Accuracy: 80.62% MPKI: 1.636 Average ROB Occupancy at Mispredict: 300.1
Branch type MPKI
BRANCH_DIRECT_JUMP: 0
BRANCH_INDIRECT: 0
BRANCH_CONDITIONAL: 1.636
BRANCH_DIRECT_CALL: 0
BRANCH_INDIRECT_CALL: 0
BRANCH_RETURN: 0

cpu0->cpu0_STLB TOTAL        ACCESS:    3384147 HIT:    2958105 MISS:     426042 MSHR_MERGE:          0
cpu0->cpu0_STLB LOAD         ACCESS:    3384147 HIT:    2958105 MISS:     426042 MSHR_MERGE:          0
cpu0->cpu0_STLB RFO          ACCESS:          0 HIT:          0 MISS:          0 MSHR_MERGE:          0
cpu0->cpu0_STLB PREFETCH     ACCESS:          0 HIT:          0 MISS:          0 MSHR_MERGE:          0
cpu0->cpu0_STLB WRITE        ACCESS:          0 HIT:          0 MISS:          0 MSHR_MERGE:          0
cpu0->cpu0_STLB TRANSLATION  ACCESS:          0 HIT:          0 MISS:          0 MSHR_MERGE:          0
cpu0->cpu0_STLB PREFETCH REQUESTED:          0 ISSUED:          0 USEFUL:          0 USELESS:          0
cpu0->cpu0_STLB AVERAGE MISS LATENCY: 596.4 cycles
cpu0->cpu0_L2C TOTAL        ACCESS:   46442873 HIT:   17124908 MISS:   29317965 MSHR_MERGE:          0
cpu0->cpu0_L2C LOAD         ACCESS:   20696735 HIT:    3286762 MISS:   17409973 MSHR_MERGE:          0
cpu0->cpu0_L2C RFO          ACCESS:   12796237 HIT:     888542 MISS:   11907695 MSHR_MERGE:          0
cpu0->cpu0_L2C PREFETCH     ACCESS:          0 HIT:          0 MISS:          0 MSHR_MERGE:          0
cpu0->cpu0_L2C WRITE        ACCESS:   12949901 HIT:   12949604 MISS:        297 MSHR_MERGE:          0
cpu0->cpu0_L2C TRANSLATION  ACCESS:          0 HIT:          0 MISS:          0 MSHR_MERGE:          0
cpu0->cpu0_L2C PREFETCH REQUESTED:          0 ISSUED:          0 USEFUL:          0 USELESS:          0
cpu0->cpu0_L2C AVERAGE MISS LATENCY: 120.5 cycles
cpu0->cpu0_L1I TOTAL        ACCESS:  226527933 HIT:  226527864 MISS:         69 MSHR_MERGE:         20
cpu0->cpu0_L1I LOAD         ACCESS:  226527933 HIT:  226527864 MISS:         69 MSHR_MERGE:         20
cpu0->cpu0_L1I RFO          ACCESS:          0 HIT:          0 MISS:          0 MSHR_MERGE:          0
cpu0->cpu0_L1I PREFETCH     ACCESS:          0 HIT:          0 MISS:          0 MSHR_MERGE:          0
cpu0->cpu0_L1I WRITE        ACCESS:          0 HIT:          0 MISS:          0 MSHR_MERGE:          0
cpu0->cpu0_L1I TRANSLATION  ACCESS:          0 HIT:          0 MISS:          0 MSHR_MERGE:          0
cpu0->cpu0_L1I PREFETCH REQUESTED:          0 ISSUED:          0 USEFUL:          0 USELESS:          0
cpu0->cpu0_L1I AVERAGE MISS LATENCY: 129.7 cycles
cpu0->cpu0_L1D TOTAL        ACCESS:  656810833 HIT:  603884381 MISS:   52926452 MSHR_MERGE:   19419978
cpu0->cpu0_L1D LOAD         ACCESS:  290880828 HIT:  269932098 MISS:   20948730 MSHR_MERGE:     251680
cpu0->cpu0_L1D RFO          ACCESS:          0 HIT:          0 MISS:          0 MSHR_MERGE:          0
cpu0->cpu0_L1D PREFETCH     ACCESS:          0 HIT:          0 MISS:          0 MSHR_MERGE:          0
cpu0->cpu0_L1D WRITE        ACCESS:  365930005 HIT:  333952283 MISS:   31977722 MSHR_MERGE:   19168298
cpu0->cpu0_L1D TRANSLATION  ACCESS:          0 HIT:          0 MISS:          0 MSHR_MERGE:          0
cpu0->cpu0_L1D PREFETCH REQUESTED:          0 ISSUED:          0 USEFUL:          0 USELESS:          0
cpu0->cpu0_L1D AVERAGE MISS LATENCY: 114.5 cycles
cpu0->cpu0_ITLB TOTAL        ACCESS:  180891123 HIT:  180891115 MISS:          8 MSHR_MERGE:          6
cpu0->cpu0_ITLB LOAD         ACCESS:  180891123 HIT:  180891115 MISS:          8 MSHR_MERGE:          6
cpu0->cpu0_ITLB RFO          ACCESS:          0 HIT:          0 MISS:          0 MSHR_MERGE:          0
cpu0->cpu0_ITLB PREFETCH     ACCESS:          0 HIT:          0 MISS:          0 MSHR_MERGE:          0
cpu0->cpu0_ITLB WRITE        ACCESS:          0 HIT:          0 MISS:          0 MSHR_MERGE:          0
cpu0->cpu0_ITLB TRANSLATION  ACCESS:          0 HIT:          0 MISS:          0 MSHR_MERGE:          0
cpu0->cpu0_ITLB PREFETCH REQUESTED:          0 ISSUED:          0 USEFUL:          0 USELESS:          0
cpu0->cpu0_ITLB AVERAGE MISS LATENCY: 974.5 cycles
cpu0->cpu0_DTLB TOTAL        ACCESS:  555147776 HIT:  551378110 MISS:    3769666 MSHR_MERGE:     385521
cpu0->cpu0_DTLB LOAD         ACCESS:  555147776 HIT:  551378110 MISS:    3769666 MSHR_MERGE:     385521
cpu0->cpu0_DTLB RFO          ACCESS:          0 HIT:          0 MISS:          0 MSHR_MERGE:          0
cpu0->cpu0_DTLB PREFETCH     ACCESS:          0 HIT:          0 MISS:          0 MSHR_MERGE:          0
cpu0->cpu0_DTLB WRITE        ACCESS:          0 HIT:          0 MISS:          0 MSHR_MERGE:          0
cpu0->cpu0_DTLB TRANSLATION  ACCESS:          0 HIT:          0 MISS:          0 MSHR_MERGE:          0
cpu0->cpu0_DTLB PREFETCH REQUESTED:          0 ISSUED:          0 USEFUL:          0 USELESS:          0
cpu0->cpu0_DTLB AVERAGE MISS LATENCY: 80.24 cycles
cpu0->LLC TOTAL        ACCESS:   41223666 HIT:   13962386 MISS:   27261280 MSHR_MERGE:          0
cpu0->LLC LOAD         ACCESS:   17409973 HIT:    2056916 MISS:   15353057 MSHR_MERGE:          0
cpu0->LLC RFO          ACCESS:   11907695 HIT:          2 MISS:   11907693 MSHR_MERGE:          0
cpu0->LLC PREFETCH     ACCESS:          0 HIT:          0 MISS:          0 MSHR_MERGE:          0
cpu0->LLC WRITE        ACCESS:   11905998 HIT:   11905468 MISS:        530 MSHR_MERGE:          0
cpu0->LLC TRANSLATION  ACCESS:          0 HIT:          0 MISS:          0 MSHR_MERGE:          0
cpu0->LLC PREFETCH REQUESTED:          0 ISSUED:          0 USEFUL:          0 USELESS:          0
cpu0->LLC AVERAGE MISS LATENCY: 112.5 cycles

DRAM Statistics

Channel 0 RQ ROW_BUFFER_HIT:       1285
  ROW_BUFFER_MISS:   14054651
  AVG DBUS CONGESTED CYCLE: 9.732
Channel 0 WQ ROW_BUFFER_HIT:    1056314
  ROW_BUFFER_MISS:    4891139
  FULL:          0
Channel 0 REFRESHES ISSUED:     137385

Channel 1 RQ ROW_BUFFER_HIT:       1234
  ROW_BUFFER_MISS:   14056614
  AVG DBUS CONGESTED CYCLE: 9.733
Channel 1 WQ ROW_BUFFER_HIT:    1057764
  ROW_BUFFER_MISS:    4889607
  FULL:          0
Channel 1 REFRESHES ISSUED:     137385
