
*** ChampSim Multicore Out-of-Order Simulator ***
Warmup Instructions: 0
Simulation Instructions: 9223372036854775807
Number of CPUs: 1
Page size: 2097152

Off-chip DRAM Size: 64 GiB Channels: 2 Width: 32-bit Data Rate: 4807 MT/s
[ERROR_PAGE_MANAGER] Error latency: 1990500 
[ERROR_PAGE_MANAGER] Random seed: 54321 (fixed for preload reproducibility)
[ERROR_PAGE_MANAGER] Cycle-based error modeling enabled
[ERROR_PAGE_MANAGER] Errors per interval: 1
[ERROR_PAGE_MANAGER] Error cycle interval: 10000000000 cycles

=== ERROR PAGE STATISTICS ===
Mode: CYCLE
Error Cycle Interval: 10000000000 CPU cycles
Total Error Accesses: 0
==============================
Warmup finished CPU 0 instructions: 0 cycles: 1 cumulative IPC: 0 (Simulation time: 00 hr 00 min 00 sec)
Warmup complete CPU 0 instructions: 0 cycles: 1 cumulative IPC: 0 (Simulation time: 00 hr 00 min 00 sec)
Heartbeat CPU 0 instructions: 10000003 cycles: 6923695 heartbeat IPC: 1.444 cumulative IPC: 1.444 (Simulation time: 00 hr 00 min 54 sec)
Heartbeat CPU 0 instructions: 20000005 cycles: 14651859 heartbeat IPC: 1.294 cumulative IPC: 1.365 (Simulation time: 00 hr 01 min 45 sec)
Heartbeat CPU 0 instructions: 30000009 cycles: 23907260 heartbeat IPC: 1.08 cumulative IPC: 1.255 (Simulation time: 00 hr 03 min 04 sec)
Heartbeat CPU 0 instructions: 40000010 cycles: 32476793 heartbeat IPC: 1.167 cumulative IPC: 1.232 (Simulation time: 00 hr 04 min 17 sec)
Heartbeat CPU 0 instructions: 50000010 cycles: 40436067 heartbeat IPC: 1.256 cumulative IPC: 1.237 (Simulation time: 00 hr 05 min 16 sec)
Heartbeat CPU 0 instructions: 60000013 cycles: 48023514 heartbeat IPC: 1.318 cumulative IPC: 1.249 (Simulation time: 00 hr 06 min 10 sec)
Heartbeat CPU 0 instructions: 70000014 cycles: 55423274 heartbeat IPC: 1.351 cumulative IPC: 1.263 (Simulation time: 00 hr 07 min 07 sec)
Heartbeat CPU 0 instructions: 80000014 cycles: 61426240 heartbeat IPC: 1.666 cumulative IPC: 1.302 (Simulation time: 00 hr 07 min 50 sec)
Heartbeat CPU 0 instructions: 90000015 cycles: 67194950 heartbeat IPC: 1.733 cumulative IPC: 1.339 (Simulation time: 00 hr 08 min 42 sec)
Heartbeat CPU 0 instructions: 100000015 cycles: 73854650 heartbeat IPC: 1.502 cumulative IPC: 1.354 (Simulation time: 00 hr 09 min 41 sec)
Heartbeat CPU 0 instructions: 110000018 cycles: 82571015 heartbeat IPC: 1.147 cumulative IPC: 1.332 (Simulation time: 00 hr 10 min 53 sec)
Heartbeat CPU 0 instructions: 120000020 cycles: 91052071 heartbeat IPC: 1.179 cumulative IPC: 1.318 (Simulation time: 00 hr 12 min 03 sec)
Heartbeat CPU 0 instructions: 130000020 cycles: 98958614 heartbeat IPC: 1.265 cumulative IPC: 1.314 (Simulation time: 00 hr 13 min 15 sec)
Heartbeat CPU 0 instructions: 140000021 cycles: 106543108 heartbeat IPC: 1.318 cumulative IPC: 1.314 (Simulation time: 00 hr 14 min 25 sec)
Heartbeat CPU 0 instructions: 150000022 cycles: 113248650 heartbeat IPC: 1.491 cumulative IPC: 1.325 (Simulation time: 00 hr 15 min 29 sec)
Heartbeat CPU 0 instructions: 160000024 cycles: 119051677 heartbeat IPC: 1.723 cumulative IPC: 1.344 (Simulation time: 00 hr 16 min 29 sec)
Heartbeat CPU 0 instructions: 170000027 cycles: 126022510 heartbeat IPC: 1.435 cumulative IPC: 1.349 (Simulation time: 00 hr 17 min 32 sec)
Heartbeat CPU 0 instructions: 180000031 cycles: 134959979 heartbeat IPC: 1.119 cumulative IPC: 1.334 (Simulation time: 00 hr 18 min 48 sec)
Heartbeat CPU 0 instructions: 190000035 cycles: 143181227 heartbeat IPC: 1.216 cumulative IPC: 1.327 (Simulation time: 00 hr 19 min 59 sec)
Heartbeat CPU 0 instructions: 200000037 cycles: 150227766 heartbeat IPC: 1.419 cumulative IPC: 1.331 (Simulation time: 00 hr 20 min 49 sec)
Heartbeat CPU 0 instructions: 210000041 cycles: 158993456 heartbeat IPC: 1.141 cumulative IPC: 1.321 (Simulation time: 00 hr 21 min 56 sec)
Heartbeat CPU 0 instructions: 220000041 cycles: 167442366 heartbeat IPC: 1.184 cumulative IPC: 1.314 (Simulation time: 00 hr 23 min 11 sec)
Heartbeat CPU 0 instructions: 230000042 cycles: 175369028 heartbeat IPC: 1.262 cumulative IPC: 1.312 (Simulation time: 00 hr 24 min 23 sec)
Heartbeat CPU 0 instructions: 240000046 cycles: 182946514 heartbeat IPC: 1.32 cumulative IPC: 1.312 (Simulation time: 00 hr 25 min 33 sec)
Heartbeat CPU 0 instructions: 250000047 cycles: 190318778 heartbeat IPC: 1.356 cumulative IPC: 1.314 (Simulation time: 00 hr 26 min 41 sec)
Heartbeat CPU 0 instructions: 260000047 cycles: 197499398 heartbeat IPC: 1.393 cumulative IPC: 1.316 (Simulation time: 00 hr 27 min 48 sec)
Heartbeat CPU 0 instructions: 270000047 cycles: 204546346 heartbeat IPC: 1.419 cumulative IPC: 1.32 (Simulation time: 00 hr 28 min 51 sec)
Heartbeat CPU 0 instructions: 280000048 cycles: 211505552 heartbeat IPC: 1.437 cumulative IPC: 1.324 (Simulation time: 00 hr 29 min 44 sec)
Heartbeat CPU 0 instructions: 290000050 cycles: 217188751 heartbeat IPC: 1.76 cumulative IPC: 1.335 (Simulation time: 00 hr 30 min 39 sec)
Heartbeat CPU 0 instructions: 300000051 cycles: 222384057 heartbeat IPC: 1.925 cumulative IPC: 1.349 (Simulation time: 00 hr 31 min 34 sec)
Heartbeat CPU 0 instructions: 310000051 cycles: 227803930 heartbeat IPC: 1.845 cumulative IPC: 1.361 (Simulation time: 00 hr 32 min 31 sec)
Heartbeat CPU 0 instructions: 320000051 cycles: 233453379 heartbeat IPC: 1.77 cumulative IPC: 1.371 (Simulation time: 00 hr 33 min 28 sec)
Heartbeat CPU 0 instructions: 330000051 cycles: 239373045 heartbeat IPC: 1.689 cumulative IPC: 1.379 (Simulation time: 00 hr 34 min 27 sec)
Heartbeat CPU 0 instructions: 340000051 cycles: 245755081 heartbeat IPC: 1.567 cumulative IPC: 1.383 (Simulation time: 00 hr 35 min 29 sec)
Heartbeat CPU 0 instructions: 350000053 cycles: 252908701 heartbeat IPC: 1.398 cumulative IPC: 1.384 (Simulation time: 00 hr 36 min 35 sec)
Heartbeat CPU 0 instructions: 360000054 cycles: 261797183 heartbeat IPC: 1.125 cumulative IPC: 1.375 (Simulation time: 00 hr 37 min 53 sec)
Heartbeat CPU 0 instructions: 370000054 cycles: 269925314 heartbeat IPC: 1.23 cumulative IPC: 1.371 (Simulation time: 00 hr 39 min 08 sec)
Heartbeat CPU 0 instructions: 380000056 cycles: 278495902 heartbeat IPC: 1.167 cumulative IPC: 1.364 (Simulation time: 00 hr 40 min 26 sec)
Heartbeat CPU 0 instructions: 390000059 cycles: 286664306 heartbeat IPC: 1.224 cumulative IPC: 1.36 (Simulation time: 00 hr 41 min 40 sec)
Heartbeat CPU 0 instructions: 400000059 cycles: 294357274 heartbeat IPC: 1.3 cumulative IPC: 1.359 (Simulation time: 00 hr 42 min 50 sec)
Heartbeat CPU 0 instructions: 410000063 cycles: 301808182 heartbeat IPC: 1.342 cumulative IPC: 1.358 (Simulation time: 00 hr 43 min 57 sec)
Heartbeat CPU 0 instructions: 420000063 cycles: 308834772 heartbeat IPC: 1.423 cumulative IPC: 1.36 (Simulation time: 00 hr 44 min 56 sec)
Heartbeat CPU 0 instructions: 430000064 cycles: 314280085 heartbeat IPC: 1.836 cumulative IPC: 1.368 (Simulation time: 00 hr 45 min 49 sec)
Heartbeat CPU 0 instructions: 440000064 cycles: 320262383 heartbeat IPC: 1.672 cumulative IPC: 1.374 (Simulation time: 00 hr 46 min 31 sec)
Heartbeat CPU 0 instructions: 450000064 cycles: 327267641 heartbeat IPC: 1.427 cumulative IPC: 1.375 (Simulation time: 00 hr 47 min 15 sec)
Heartbeat CPU 0 instructions: 460000065 cycles: 336072001 heartbeat IPC: 1.136 cumulative IPC: 1.369 (Simulation time: 00 hr 48 min 07 sec)
Heartbeat CPU 0 instructions: 470000065 cycles: 344849323 heartbeat IPC: 1.139 cumulative IPC: 1.363 (Simulation time: 00 hr 49 min 01 sec)
Heartbeat CPU 0 instructions: 480000066 cycles: 353077849 heartbeat IPC: 1.215 cumulative IPC: 1.359 (Simulation time: 00 hr 50 min 00 sec)
Heartbeat CPU 0 instructions: 490000067 cycles: 360829673 heartbeat IPC: 1.29 cumulative IPC: 1.358 (Simulation time: 00 hr 51 min 09 sec)
Heartbeat CPU 0 instructions: 500000069 cycles: 368331061 heartbeat IPC: 1.333 cumulative IPC: 1.357 (Simulation time: 00 hr 52 min 20 sec)
Heartbeat CPU 0 instructions: 510000070 cycles: 375603115 heartbeat IPC: 1.375 cumulative IPC: 1.358 (Simulation time: 00 hr 53 min 12 sec)
Heartbeat CPU 0 instructions: 520000073 cycles: 382711245 heartbeat IPC: 1.407 cumulative IPC: 1.359 (Simulation time: 00 hr 54 min 06 sec)
Heartbeat CPU 0 instructions: 530000073 cycles: 389690490 heartbeat IPC: 1.433 cumulative IPC: 1.36 (Simulation time: 00 hr 54 min 54 sec)
Heartbeat CPU 0 instructions: 540000075 cycles: 396545322 heartbeat IPC: 1.459 cumulative IPC: 1.362 (Simulation time: 00 hr 55 min 48 sec)
Heartbeat CPU 0 instructions: 550000077 cycles: 403276001 heartbeat IPC: 1.486 cumulative IPC: 1.364 (Simulation time: 00 hr 56 min 41 sec)
Heartbeat CPU 0 instructions: 560000080 cycles: 409914448 heartbeat IPC: 1.506 cumulative IPC: 1.366 (Simulation time: 00 hr 57 min 46 sec)
Heartbeat CPU 0 instructions: 570000082 cycles: 416459232 heartbeat IPC: 1.528 cumulative IPC: 1.369 (Simulation time: 00 hr 58 min 39 sec)
Heartbeat CPU 0 instructions: 580000083 cycles: 422892327 heartbeat IPC: 1.554 cumulative IPC: 1.372 (Simulation time: 00 hr 59 min 33 sec)
Heartbeat CPU 0 instructions: 590000083 cycles: 429253471 heartbeat IPC: 1.572 cumulative IPC: 1.374 (Simulation time: 01 hr 00 min 33 sec)
Heartbeat CPU 0 instructions: 600000083 cycles: 435546418 heartbeat IPC: 1.589 cumulative IPC: 1.378 (Simulation time: 01 hr 01 min 21 sec)
Heartbeat CPU 0 instructions: 610000084 cycles: 441779738 heartbeat IPC: 1.604 cumulative IPC: 1.381 (Simulation time: 01 hr 02 min 19 sec)
Heartbeat CPU 0 instructions: 620000088 cycles: 447978541 heartbeat IPC: 1.613 cumulative IPC: 1.384 (Simulation time: 01 hr 03 min 18 sec)
Heartbeat CPU 0 instructions: 630000090 cycles: 454125981 heartbeat IPC: 1.627 cumulative IPC: 1.387 (Simulation time: 01 hr 04 min 14 sec)
Heartbeat CPU 0 instructions: 640000090 cycles: 460168158 heartbeat IPC: 1.655 cumulative IPC: 1.391 (Simulation time: 01 hr 05 min 16 sec)
Heartbeat CPU 0 instructions: 650000090 cycles: 466124946 heartbeat IPC: 1.679 cumulative IPC: 1.394 (Simulation time: 01 hr 06 min 18 sec)
Heartbeat CPU 0 instructions: 660000091 cycles: 470793264 heartbeat IPC: 2.142 cumulative IPC: 1.402 (Simulation time: 01 hr 07 min 11 sec)
Heartbeat CPU 0 instructions: 670000091 cycles: 475281183 heartbeat IPC: 2.228 cumulative IPC: 1.41 (Simulation time: 01 hr 07 min 54 sec)
Heartbeat CPU 0 instructions: 680000091 cycles: 479883233 heartbeat IPC: 2.173 cumulative IPC: 1.417 (Simulation time: 01 hr 08 min 27 sec)
Heartbeat CPU 0 instructions: 690000094 cycles: 484564958 heartbeat IPC: 2.136 cumulative IPC: 1.424 (Simulation time: 01 hr 09 min 11 sec)
Heartbeat CPU 0 instructions: 700000094 cycles: 489364406 heartbeat IPC: 2.084 cumulative IPC: 1.43 (Simulation time: 01 hr 10 min 01 sec)
Heartbeat CPU 0 instructions: 710000097 cycles: 494217146 heartbeat IPC: 2.061 cumulative IPC: 1.437 (Simulation time: 01 hr 10 min 40 sec)
Heartbeat CPU 0 instructions: 720000097 cycles: 499116690 heartbeat IPC: 2.041 cumulative IPC: 1.443 (Simulation time: 01 hr 11 min 15 sec)
Heartbeat CPU 0 instructions: 730000097 cycles: 504147546 heartbeat IPC: 1.988 cumulative IPC: 1.448 (Simulation time: 01 hr 11 min 49 sec)
Heartbeat CPU 0 instructions: 740000100 cycles: 509232846 heartbeat IPC: 1.966 cumulative IPC: 1.453 (Simulation time: 01 hr 12 min 23 sec)
Heartbeat CPU 0 instructions: 750000102 cycles: 514477871 heartbeat IPC: 1.907 cumulative IPC: 1.458 (Simulation time: 01 hr 13 min 17 sec)
Heartbeat CPU 0 instructions: 760000105 cycles: 519763712 heartbeat IPC: 1.892 cumulative IPC: 1.462 (Simulation time: 01 hr 14 min 12 sec)
Heartbeat CPU 0 instructions: 770000106 cycles: 525299515 heartbeat IPC: 1.806 cumulative IPC: 1.466 (Simulation time: 01 hr 15 min 08 sec)
Heartbeat CPU 0 instructions: 780000108 cycles: 530860234 heartbeat IPC: 1.798 cumulative IPC: 1.469 (Simulation time: 01 hr 16 min 05 sec)
Heartbeat CPU 0 instructions: 790000108 cycles: 536560121 heartbeat IPC: 1.754 cumulative IPC: 1.472 (Simulation time: 01 hr 17 min 02 sec)
Heartbeat CPU 0 instructions: 800000109 cycles: 542413874 heartbeat IPC: 1.708 cumulative IPC: 1.475 (Simulation time: 01 hr 18 min 01 sec)
Heartbeat CPU 0 instructions: 810000111 cycles: 548413237 heartbeat IPC: 1.667 cumulative IPC: 1.477 (Simulation time: 01 hr 19 min 00 sec)
Heartbeat CPU 0 instructions: 820000112 cycles: 554840156 heartbeat IPC: 1.556 cumulative IPC: 1.478 (Simulation time: 01 hr 20 min 02 sec)
Heartbeat CPU 0 instructions: 830000112 cycles: 561256847 heartbeat IPC: 1.558 cumulative IPC: 1.479 (Simulation time: 01 hr 20 min 58 sec)
Heartbeat CPU 0 instructions: 840000113 cycles: 567963881 heartbeat IPC: 1.491 cumulative IPC: 1.479 (Simulation time: 01 hr 21 min 48 sec)
Heartbeat CPU 0 instructions: 850000116 cycles: 575005195 heartbeat IPC: 1.42 cumulative IPC: 1.478 (Simulation time: 01 hr 22 min 40 sec)
Heartbeat CPU 0 instructions: 860000117 cycles: 582549693 heartbeat IPC: 1.325 cumulative IPC: 1.476 (Simulation time: 01 hr 23 min 32 sec)
Heartbeat CPU 0 instructions: 870000117 cycles: 590458895 heartbeat IPC: 1.264 cumulative IPC: 1.473 (Simulation time: 01 hr 24 min 34 sec)
Heartbeat CPU 0 instructions: 880000118 cycles: 599217670 heartbeat IPC: 1.142 cumulative IPC: 1.469 (Simulation time: 01 hr 25 min 46 sec)
Heartbeat CPU 0 instructions: 890000118 cycles: 609442692 heartbeat IPC: 0.978 cumulative IPC: 1.46 (Simulation time: 01 hr 27 min 06 sec)
Heartbeat CPU 0 instructions: 900000121 cycles: 619073155 heartbeat IPC: 1.038 cumulative IPC: 1.454 (Simulation time: 01 hr 28 min 25 sec)
Heartbeat CPU 0 instructions: 910000121 cycles: 626941581 heartbeat IPC: 1.271 cumulative IPC: 1.451 (Simulation time: 01 hr 29 min 34 sec)
Heartbeat CPU 0 instructions: 920000121 cycles: 635627572 heartbeat IPC: 1.151 cumulative IPC: 1.447 (Simulation time: 01 hr 30 min 51 sec)
Heartbeat CPU 0 instructions: 930000123 cycles: 644136883 heartbeat IPC: 1.175 cumulative IPC: 1.444 (Simulation time: 01 hr 32 min 04 sec)
Heartbeat CPU 0 instructions: 940000123 cycles: 652085434 heartbeat IPC: 1.258 cumulative IPC: 1.442 (Simulation time: 01 hr 33 min 13 sec)
Heartbeat CPU 0 instructions: 950000125 cycles: 659646105 heartbeat IPC: 1.323 cumulative IPC: 1.44 (Simulation time: 01 hr 34 min 14 sec)
Heartbeat CPU 0 instructions: 960000125 cycles: 667035154 heartbeat IPC: 1.353 cumulative IPC: 1.439 (Simulation time: 01 hr 35 min 09 sec)
Heartbeat CPU 0 instructions: 970000126 cycles: 673248828 heartbeat IPC: 1.609 cumulative IPC: 1.441 (Simulation time: 01 hr 36 min 08 sec)
Heartbeat CPU 0 instructions: 980000130 cycles: 678898708 heartbeat IPC: 1.77 cumulative IPC: 1.444 (Simulation time: 01 hr 37 min 04 sec)
Heartbeat CPU 0 instructions: 990000130 cycles: 685288119 heartbeat IPC: 1.565 cumulative IPC: 1.445 (Simulation time: 01 hr 38 min 04 sec)
Heartbeat CPU 0 instructions: 1000000131 cycles: 693045115 heartbeat IPC: 1.289 cumulative IPC: 1.443 (Simulation time: 01 hr 39 min 13 sec)
Heartbeat CPU 0 instructions: 1010000132 cycles: 702347234 heartbeat IPC: 1.075 cumulative IPC: 1.438 (Simulation time: 01 hr 40 min 32 sec)
Heartbeat CPU 0 instructions: 1020000134 cycles: 710750163 heartbeat IPC: 1.19 cumulative IPC: 1.435 (Simulation time: 01 hr 41 min 45 sec)
Heartbeat CPU 0 instructions: 1030000134 cycles: 718970160 heartbeat IPC: 1.217 cumulative IPC: 1.433 (Simulation time: 01 hr 42 min 58 sec)
Heartbeat CPU 0 instructions: 1040000134 cycles: 727293496 heartbeat IPC: 1.201 cumulative IPC: 1.43 (Simulation time: 01 hr 44 min 11 sec)
Heartbeat CPU 0 instructions: 1050000134 cycles: 735718191 heartbeat IPC: 1.187 cumulative IPC: 1.427 (Simulation time: 01 hr 45 min 28 sec)
Heartbeat CPU 0 instructions: 1060000135 cycles: 744289795 heartbeat IPC: 1.167 cumulative IPC: 1.424 (Simulation time: 01 hr 46 min 45 sec)
Heartbeat CPU 0 instructions: 1070000135 cycles: 752443941 heartbeat IPC: 1.226 cumulative IPC: 1.422 (Simulation time: 01 hr 47 min 58 sec)
Heartbeat CPU 0 instructions: 1080000139 cycles: 759566776 heartbeat IPC: 1.404 cumulative IPC: 1.422 (Simulation time: 01 hr 49 min 06 sec)
Heartbeat CPU 0 instructions: 1090000139 cycles: 767458636 heartbeat IPC: 1.267 cumulative IPC: 1.42 (Simulation time: 01 hr 50 min 20 sec)
Heartbeat CPU 0 instructions: 1100000141 cycles: 776197072 heartbeat IPC: 1.144 cumulative IPC: 1.417 (Simulation time: 01 hr 51 min 37 sec)
Heartbeat CPU 0 instructions: 1110000145 cycles: 784583986 heartbeat IPC: 1.192 cumulative IPC: 1.415 (Simulation time: 01 hr 52 min 54 sec)
Heartbeat CPU 0 instructions: 1120000147 cycles: 792851065 heartbeat IPC: 1.21 cumulative IPC: 1.413 (Simulation time: 01 hr 54 min 08 sec)
Heartbeat CPU 0 instructions: 1130000147 cycles: 800682449 heartbeat IPC: 1.277 cumulative IPC: 1.411 (Simulation time: 01 hr 55 min 19 sec)
Heartbeat CPU 0 instructions: 1140000151 cycles: 807442576 heartbeat IPC: 1.479 cumulative IPC: 1.412 (Simulation time: 01 hr 56 min 22 sec)
Heartbeat CPU 0 instructions: 1150000151 cycles: 813914933 heartbeat IPC: 1.545 cumulative IPC: 1.413 (Simulation time: 01 hr 57 min 20 sec)
Heartbeat CPU 0 instructions: 1160000151 cycles: 822715315 heartbeat IPC: 1.136 cumulative IPC: 1.41 (Simulation time: 01 hr 58 min 28 sec)
Heartbeat CPU 0 instructions: 1170000151 cycles: 830987728 heartbeat IPC: 1.209 cumulative IPC: 1.408 (Simulation time: 01 hr 59 min 26 sec)
Heartbeat CPU 0 instructions: 1180000152 cycles: 838831519 heartbeat IPC: 1.275 cumulative IPC: 1.407 (Simulation time: 02 hr 00 min 32 sec)
Heartbeat CPU 0 instructions: 1190000156 cycles: 845193767 heartbeat IPC: 1.572 cumulative IPC: 1.408 (Simulation time: 02 hr 01 min 26 sec)
Heartbeat CPU 0 instructions: 1200000158 cycles: 853790414 heartbeat IPC: 1.163 cumulative IPC: 1.405 (Simulation time: 02 hr 02 min 40 sec)
Heartbeat CPU 0 instructions: 1210000160 cycles: 862482363 heartbeat IPC: 1.15 cumulative IPC: 1.403 (Simulation time: 02 hr 03 min 56 sec)
Heartbeat CPU 0 instructions: 1220000162 cycles: 871109091 heartbeat IPC: 1.159 cumulative IPC: 1.401 (Simulation time: 02 hr 05 min 12 sec)
Heartbeat CPU 0 instructions: 1230000166 cycles: 878943994 heartbeat IPC: 1.276 cumulative IPC: 1.399 (Simulation time: 02 hr 06 min 21 sec)
Heartbeat CPU 0 instructions: 1240000166 cycles: 887374541 heartbeat IPC: 1.186 cumulative IPC: 1.397 (Simulation time: 02 hr 07 min 37 sec)
Heartbeat CPU 0 instructions: 1250000166 cycles: 895950646 heartbeat IPC: 1.166 cumulative IPC: 1.395 (Simulation time: 02 hr 08 min 52 sec)
Heartbeat CPU 0 instructions: 1260000170 cycles: 904571081 heartbeat IPC: 1.16 cumulative IPC: 1.393 (Simulation time: 02 hr 10 min 07 sec)
Heartbeat CPU 0 instructions: 1270000173 cycles: 912683195 heartbeat IPC: 1.233 cumulative IPC: 1.392 (Simulation time: 02 hr 11 min 18 sec)
Heartbeat CPU 0 instructions: 1280000173 cycles: 920367737 heartbeat IPC: 1.301 cumulative IPC: 1.391 (Simulation time: 02 hr 12 min 26 sec)
Heartbeat CPU 0 instructions: 1290000176 cycles: 927825383 heartbeat IPC: 1.341 cumulative IPC: 1.39 (Simulation time: 02 hr 13 min 33 sec)
Heartbeat CPU 0 instructions: 1300000178 cycles: 933579386 heartbeat IPC: 1.738 cumulative IPC: 1.392 (Simulation time: 02 hr 14 min 31 sec)
Heartbeat CPU 0 instructions: 1310000181 cycles: 939745691 heartbeat IPC: 1.622 cumulative IPC: 1.394 (Simulation time: 02 hr 15 min 31 sec)
Heartbeat CPU 0 instructions: 1320000181 cycles: 947521809 heartbeat IPC: 1.286 cumulative IPC: 1.393 (Simulation time: 02 hr 16 min 41 sec)
Heartbeat CPU 0 instructions: 1330000183 cycles: 956408609 heartbeat IPC: 1.125 cumulative IPC: 1.391 (Simulation time: 02 hr 17 min 58 sec)
Heartbeat CPU 0 instructions: 1340000184 cycles: 964466891 heartbeat IPC: 1.241 cumulative IPC: 1.389 (Simulation time: 02 hr 19 min 09 sec)
Heartbeat CPU 0 instructions: 1350000188 cycles: 972113022 heartbeat IPC: 1.308 cumulative IPC: 1.389 (Simulation time: 02 hr 20 min 17 sec)
Heartbeat CPU 0 instructions: 1360000189 cycles: 979537391 heartbeat IPC: 1.347 cumulative IPC: 1.388 (Simulation time: 02 hr 21 min 24 sec)
Heartbeat CPU 0 instructions: 1370000189 cycles: 985778527 heartbeat IPC: 1.602 cumulative IPC: 1.39 (Simulation time: 02 hr 22 min 25 sec)
Heartbeat CPU 0 instructions: 1380000191 cycles: 991494042 heartbeat IPC: 1.75 cumulative IPC: 1.392 (Simulation time: 02 hr 23 min 22 sec)
Heartbeat CPU 0 instructions: 1390000192 cycles: 998060299 heartbeat IPC: 1.523 cumulative IPC: 1.393 (Simulation time: 02 hr 24 min 25 sec)
Heartbeat CPU 0 instructions: 1400000194 cycles: 1006515141 heartbeat IPC: 1.183 cumulative IPC: 1.391 (Simulation time: 02 hr 25 min 39 sec)
Heartbeat CPU 0 instructions: 1410000194 cycles: 1015049280 heartbeat IPC: 1.172 cumulative IPC: 1.389 (Simulation time: 02 hr 26 min 53 sec)
Heartbeat CPU 0 instructions: 1420000195 cycles: 1023003851 heartbeat IPC: 1.257 cumulative IPC: 1.388 (Simulation time: 02 hr 28 min 03 sec)
Heartbeat CPU 0 instructions: 1430000199 cycles: 1030584970 heartbeat IPC: 1.319 cumulative IPC: 1.388 (Simulation time: 02 hr 29 min 11 sec)
Heartbeat CPU 0 instructions: 1440000203 cycles: 1037968882 heartbeat IPC: 1.354 cumulative IPC: 1.387 (Simulation time: 02 hr 30 min 20 sec)
Heartbeat CPU 0 instructions: 1450000204 cycles: 1044492975 heartbeat IPC: 1.533 cumulative IPC: 1.388 (Simulation time: 02 hr 31 min 24 sec)
Heartbeat CPU 0 instructions: 1460000204 cycles: 1049984570 heartbeat IPC: 1.821 cumulative IPC: 1.39 (Simulation time: 02 hr 32 min 16 sec)
Heartbeat CPU 0 instructions: 1470000205 cycles: 1056103587 heartbeat IPC: 1.634 cumulative IPC: 1.392 (Simulation time: 02 hr 32 min 57 sec)
Heartbeat CPU 0 instructions: 1480000207 cycles: 1063138179 heartbeat IPC: 1.422 cumulative IPC: 1.392 (Simulation time: 02 hr 34 min 02 sec)
Heartbeat CPU 0 instructions: 1490000207 cycles: 1072028559 heartbeat IPC: 1.125 cumulative IPC: 1.39 (Simulation time: 02 hr 35 min 20 sec)
Heartbeat CPU 0 instructions: 1500000209 cycles: 1080722444 heartbeat IPC: 1.15 cumulative IPC: 1.388 (Simulation time: 02 hr 36 min 39 sec)
Heartbeat CPU 0 instructions: 1510000211 cycles: 1089337831 heartbeat IPC: 1.161 cumulative IPC: 1.386 (Simulation time: 02 hr 37 min 56 sec)
Heartbeat CPU 0 instructions: 1520000213 cycles: 1098031855 heartbeat IPC: 1.15 cumulative IPC: 1.384 (Simulation time: 02 hr 39 min 09 sec)
Heartbeat CPU 0 instructions: 1530000213 cycles: 1106557506 heartbeat IPC: 1.173 cumulative IPC: 1.383 (Simulation time: 02 hr 40 min 26 sec)
Heartbeat CPU 0 instructions: 1540000217 cycles: 1114873549 heartbeat IPC: 1.202 cumulative IPC: 1.381 (Simulation time: 02 hr 41 min 42 sec)
Heartbeat CPU 0 instructions: 1550000219 cycles: 1123576441 heartbeat IPC: 1.149 cumulative IPC: 1.38 (Simulation time: 02 hr 42 min 56 sec)
Heartbeat CPU 0 instructions: 1560000220 cycles: 1131701289 heartbeat IPC: 1.231 cumulative IPC: 1.378 (Simulation time: 02 hr 44 min 01 sec)
Heartbeat CPU 0 instructions: 1570000220 cycles: 1139384265 heartbeat IPC: 1.302 cumulative IPC: 1.378 (Simulation time: 02 hr 44 min 58 sec)
Heartbeat CPU 0 instructions: 1580000221 cycles: 1146813764 heartbeat IPC: 1.346 cumulative IPC: 1.378 (Simulation time: 02 hr 45 min 52 sec)
Heartbeat CPU 0 instructions: 1590000225 cycles: 1154057160 heartbeat IPC: 1.381 cumulative IPC: 1.378 (Simulation time: 02 hr 47 min 00 sec)
Heartbeat CPU 0 instructions: 1600000228 cycles: 1160998387 heartbeat IPC: 1.441 cumulative IPC: 1.378 (Simulation time: 02 hr 48 min 06 sec)
Heartbeat CPU 0 instructions: 1610000229 cycles: 1166227822 heartbeat IPC: 1.912 cumulative IPC: 1.381 (Simulation time: 02 hr 49 min 02 sec)
Heartbeat CPU 0 instructions: 1620000229 cycles: 1171773043 heartbeat IPC: 1.803 cumulative IPC: 1.383 (Simulation time: 02 hr 49 min 59 sec)
Heartbeat CPU 0 instructions: 1630000229 cycles: 1177784099 heartbeat IPC: 1.664 cumulative IPC: 1.384 (Simulation time: 02 hr 51 min 00 sec)
Heartbeat CPU 0 instructions: 1640000233 cycles: 1184510720 heartbeat IPC: 1.487 cumulative IPC: 1.385 (Simulation time: 02 hr 52 min 04 sec)
Heartbeat CPU 0 instructions: 1650000233 cycles: 1192737668 heartbeat IPC: 1.216 cumulative IPC: 1.383 (Simulation time: 02 hr 53 min 18 sec)
Heartbeat CPU 0 instructions: 1660000233 cycles: 1201680573 heartbeat IPC: 1.118 cumulative IPC: 1.381 (Simulation time: 02 hr 54 min 37 sec)
Heartbeat CPU 0 instructions: 1670000233 cycles: 1210319448 heartbeat IPC: 1.158 cumulative IPC: 1.38 (Simulation time: 02 hr 55 min 54 sec)
Heartbeat CPU 0 instructions: 1680000234 cycles: 1218591148 heartbeat IPC: 1.209 cumulative IPC: 1.379 (Simulation time: 02 hr 57 min 08 sec)
Heartbeat CPU 0 instructions: 1690000235 cycles: 1226363313 heartbeat IPC: 1.287 cumulative IPC: 1.378 (Simulation time: 02 hr 58 min 13 sec)
Heartbeat CPU 0 instructions: 1700000235 cycles: 1233868714 heartbeat IPC: 1.332 cumulative IPC: 1.378 (Simulation time: 02 hr 59 min 23 sec)
Heartbeat CPU 0 instructions: 1710000235 cycles: 1240214128 heartbeat IPC: 1.576 cumulative IPC: 1.379 (Simulation time: 03 hr 00 min 25 sec)
Heartbeat CPU 0 instructions: 1720000236 cycles: 1246078518 heartbeat IPC: 1.705 cumulative IPC: 1.38 (Simulation time: 03 hr 01 min 25 sec)
Heartbeat CPU 0 instructions: 1730000238 cycles: 1252984751 heartbeat IPC: 1.448 cumulative IPC: 1.381 (Simulation time: 03 hr 02 min 31 sec)
Heartbeat CPU 0 instructions: 1740000238 cycles: 1262065637 heartbeat IPC: 1.101 cumulative IPC: 1.379 (Simulation time: 03 hr 03 min 51 sec)
Heartbeat CPU 0 instructions: 1750000241 cycles: 1270431206 heartbeat IPC: 1.195 cumulative IPC: 1.377 (Simulation time: 03 hr 05 min 05 sec)
Heartbeat CPU 0 instructions: 1760000242 cycles: 1278009355 heartbeat IPC: 1.32 cumulative IPC: 1.377 (Simulation time: 03 hr 06 min 17 sec)
Heartbeat CPU 0 instructions: 1770000243 cycles: 1286723402 heartbeat IPC: 1.148 cumulative IPC: 1.376 (Simulation time: 03 hr 07 min 36 sec)
Heartbeat CPU 0 instructions: 1780000247 cycles: 1294917356 heartbeat IPC: 1.22 cumulative IPC: 1.375 (Simulation time: 03 hr 08 min 51 sec)
Heartbeat CPU 0 instructions: 1790000249 cycles: 1302699276 heartbeat IPC: 1.285 cumulative IPC: 1.374 (Simulation time: 03 hr 10 min 03 sec)
Heartbeat CPU 0 instructions: 1800000249 cycles: 1310225566 heartbeat IPC: 1.329 cumulative IPC: 1.374 (Simulation time: 03 hr 11 min 13 sec)
Heartbeat CPU 0 instructions: 1810000251 cycles: 1317517087 heartbeat IPC: 1.371 cumulative IPC: 1.374 (Simulation time: 03 hr 12 min 21 sec)
Heartbeat CPU 0 instructions: 1820000252 cycles: 1324664338 heartbeat IPC: 1.399 cumulative IPC: 1.374 (Simulation time: 03 hr 13 min 29 sec)
Heartbeat CPU 0 instructions: 1830000252 cycles: 1331672623 heartbeat IPC: 1.427 cumulative IPC: 1.374 (Simulation time: 03 hr 14 min 36 sec)
Heartbeat CPU 0 instructions: 1840000254 cycles: 1338557132 heartbeat IPC: 1.453 cumulative IPC: 1.375 (Simulation time: 03 hr 15 min 42 sec)
Heartbeat CPU 0 instructions: 1850000256 cycles: 1345331690 heartbeat IPC: 1.476 cumulative IPC: 1.375 (Simulation time: 03 hr 16 min 47 sec)
Heartbeat CPU 0 instructions: 1860000256 cycles: 1351948793 heartbeat IPC: 1.511 cumulative IPC: 1.376 (Simulation time: 03 hr 17 min 52 sec)
Heartbeat CPU 0 instructions: 1870000257 cycles: 1358470566 heartbeat IPC: 1.533 cumulative IPC: 1.377 (Simulation time: 03 hr 18 min 57 sec)
Heartbeat CPU 0 instructions: 1880000259 cycles: 1364928070 heartbeat IPC: 1.549 cumulative IPC: 1.377 (Simulation time: 03 hr 20 min 01 sec)
Heartbeat CPU 0 instructions: 1890000259 cycles: 1369890292 heartbeat IPC: 2.015 cumulative IPC: 1.38 (Simulation time: 03 hr 20 min 56 sec)
Heartbeat CPU 0 instructions: 1900000259 cycles: 1374842245 heartbeat IPC: 2.019 cumulative IPC: 1.382 (Simulation time: 03 hr 21 min 49 sec)
Heartbeat CPU 0 instructions: 1910000259 cycles: 1379928363 heartbeat IPC: 1.966 cumulative IPC: 1.384 (Simulation time: 03 hr 22 min 44 sec)
Heartbeat CPU 0 instructions: 1920000262 cycles: 1385167737 heartbeat IPC: 1.909 cumulative IPC: 1.386 (Simulation time: 03 hr 23 min 40 sec)
Heartbeat CPU 0 instructions: 1930000262 cycles: 1390527827 heartbeat IPC: 1.866 cumulative IPC: 1.388 (Simulation time: 03 hr 24 min 36 sec)
Heartbeat CPU 0 instructions: 1940000263 cycles: 1396067165 heartbeat IPC: 1.805 cumulative IPC: 1.39 (Simulation time: 03 hr 25 min 34 sec)
Heartbeat CPU 0 instructions: 1950000264 cycles: 1401765919 heartbeat IPC: 1.755 cumulative IPC: 1.391 (Simulation time: 03 hr 26 min 32 sec)
Heartbeat CPU 0 instructions: 1960000264 cycles: 1407685508 heartbeat IPC: 1.689 cumulative IPC: 1.392 (Simulation time: 03 hr 27 min 32 sec)
Heartbeat CPU 0 instructions: 1970000264 cycles: 1413899327 heartbeat IPC: 1.609 cumulative IPC: 1.393 (Simulation time: 03 hr 28 min 33 sec)
Heartbeat CPU 0 instructions: 1980000266 cycles: 1420255589 heartbeat IPC: 1.573 cumulative IPC: 1.394 (Simulation time: 03 hr 29 min 35 sec)
Heartbeat CPU 0 instructions: 1990000270 cycles: 1426998380 heartbeat IPC: 1.483 cumulative IPC: 1.395 (Simulation time: 03 hr 30 min 39 sec)

=== ERROR PAGE STATISTICS ===
Mode: CYCLE
Error Cycle Interval: 10000000000 CPU cycles
Total Error Accesses: 0
==============================
Simulation finished CPU 0 instructions: 1999999979 cycles: 1434433142 cumulative IPC: 1.394 (Simulation time: 03 hr 31 min 47 sec)
Simulation complete CPU 0 instructions: 1999999979 cycles: 1434433142 cumulative IPC: 1.394 (Simulation time: 03 hr 31 min 47 sec)

ChampSim completed all CPUs

=== Simulation ===
CPU 0 runs test_traces/623.xalancbmk_s-592B.champsimtrace.xz

Region of Interest Statistics

CPU 0 cumulative IPC: 1.394 instructions: 1999999979 cycles: 1434433142
CPU 0 Branch Prediction Accuracy: 97.16% MPKI: 8.552 Average ROB Occupancy at Mispredict: 24.37
Branch type MPKI
BRANCH_DIRECT_JUMP: 0.08608
BRANCH_INDIRECT: 0.2696
BRANCH_CONDITIONAL: 6.772
BRANCH_DIRECT_CALL: 0.0003155
BRANCH_INDIRECT_CALL: 0.2909
BRANCH_RETURN: 1.133

cpu0->cpu0_STLB TOTAL        ACCESS:         52 HIT:          0 MISS:         52 MSHR_MERGE:          0
cpu0->cpu0_STLB LOAD         ACCESS:         52 HIT:          0 MISS:         52 MSHR_MERGE:          0
cpu0->cpu0_STLB RFO          ACCESS:          0 HIT:          0 MISS:          0 MSHR_MERGE:          0
cpu0->cpu0_STLB PREFETCH     ACCESS:          0 HIT:          0 MISS:          0 MSHR_MERGE:          0
cpu0->cpu0_STLB WRITE        ACCESS:          0 HIT:          0 MISS:          0 MSHR_MERGE:          0
cpu0->cpu0_STLB TRANSLATION  ACCESS:          0 HIT:          0 MISS:          0 MSHR_MERGE:          0
cpu0->cpu0_STLB PREFETCH REQUESTED:          0 ISSUED:          0 USEFUL:          0 USELESS:          0
cpu0->cpu0_STLB AVERAGE MISS LATENCY: 9117 cycles
cpu0->cpu0_L2C TOTAL        ACCESS:  105789870 HIT:   99088288 MISS:    6701582 MSHR_MERGE:          0
cpu0->cpu0_L2C LOAD         ACCESS:   96650145 HIT:   93020555 MISS:    3629590 MSHR_MERGE:          0
cpu0->cpu0_L2C RFO          ACCESS:    3686311 HIT:     614320 MISS:    3071991 MSHR_MERGE:          0
cpu0->cpu0_L2C PREFETCH     ACCESS:          0 HIT:          0 MISS:          0 MSHR_MERGE:          0
cpu0->cpu0_L2C WRITE        ACCESS:    5453414 HIT:    5453413 MISS:          1 MSHR_MERGE:          0
cpu0->cpu0_L2C TRANSLATION  ACCESS:          0 HIT:          0 MISS:          0 MSHR_MERGE:          0
cpu0->cpu0_L2C PREFETCH REQUESTED:          0 ISSUED:          0 USEFUL:          0 USELESS:          0
cpu0->cpu0_L2C AVERAGE MISS LATENCY: 64.02 cycles
cpu0->cpu0_L1I TOTAL        ACCESS:  360932348 HIT:  355532273 MISS:    5400075 MSHR_MERGE:    1495484
cpu0->cpu0_L1I LOAD         ACCESS:  360932348 HIT:  355532273 MISS:    5400075 MSHR_MERGE:    1495484
cpu0->cpu0_L1I RFO          ACCESS:          0 HIT:          0 MISS:          0 MSHR_MERGE:          0
cpu0->cpu0_L1I PREFETCH     ACCESS:          0 HIT:          0 MISS:          0 MSHR_MERGE:          0
cpu0->cpu0_L1I WRITE        ACCESS:          0 HIT:          0 MISS:          0 MSHR_MERGE:          0
cpu0->cpu0_L1I TRANSLATION  ACCESS:          0 HIT:          0 MISS:          0 MSHR_MERGE:          0
cpu0->cpu0_L1I PREFETCH REQUESTED:          0 ISSUED:          0 USEFUL:          0 USELESS:          0
cpu0->cpu0_L1I AVERAGE MISS LATENCY: 7.897 cycles
cpu0->cpu0_L1D TOTAL        ACCESS:  536520695 HIT:  360091932 MISS:  176428763 MSHR_MERGE:   79996793
cpu0->cpu0_L1D LOAD         ACCESS:  419497720 HIT:  256674777 MISS:  162822943 MSHR_MERGE:   70077311
cpu0->cpu0_L1D RFO          ACCESS:          0 HIT:          0 MISS:          0 MSHR_MERGE:          0
cpu0->cpu0_L1D PREFETCH     ACCESS:          0 HIT:          0 MISS:          0 MSHR_MERGE:          0
cpu0->cpu0_L1D WRITE        ACCESS:  117022975 HIT:  103417155 MISS:   13605820 MSHR_MERGE:    9919482
cpu0->cpu0_L1D TRANSLATION  ACCESS:          0 HIT:          0 MISS:          0 MSHR_MERGE:          0
cpu0->cpu0_L1D PREFETCH REQUESTED:          0 ISSUED:          0 USEFUL:          0 USELESS:          0
cpu0->cpu0_L1D AVERAGE MISS LATENCY: 12.63 cycles
cpu0->cpu0_ITLB TOTAL        ACCESS:  341703382 HIT:  341703379 MISS:          3 MSHR_MERGE:          1
cpu0->cpu0_ITLB LOAD         ACCESS:  341703382 HIT:  341703379 MISS:          3 MSHR_MERGE:          1
cpu0->cpu0_ITLB RFO          ACCESS:          0 HIT:          0 MISS:          0 MSHR_MERGE:          0
cpu0->cpu0_ITLB PREFETCH     ACCESS:          0 HIT:          0 MISS:          0 MSHR_MERGE:          0
cpu0->cpu0_ITLB WRITE        ACCESS:          0 HIT:          0 MISS:          0 MSHR_MERGE:          0
cpu0->cpu0_ITLB TRANSLATION  ACCESS:          0 HIT:          0 MISS:          0 MSHR_MERGE:          0
cpu0->cpu0_ITLB PREFETCH REQUESTED:          0 ISSUED:          0 USEFUL:          0 USELESS:          0
cpu0->cpu0_ITLB AVERAGE MISS LATENCY: 1.309e+04 cycles
cpu0->cpu0_DTLB TOTAL        ACCESS:  460066488 HIT:  460066321 MISS:        167 MSHR_MERGE:        117
cpu0->cpu0_DTLB LOAD         ACCESS:  460066488 HIT:  460066321 MISS:        167 MSHR_MERGE:        117
cpu0->cpu0_DTLB RFO          ACCESS:          0 HIT:          0 MISS:          0 MSHR_MERGE:          0
cpu0->cpu0_DTLB PREFETCH     ACCESS:          0 HIT:          0 MISS:          0 MSHR_MERGE:          0
cpu0->cpu0_DTLB WRITE        ACCESS:          0 HIT:          0 MISS:          0 MSHR_MERGE:          0
cpu0->cpu0_DTLB TRANSLATION  ACCESS:          0 HIT:          0 MISS:          0 MSHR_MERGE:          0
cpu0->cpu0_DTLB PREFETCH REQUESTED:          0 ISSUED:          0 USEFUL:          0 USELESS:          0
cpu0->cpu0_DTLB AVERAGE MISS LATENCY: 8965 cycles
cpu0->LLC TOTAL        ACCESS:   10182984 HIT:    6920632 MISS:    3262352 MSHR_MERGE:          0
cpu0->LLC LOAD         ACCESS:    3629589 HIT:    3226499 MISS:     403090 MSHR_MERGE:          0
cpu0->LLC RFO          ACCESS:    3071991 HIT:     227051 MISS:    2844940 MSHR_MERGE:          0
cpu0->LLC PREFETCH     ACCESS:          0 HIT:          0 MISS:          0 MSHR_MERGE:          0
cpu0->LLC WRITE        ACCESS:    3481404 HIT:    3467082 MISS:      14322 MSHR_MERGE:          0
cpu0->LLC TRANSLATION  ACCESS:          0 HIT:          0 MISS:          0 MSHR_MERGE:          0
cpu0->LLC PREFETCH REQUESTED:          0 ISSUED:          0 USEFUL:          0 USELESS:          0
cpu0->LLC AVERAGE MISS LATENCY: 99.69 cycles

DRAM Statistics

Channel 0 RQ ROW_BUFFER_HIT:     210495
  ROW_BUFFER_MISS:    1413297
  AVG DBUS CONGESTED CYCLE: 8.127
Channel 0 WQ ROW_BUFFER_HIT:     135121
  ROW_BUFFER_MISS:    1407558
  FULL:          0
Channel 0 REFRESHES ISSUED:     119528

Channel 1 RQ ROW_BUFFER_HIT:     210326
  ROW_BUFFER_MISS:    1414015
  AVG DBUS CONGESTED CYCLE: 8.137
Channel 1 WQ ROW_BUFFER_HIT:     135973
  ROW_BUFFER_MISS:    1406189
  FULL:          0
Channel 1 REFRESHES ISSUED:     119528
