[VMEM] WARNING: physical memory size is smaller than virtual memory size.

*** ChampSim Multicore Out-of-Order Simulator ***
Warmup Instructions: 0
Simulation Instructions: 9223372036854775807
Number of CPUs: 1
Page size: 2097152

Off-chip DRAM Size: 32 GiB Channels: 2 Width: 32-bit Data Rate: 4807 MT/s
[ERROR_PAGE_MANAGER] Error latency: 1990500 
[ERROR_PAGE_MANAGER] Random seed: 54321 (fixed for preload reproducibility)
[ERROR_PAGE_MANAGER] Cycle-based error modeling enabled
[ERROR_PAGE_MANAGER] Errors per interval: 1
[ERROR_PAGE_MANAGER] Error cycle interval: 200000000 cycles

=== ERROR PAGE STATISTICS ===
Mode: CYCLE
Error Cycle Interval: 200000000 CPU cycles
Total Error Accesses: 0
==============================
Warmup finished CPU 0 instructions: 0 cycles: 1 cumulative IPC: 0 (Simulation time: 00 hr 00 min 00 sec)
Warmup complete CPU 0 instructions: 0 cycles: 1 cumulative IPC: 0 (Simulation time: 00 hr 00 min 00 sec)
Heartbeat CPU 0 instructions: 10000002 cycles: 4902225 heartbeat IPC: 2.04 cumulative IPC: 2.04 (Simulation time: 00 hr 01 min 01 sec)
Heartbeat CPU 0 instructions: 20000002 cycles: 9748688 heartbeat IPC: 2.063 cumulative IPC: 2.052 (Simulation time: 00 hr 02 min 02 sec)
Heartbeat CPU 0 instructions: 30000006 cycles: 14571930 heartbeat IPC: 2.073 cumulative IPC: 2.059 (Simulation time: 00 hr 02 min 54 sec)
Heartbeat CPU 0 instructions: 40000007 cycles: 19406541 heartbeat IPC: 2.068 cumulative IPC: 2.061 (Simulation time: 00 hr 03 min 49 sec)
Heartbeat CPU 0 instructions: 50000007 cycles: 24255078 heartbeat IPC: 2.062 cumulative IPC: 2.061 (Simulation time: 00 hr 04 min 41 sec)
Heartbeat CPU 0 instructions: 60000008 cycles: 30550937 heartbeat IPC: 1.588 cumulative IPC: 1.964 (Simulation time: 00 hr 05 min 46 sec)
Heartbeat CPU 0 instructions: 70000012 cycles: 36689834 heartbeat IPC: 1.629 cumulative IPC: 1.908 (Simulation time: 00 hr 06 min 54 sec)
Heartbeat CPU 0 instructions: 80000013 cycles: 42835216 heartbeat IPC: 1.627 cumulative IPC: 1.868 (Simulation time: 00 hr 07 min 56 sec)
Heartbeat CPU 0 instructions: 90000016 cycles: 49011632 heartbeat IPC: 1.619 cumulative IPC: 1.836 (Simulation time: 00 hr 08 min 47 sec)
Heartbeat CPU 0 instructions: 100000018 cycles: 55187842 heartbeat IPC: 1.619 cumulative IPC: 1.812 (Simulation time: 00 hr 09 min 47 sec)
Heartbeat CPU 0 instructions: 110000019 cycles: 61365260 heartbeat IPC: 1.619 cumulative IPC: 1.793 (Simulation time: 00 hr 10 min 52 sec)
Heartbeat CPU 0 instructions: 120000020 cycles: 67550141 heartbeat IPC: 1.617 cumulative IPC: 1.776 (Simulation time: 00 hr 12 min 02 sec)
Heartbeat CPU 0 instructions: 130000020 cycles: 73744007 heartbeat IPC: 1.615 cumulative IPC: 1.763 (Simulation time: 00 hr 13 min 00 sec)
Heartbeat CPU 0 instructions: 140000022 cycles: 79960741 heartbeat IPC: 1.609 cumulative IPC: 1.751 (Simulation time: 00 hr 13 min 51 sec)
Heartbeat CPU 0 instructions: 150000024 cycles: 86254529 heartbeat IPC: 1.589 cumulative IPC: 1.739 (Simulation time: 00 hr 15 min 00 sec)
Heartbeat CPU 0 instructions: 160000024 cycles: 92484199 heartbeat IPC: 1.605 cumulative IPC: 1.73 (Simulation time: 00 hr 16 min 08 sec)
Heartbeat CPU 0 instructions: 170000025 cycles: 98709523 heartbeat IPC: 1.606 cumulative IPC: 1.722 (Simulation time: 00 hr 17 min 06 sec)
Heartbeat CPU 0 instructions: 180000026 cycles: 104954208 heartbeat IPC: 1.601 cumulative IPC: 1.715 (Simulation time: 00 hr 18 min 16 sec)
Heartbeat CPU 0 instructions: 190000027 cycles: 111216908 heartbeat IPC: 1.597 cumulative IPC: 1.708 (Simulation time: 00 hr 19 min 25 sec)
Heartbeat CPU 0 instructions: 200000029 cycles: 117481348 heartbeat IPC: 1.596 cumulative IPC: 1.702 (Simulation time: 00 hr 20 min 17 sec)
Heartbeat CPU 0 instructions: 210000030 cycles: 123729634 heartbeat IPC: 1.6 cumulative IPC: 1.697 (Simulation time: 00 hr 21 min 27 sec)
Heartbeat CPU 0 instructions: 220000031 cycles: 129956512 heartbeat IPC: 1.606 cumulative IPC: 1.693 (Simulation time: 00 hr 22 min 37 sec)
Heartbeat CPU 0 instructions: 230000034 cycles: 136196685 heartbeat IPC: 1.603 cumulative IPC: 1.689 (Simulation time: 00 hr 23 min 47 sec)
[ERROR_CYCLE] Error added at CPU cycle 142556113, next at 183066125, pending count: 1
[DRAM_CYCLE_ERROR] Cycle-based error applied! address=0x1ff250700 additional_latency=1990500 cycles
Heartbeat CPU 0 instructions: 240000034 cycles: 142583076 heartbeat IPC: 1.566 cumulative IPC: 1.683 (Simulation time: 00 hr 24 min 58 sec)
Heartbeat CPU 0 instructions: 250000034 cycles: 148827496 heartbeat IPC: 1.601 cumulative IPC: 1.68 (Simulation time: 00 hr 26 min 08 sec)
Heartbeat CPU 0 instructions: 260000038 cycles: 155033884 heartbeat IPC: 1.611 cumulative IPC: 1.677 (Simulation time: 00 hr 27 min 18 sec)
Heartbeat CPU 0 instructions: 270000041 cycles: 161239998 heartbeat IPC: 1.611 cumulative IPC: 1.675 (Simulation time: 00 hr 28 min 28 sec)
Heartbeat CPU 0 instructions: 280000042 cycles: 167469431 heartbeat IPC: 1.605 cumulative IPC: 1.672 (Simulation time: 00 hr 29 min 38 sec)
Heartbeat CPU 0 instructions: 290000042 cycles: 173710451 heartbeat IPC: 1.602 cumulative IPC: 1.669 (Simulation time: 00 hr 30 min 48 sec)
Heartbeat CPU 0 instructions: 300000046 cycles: 179943574 heartbeat IPC: 1.604 cumulative IPC: 1.667 (Simulation time: 00 hr 31 min 55 sec)
[ERROR_CYCLE] Error added at CPU cycle 183066126, next at 513921280, pending count: 1
[DRAM_CYCLE_ERROR] Cycle-based error applied! address=0x110d5b800 additional_latency=1990500 cycles
Heartbeat CPU 0 instructions: 310000049 cycles: 186163002 heartbeat IPC: 1.608 cumulative IPC: 1.665 (Simulation time: 00 hr 32 min 57 sec)
Heartbeat CPU 0 instructions: 320000053 cycles: 192397613 heartbeat IPC: 1.604 cumulative IPC: 1.663 (Simulation time: 00 hr 34 min 08 sec)
Heartbeat CPU 0 instructions: 330000054 cycles: 198670417 heartbeat IPC: 1.594 cumulative IPC: 1.661 (Simulation time: 00 hr 35 min 19 sec)
Heartbeat CPU 0 instructions: 340000054 cycles: 205031609 heartbeat IPC: 1.572 cumulative IPC: 1.658 (Simulation time: 00 hr 36 min 30 sec)
Heartbeat CPU 0 instructions: 350000056 cycles: 211323574 heartbeat IPC: 1.589 cumulative IPC: 1.656 (Simulation time: 00 hr 37 min 39 sec)
Heartbeat CPU 0 instructions: 360000056 cycles: 217619866 heartbeat IPC: 1.588 cumulative IPC: 1.654 (Simulation time: 00 hr 38 min 48 sec)
Heartbeat CPU 0 instructions: 370000057 cycles: 223905937 heartbeat IPC: 1.591 cumulative IPC: 1.652 (Simulation time: 00 hr 39 min 58 sec)
Heartbeat CPU 0 instructions: 380000061 cycles: 230218437 heartbeat IPC: 1.584 cumulative IPC: 1.651 (Simulation time: 00 hr 40 min 57 sec)
Heartbeat CPU 0 instructions: 390000062 cycles: 236496404 heartbeat IPC: 1.593 cumulative IPC: 1.649 (Simulation time: 00 hr 41 min 51 sec)
Heartbeat CPU 0 instructions: 400000062 cycles: 242741604 heartbeat IPC: 1.601 cumulative IPC: 1.648 (Simulation time: 00 hr 43 min 02 sec)
Heartbeat CPU 0 instructions: 410000062 cycles: 248951854 heartbeat IPC: 1.61 cumulative IPC: 1.647 (Simulation time: 00 hr 44 min 12 sec)
Heartbeat CPU 0 instructions: 420000065 cycles: 255177309 heartbeat IPC: 1.606 cumulative IPC: 1.646 (Simulation time: 00 hr 45 min 23 sec)
Heartbeat CPU 0 instructions: 430000069 cycles: 261509584 heartbeat IPC: 1.579 cumulative IPC: 1.644 (Simulation time: 00 hr 46 min 34 sec)
Heartbeat CPU 0 instructions: 440000069 cycles: 267788643 heartbeat IPC: 1.593 cumulative IPC: 1.643 (Simulation time: 00 hr 47 min 45 sec)
Heartbeat CPU 0 instructions: 450000070 cycles: 274033373 heartbeat IPC: 1.601 cumulative IPC: 1.642 (Simulation time: 00 hr 48 min 42 sec)
Heartbeat CPU 0 instructions: 460000072 cycles: 280232914 heartbeat IPC: 1.613 cumulative IPC: 1.641 (Simulation time: 00 hr 49 min 39 sec)
Heartbeat CPU 0 instructions: 470000073 cycles: 286432697 heartbeat IPC: 1.613 cumulative IPC: 1.641 (Simulation time: 00 hr 50 min 48 sec)
Heartbeat CPU 0 instructions: 480000074 cycles: 292628926 heartbeat IPC: 1.614 cumulative IPC: 1.64 (Simulation time: 00 hr 51 min 57 sec)
Heartbeat CPU 0 instructions: 490000074 cycles: 298821128 heartbeat IPC: 1.615 cumulative IPC: 1.64 (Simulation time: 00 hr 53 min 05 sec)
Heartbeat CPU 0 instructions: 500000077 cycles: 305005048 heartbeat IPC: 1.617 cumulative IPC: 1.639 (Simulation time: 00 hr 53 min 59 sec)
Heartbeat CPU 0 instructions: 510000078 cycles: 311157471 heartbeat IPC: 1.625 cumulative IPC: 1.639 (Simulation time: 00 hr 55 min 07 sec)
Heartbeat CPU 0 instructions: 520000078 cycles: 317380267 heartbeat IPC: 1.607 cumulative IPC: 1.638 (Simulation time: 00 hr 56 min 17 sec)
Heartbeat CPU 0 instructions: 530000079 cycles: 323569989 heartbeat IPC: 1.616 cumulative IPC: 1.638 (Simulation time: 00 hr 57 min 28 sec)
Heartbeat CPU 0 instructions: 540000081 cycles: 329748446 heartbeat IPC: 1.619 cumulative IPC: 1.638 (Simulation time: 00 hr 58 min 29 sec)
Heartbeat CPU 0 instructions: 550000081 cycles: 335926734 heartbeat IPC: 1.619 cumulative IPC: 1.637 (Simulation time: 00 hr 59 min 34 sec)
Heartbeat CPU 0 instructions: 560000081 cycles: 342127695 heartbeat IPC: 1.613 cumulative IPC: 1.637 (Simulation time: 01 hr 00 min 38 sec)
Heartbeat CPU 0 instructions: 570000085 cycles: 348318168 heartbeat IPC: 1.615 cumulative IPC: 1.636 (Simulation time: 01 hr 01 min 43 sec)
Heartbeat CPU 0 instructions: 580000086 cycles: 354585446 heartbeat IPC: 1.596 cumulative IPC: 1.636 (Simulation time: 01 hr 02 min 35 sec)
Heartbeat CPU 0 instructions: 590000086 cycles: 360819337 heartbeat IPC: 1.604 cumulative IPC: 1.635 (Simulation time: 01 hr 03 min 33 sec)
Heartbeat CPU 0 instructions: 600000087 cycles: 367067319 heartbeat IPC: 1.601 cumulative IPC: 1.635 (Simulation time: 01 hr 04 min 43 sec)
Heartbeat CPU 0 instructions: 610000091 cycles: 373318639 heartbeat IPC: 1.6 cumulative IPC: 1.634 (Simulation time: 01 hr 05 min 43 sec)
Heartbeat CPU 0 instructions: 620000094 cycles: 379649822 heartbeat IPC: 1.579 cumulative IPC: 1.633 (Simulation time: 01 hr 06 min 54 sec)
Heartbeat CPU 0 instructions: 630000096 cycles: 385895631 heartbeat IPC: 1.601 cumulative IPC: 1.633 (Simulation time: 01 hr 08 min 05 sec)
Heartbeat CPU 0 instructions: 640000100 cycles: 392104389 heartbeat IPC: 1.611 cumulative IPC: 1.632 (Simulation time: 01 hr 09 min 06 sec)
Heartbeat CPU 0 instructions: 650000101 cycles: 398278632 heartbeat IPC: 1.62 cumulative IPC: 1.632 (Simulation time: 01 hr 10 min 16 sec)
Heartbeat CPU 0 instructions: 660000101 cycles: 404432736 heartbeat IPC: 1.625 cumulative IPC: 1.632 (Simulation time: 01 hr 11 min 26 sec)
Heartbeat CPU 0 instructions: 670000102 cycles: 410641762 heartbeat IPC: 1.611 cumulative IPC: 1.632 (Simulation time: 01 hr 12 min 35 sec)
Heartbeat CPU 0 instructions: 680000105 cycles: 416868230 heartbeat IPC: 1.606 cumulative IPC: 1.631 (Simulation time: 01 hr 13 min 45 sec)
Heartbeat CPU 0 instructions: 690000106 cycles: 423063126 heartbeat IPC: 1.614 cumulative IPC: 1.631 (Simulation time: 01 hr 14 min 56 sec)
Heartbeat CPU 0 instructions: 700000109 cycles: 429242584 heartbeat IPC: 1.618 cumulative IPC: 1.631 (Simulation time: 01 hr 16 min 05 sec)
Heartbeat CPU 0 instructions: 710000109 cycles: 435485344 heartbeat IPC: 1.602 cumulative IPC: 1.63 (Simulation time: 01 hr 17 min 10 sec)
Heartbeat CPU 0 instructions: 720000109 cycles: 441698923 heartbeat IPC: 1.609 cumulative IPC: 1.63 (Simulation time: 01 hr 18 min 21 sec)
Heartbeat CPU 0 instructions: 730000110 cycles: 447903491 heartbeat IPC: 1.612 cumulative IPC: 1.63 (Simulation time: 01 hr 19 min 31 sec)
Heartbeat CPU 0 instructions: 740000111 cycles: 454100952 heartbeat IPC: 1.614 cumulative IPC: 1.63 (Simulation time: 01 hr 20 min 41 sec)
Heartbeat CPU 0 instructions: 750000114 cycles: 460289833 heartbeat IPC: 1.616 cumulative IPC: 1.629 (Simulation time: 01 hr 21 min 51 sec)
Heartbeat CPU 0 instructions: 760000117 cycles: 466473599 heartbeat IPC: 1.617 cumulative IPC: 1.629 (Simulation time: 01 hr 23 min 02 sec)
Heartbeat CPU 0 instructions: 770000118 cycles: 472670972 heartbeat IPC: 1.614 cumulative IPC: 1.629 (Simulation time: 01 hr 24 min 11 sec)
Heartbeat CPU 0 instructions: 780000119 cycles: 478860873 heartbeat IPC: 1.616 cumulative IPC: 1.629 (Simulation time: 01 hr 25 min 19 sec)
Heartbeat CPU 0 instructions: 790000121 cycles: 485051792 heartbeat IPC: 1.615 cumulative IPC: 1.629 (Simulation time: 01 hr 26 min 14 sec)
Heartbeat CPU 0 instructions: 800000122 cycles: 491285077 heartbeat IPC: 1.604 cumulative IPC: 1.628 (Simulation time: 01 hr 27 min 22 sec)
Heartbeat CPU 0 instructions: 810000123 cycles: 497459935 heartbeat IPC: 1.619 cumulative IPC: 1.628 (Simulation time: 01 hr 28 min 20 sec)
Heartbeat CPU 0 instructions: 820000126 cycles: 503684044 heartbeat IPC: 1.607 cumulative IPC: 1.628 (Simulation time: 01 hr 29 min 23 sec)
Heartbeat CPU 0 instructions: 830000129 cycles: 509883534 heartbeat IPC: 1.613 cumulative IPC: 1.628 (Simulation time: 01 hr 30 min 30 sec)
[ERROR_CYCLE] Error added at CPU cycle 513921281, next at 1069353794, pending count: 1
[DRAM_CYCLE_ERROR] Cycle-based error applied! address=0x1b2d7f100 additional_latency=1990500 cycles
Heartbeat CPU 0 instructions: 840000132 cycles: 516055399 heartbeat IPC: 1.62 cumulative IPC: 1.628 (Simulation time: 01 hr 31 min 31 sec)
Heartbeat CPU 0 instructions: 850000134 cycles: 522224705 heartbeat IPC: 1.621 cumulative IPC: 1.628 (Simulation time: 01 hr 32 min 37 sec)
Heartbeat CPU 0 instructions: 860000138 cycles: 528405766 heartbeat IPC: 1.618 cumulative IPC: 1.628 (Simulation time: 01 hr 33 min 47 sec)
Heartbeat CPU 0 instructions: 870000141 cycles: 534619538 heartbeat IPC: 1.609 cumulative IPC: 1.627 (Simulation time: 01 hr 34 min 57 sec)
Heartbeat CPU 0 instructions: 880000145 cycles: 540806673 heartbeat IPC: 1.616 cumulative IPC: 1.627 (Simulation time: 01 hr 36 min 04 sec)
Heartbeat CPU 0 instructions: 890000148 cycles: 546950532 heartbeat IPC: 1.628 cumulative IPC: 1.627 (Simulation time: 01 hr 37 min 04 sec)
Heartbeat CPU 0 instructions: 900000148 cycles: 553126361 heartbeat IPC: 1.619 cumulative IPC: 1.627 (Simulation time: 01 hr 38 min 07 sec)
Heartbeat CPU 0 instructions: 910000148 cycles: 559274310 heartbeat IPC: 1.627 cumulative IPC: 1.627 (Simulation time: 01 hr 39 min 02 sec)
Heartbeat CPU 0 instructions: 920000149 cycles: 565459708 heartbeat IPC: 1.617 cumulative IPC: 1.627 (Simulation time: 01 hr 40 min 07 sec)
Heartbeat CPU 0 instructions: 930000153 cycles: 571629572 heartbeat IPC: 1.621 cumulative IPC: 1.627 (Simulation time: 01 hr 41 min 12 sec)
Heartbeat CPU 0 instructions: 940000154 cycles: 577806119 heartbeat IPC: 1.619 cumulative IPC: 1.627 (Simulation time: 01 hr 42 min 19 sec)
Heartbeat CPU 0 instructions: 950000156 cycles: 583988580 heartbeat IPC: 1.617 cumulative IPC: 1.627 (Simulation time: 01 hr 43 min 25 sec)
Heartbeat CPU 0 instructions: 960000156 cycles: 590174964 heartbeat IPC: 1.616 cumulative IPC: 1.627 (Simulation time: 01 hr 44 min 36 sec)
Heartbeat CPU 0 instructions: 970000157 cycles: 596415601 heartbeat IPC: 1.602 cumulative IPC: 1.626 (Simulation time: 01 hr 45 min 46 sec)
Heartbeat CPU 0 instructions: 980000158 cycles: 602661315 heartbeat IPC: 1.601 cumulative IPC: 1.626 (Simulation time: 01 hr 46 min 57 sec)
Heartbeat CPU 0 instructions: 990000158 cycles: 608924940 heartbeat IPC: 1.597 cumulative IPC: 1.626 (Simulation time: 01 hr 48 min 07 sec)
Heartbeat CPU 0 instructions: 1000000159 cycles: 615113094 heartbeat IPC: 1.616 cumulative IPC: 1.626 (Simulation time: 01 hr 49 min 17 sec)
Heartbeat CPU 0 instructions: 1010000160 cycles: 621330465 heartbeat IPC: 1.608 cumulative IPC: 1.626 (Simulation time: 01 hr 50 min 28 sec)
Heartbeat CPU 0 instructions: 1020000160 cycles: 627546877 heartbeat IPC: 1.609 cumulative IPC: 1.625 (Simulation time: 01 hr 51 min 38 sec)
Heartbeat CPU 0 instructions: 1030000163 cycles: 633735762 heartbeat IPC: 1.616 cumulative IPC: 1.625 (Simulation time: 01 hr 52 min 48 sec)
Heartbeat CPU 0 instructions: 1040000166 cycles: 639915367 heartbeat IPC: 1.618 cumulative IPC: 1.625 (Simulation time: 01 hr 53 min 59 sec)
Heartbeat CPU 0 instructions: 1050000170 cycles: 646090902 heartbeat IPC: 1.619 cumulative IPC: 1.625 (Simulation time: 01 hr 55 min 08 sec)
Heartbeat CPU 0 instructions: 1060000172 cycles: 652295575 heartbeat IPC: 1.612 cumulative IPC: 1.625 (Simulation time: 01 hr 56 min 18 sec)
Heartbeat CPU 0 instructions: 1070000172 cycles: 658499576 heartbeat IPC: 1.612 cumulative IPC: 1.625 (Simulation time: 01 hr 57 min 29 sec)
Heartbeat CPU 0 instructions: 1080000172 cycles: 664731989 heartbeat IPC: 1.605 cumulative IPC: 1.625 (Simulation time: 01 hr 58 min 40 sec)
Heartbeat CPU 0 instructions: 1090000174 cycles: 670899653 heartbeat IPC: 1.621 cumulative IPC: 1.625 (Simulation time: 01 hr 59 min 50 sec)
Heartbeat CPU 0 instructions: 1100000174 cycles: 677076367 heartbeat IPC: 1.619 cumulative IPC: 1.625 (Simulation time: 02 hr 00 min 54 sec)
Heartbeat CPU 0 instructions: 1110000176 cycles: 683270941 heartbeat IPC: 1.614 cumulative IPC: 1.625 (Simulation time: 02 hr 01 min 51 sec)
Heartbeat CPU 0 instructions: 1120000177 cycles: 689467530 heartbeat IPC: 1.614 cumulative IPC: 1.624 (Simulation time: 02 hr 02 min 50 sec)
Heartbeat CPU 0 instructions: 1130000177 cycles: 695648438 heartbeat IPC: 1.618 cumulative IPC: 1.624 (Simulation time: 02 hr 03 min 44 sec)
Heartbeat CPU 0 instructions: 1140000179 cycles: 701805913 heartbeat IPC: 1.624 cumulative IPC: 1.624 (Simulation time: 02 hr 04 min 43 sec)
Heartbeat CPU 0 instructions: 1150000180 cycles: 707952964 heartbeat IPC: 1.627 cumulative IPC: 1.624 (Simulation time: 02 hr 05 min 53 sec)
Heartbeat CPU 0 instructions: 1160000181 cycles: 714113970 heartbeat IPC: 1.623 cumulative IPC: 1.624 (Simulation time: 02 hr 07 min 03 sec)
Heartbeat CPU 0 instructions: 1170000183 cycles: 720335013 heartbeat IPC: 1.607 cumulative IPC: 1.624 (Simulation time: 02 hr 08 min 14 sec)
Heartbeat CPU 0 instructions: 1180000183 cycles: 726588021 heartbeat IPC: 1.599 cumulative IPC: 1.624 (Simulation time: 02 hr 09 min 24 sec)
Heartbeat CPU 0 instructions: 1190000183 cycles: 732772861 heartbeat IPC: 1.617 cumulative IPC: 1.624 (Simulation time: 02 hr 10 min 35 sec)
Heartbeat CPU 0 instructions: 1200000183 cycles: 738959670 heartbeat IPC: 1.616 cumulative IPC: 1.624 (Simulation time: 02 hr 11 min 45 sec)
Heartbeat CPU 0 instructions: 1210000185 cycles: 745222024 heartbeat IPC: 1.597 cumulative IPC: 1.624 (Simulation time: 02 hr 12 min 56 sec)
Heartbeat CPU 0 instructions: 1220000187 cycles: 751460281 heartbeat IPC: 1.603 cumulative IPC: 1.624 (Simulation time: 02 hr 14 min 06 sec)
Heartbeat CPU 0 instructions: 1230000188 cycles: 757714942 heartbeat IPC: 1.599 cumulative IPC: 1.623 (Simulation time: 02 hr 15 min 16 sec)
Heartbeat CPU 0 instructions: 1240000190 cycles: 763911707 heartbeat IPC: 1.614 cumulative IPC: 1.623 (Simulation time: 02 hr 16 min 26 sec)
Heartbeat CPU 0 instructions: 1250000193 cycles: 770112518 heartbeat IPC: 1.613 cumulative IPC: 1.623 (Simulation time: 02 hr 17 min 36 sec)
Heartbeat CPU 0 instructions: 1260000194 cycles: 776359881 heartbeat IPC: 1.601 cumulative IPC: 1.623 (Simulation time: 02 hr 18 min 47 sec)
Heartbeat CPU 0 instructions: 1270000195 cycles: 782650195 heartbeat IPC: 1.59 cumulative IPC: 1.623 (Simulation time: 02 hr 19 min 57 sec)
Heartbeat CPU 0 instructions: 1280000195 cycles: 788877635 heartbeat IPC: 1.606 cumulative IPC: 1.623 (Simulation time: 02 hr 21 min 07 sec)
Heartbeat CPU 0 instructions: 1290000197 cycles: 795087263 heartbeat IPC: 1.61 cumulative IPC: 1.622 (Simulation time: 02 hr 22 min 17 sec)
Heartbeat CPU 0 instructions: 1300000200 cycles: 801328703 heartbeat IPC: 1.602 cumulative IPC: 1.622 (Simulation time: 02 hr 23 min 28 sec)
Heartbeat CPU 0 instructions: 1310000203 cycles: 807565704 heartbeat IPC: 1.603 cumulative IPC: 1.622 (Simulation time: 02 hr 24 min 38 sec)
Heartbeat CPU 0 instructions: 1320000204 cycles: 813786919 heartbeat IPC: 1.607 cumulative IPC: 1.622 (Simulation time: 02 hr 25 min 48 sec)
Heartbeat CPU 0 instructions: 1330000204 cycles: 819988043 heartbeat IPC: 1.613 cumulative IPC: 1.622 (Simulation time: 02 hr 26 min 58 sec)
Heartbeat CPU 0 instructions: 1340000207 cycles: 826167417 heartbeat IPC: 1.618 cumulative IPC: 1.622 (Simulation time: 02 hr 28 min 04 sec)
Heartbeat CPU 0 instructions: 1350000211 cycles: 832360200 heartbeat IPC: 1.615 cumulative IPC: 1.622 (Simulation time: 02 hr 29 min 13 sec)
Heartbeat CPU 0 instructions: 1360000211 cycles: 838670577 heartbeat IPC: 1.585 cumulative IPC: 1.622 (Simulation time: 02 hr 30 min 23 sec)
Heartbeat CPU 0 instructions: 1370000214 cycles: 844900833 heartbeat IPC: 1.605 cumulative IPC: 1.621 (Simulation time: 02 hr 31 min 32 sec)
Heartbeat CPU 0 instructions: 1380000216 cycles: 851136551 heartbeat IPC: 1.604 cumulative IPC: 1.621 (Simulation time: 02 hr 32 min 41 sec)
Heartbeat CPU 0 instructions: 1390000217 cycles: 857396654 heartbeat IPC: 1.597 cumulative IPC: 1.621 (Simulation time: 02 hr 33 min 50 sec)
Heartbeat CPU 0 instructions: 1400000219 cycles: 863685114 heartbeat IPC: 1.59 cumulative IPC: 1.621 (Simulation time: 02 hr 34 min 56 sec)
Heartbeat CPU 0 instructions: 1410000223 cycles: 869975869 heartbeat IPC: 1.59 cumulative IPC: 1.621 (Simulation time: 02 hr 35 min 55 sec)
Heartbeat CPU 0 instructions: 1420000225 cycles: 876228386 heartbeat IPC: 1.599 cumulative IPC: 1.621 (Simulation time: 02 hr 36 min 55 sec)
Heartbeat CPU 0 instructions: 1430000228 cycles: 882442621 heartbeat IPC: 1.609 cumulative IPC: 1.621 (Simulation time: 02 hr 38 min 05 sec)
Heartbeat CPU 0 instructions: 1440000232 cycles: 888671344 heartbeat IPC: 1.605 cumulative IPC: 1.62 (Simulation time: 02 hr 39 min 16 sec)
Heartbeat CPU 0 instructions: 1450000235 cycles: 894921601 heartbeat IPC: 1.6 cumulative IPC: 1.62 (Simulation time: 02 hr 40 min 26 sec)
Heartbeat CPU 0 instructions: 1460000238 cycles: 901220129 heartbeat IPC: 1.588 cumulative IPC: 1.62 (Simulation time: 02 hr 41 min 37 sec)
Heartbeat CPU 0 instructions: 1470000241 cycles: 907400062 heartbeat IPC: 1.618 cumulative IPC: 1.62 (Simulation time: 02 hr 42 min 42 sec)
Heartbeat CPU 0 instructions: 1480000242 cycles: 913559822 heartbeat IPC: 1.623 cumulative IPC: 1.62 (Simulation time: 02 hr 43 min 43 sec)
Heartbeat CPU 0 instructions: 1490000242 cycles: 919715786 heartbeat IPC: 1.624 cumulative IPC: 1.62 (Simulation time: 02 hr 44 min 40 sec)
Heartbeat CPU 0 instructions: 1500000244 cycles: 925910640 heartbeat IPC: 1.614 cumulative IPC: 1.62 (Simulation time: 02 hr 45 min 49 sec)
Heartbeat CPU 0 instructions: 1510000246 cycles: 932075776 heartbeat IPC: 1.622 cumulative IPC: 1.62 (Simulation time: 02 hr 46 min 58 sec)
Heartbeat CPU 0 instructions: 1520000248 cycles: 938202361 heartbeat IPC: 1.632 cumulative IPC: 1.62 (Simulation time: 02 hr 48 min 07 sec)
Heartbeat CPU 0 instructions: 1530000248 cycles: 944308156 heartbeat IPC: 1.638 cumulative IPC: 1.62 (Simulation time: 02 hr 49 min 16 sec)
Heartbeat CPU 0 instructions: 1540000250 cycles: 950427656 heartbeat IPC: 1.634 cumulative IPC: 1.62 (Simulation time: 02 hr 50 min 24 sec)
Heartbeat CPU 0 instructions: 1550000252 cycles: 956641376 heartbeat IPC: 1.609 cumulative IPC: 1.62 (Simulation time: 02 hr 51 min 34 sec)
Heartbeat CPU 0 instructions: 1560000255 cycles: 962812028 heartbeat IPC: 1.621 cumulative IPC: 1.62 (Simulation time: 02 hr 52 min 35 sec)
Heartbeat CPU 0 instructions: 1570000255 cycles: 968986873 heartbeat IPC: 1.619 cumulative IPC: 1.62 (Simulation time: 02 hr 53 min 44 sec)
Heartbeat CPU 0 instructions: 1580000258 cycles: 975157352 heartbeat IPC: 1.621 cumulative IPC: 1.62 (Simulation time: 02 hr 54 min 54 sec)
Heartbeat CPU 0 instructions: 1590000258 cycles: 981318155 heartbeat IPC: 1.623 cumulative IPC: 1.62 (Simulation time: 02 hr 55 min 55 sec)
Heartbeat CPU 0 instructions: 1600000258 cycles: 987537315 heartbeat IPC: 1.608 cumulative IPC: 1.62 (Simulation time: 02 hr 56 min 55 sec)
Heartbeat CPU 0 instructions: 1610000262 cycles: 993759079 heartbeat IPC: 1.607 cumulative IPC: 1.62 (Simulation time: 02 hr 57 min 45 sec)
Heartbeat CPU 0 instructions: 1620000263 cycles: 999979676 heartbeat IPC: 1.608 cumulative IPC: 1.62 (Simulation time: 02 hr 58 min 40 sec)
Heartbeat CPU 0 instructions: 1630000266 cycles: 1006201760 heartbeat IPC: 1.607 cumulative IPC: 1.62 (Simulation time: 02 hr 59 min 43 sec)
Heartbeat CPU 0 instructions: 1640000269 cycles: 1012483740 heartbeat IPC: 1.592 cumulative IPC: 1.62 (Simulation time: 03 hr 00 min 50 sec)
Heartbeat CPU 0 instructions: 1650000273 cycles: 1018747529 heartbeat IPC: 1.596 cumulative IPC: 1.62 (Simulation time: 03 hr 02 min 00 sec)
Heartbeat CPU 0 instructions: 1660000277 cycles: 1024968407 heartbeat IPC: 1.607 cumulative IPC: 1.62 (Simulation time: 03 hr 03 min 09 sec)
Heartbeat CPU 0 instructions: 1670000280 cycles: 1031170078 heartbeat IPC: 1.612 cumulative IPC: 1.62 (Simulation time: 03 hr 04 min 09 sec)
Heartbeat CPU 0 instructions: 1680000280 cycles: 1037349983 heartbeat IPC: 1.618 cumulative IPC: 1.62 (Simulation time: 03 hr 04 min 59 sec)
Heartbeat CPU 0 instructions: 1690000283 cycles: 1043549541 heartbeat IPC: 1.613 cumulative IPC: 1.619 (Simulation time: 03 hr 05 min 51 sec)
Heartbeat CPU 0 instructions: 1700000285 cycles: 1049780059 heartbeat IPC: 1.605 cumulative IPC: 1.619 (Simulation time: 03 hr 06 min 46 sec)
Heartbeat CPU 0 instructions: 1710000288 cycles: 1056003752 heartbeat IPC: 1.607 cumulative IPC: 1.619 (Simulation time: 03 hr 07 min 56 sec)
Heartbeat CPU 0 instructions: 1720000288 cycles: 1062207927 heartbeat IPC: 1.612 cumulative IPC: 1.619 (Simulation time: 03 hr 08 min 47 sec)
Heartbeat CPU 0 instructions: 1730000288 cycles: 1068393847 heartbeat IPC: 1.617 cumulative IPC: 1.619 (Simulation time: 03 hr 09 min 36 sec)
[ERROR_CYCLE] Error added at CPU cycle 1069353795, next at 1075364498, pending count: 1
[DRAM_CYCLE_ERROR] Cycle-based error applied! address=0x416308b80 additional_latency=1990500 cycles
Heartbeat CPU 0 instructions: 1740000291 cycles: 1074663941 heartbeat IPC: 1.595 cumulative IPC: 1.619 (Simulation time: 03 hr 10 min 47 sec)
[ERROR_CYCLE] Error added at CPU cycle 1075364499, next at 1382772839, pending count: 1
[DRAM_CYCLE_ERROR] Cycle-based error applied! address=0x6e1a1ee80 additional_latency=1990500 cycles
Heartbeat CPU 0 instructions: 1750000291 cycles: 1080834706 heartbeat IPC: 1.621 cumulative IPC: 1.619 (Simulation time: 03 hr 11 min 56 sec)
Heartbeat CPU 0 instructions: 1760000291 cycles: 1086978471 heartbeat IPC: 1.628 cumulative IPC: 1.619 (Simulation time: 03 hr 13 min 05 sec)
Heartbeat CPU 0 instructions: 1770000292 cycles: 1093126432 heartbeat IPC: 1.627 cumulative IPC: 1.619 (Simulation time: 03 hr 14 min 13 sec)
Heartbeat CPU 0 instructions: 1780000295 cycles: 1099280844 heartbeat IPC: 1.625 cumulative IPC: 1.619 (Simulation time: 03 hr 15 min 14 sec)
Heartbeat CPU 0 instructions: 1790000296 cycles: 1105438350 heartbeat IPC: 1.624 cumulative IPC: 1.619 (Simulation time: 03 hr 16 min 13 sec)
Heartbeat CPU 0 instructions: 1800000299 cycles: 1111648529 heartbeat IPC: 1.61 cumulative IPC: 1.619 (Simulation time: 03 hr 17 min 09 sec)
Heartbeat CPU 0 instructions: 1810000299 cycles: 1117857634 heartbeat IPC: 1.611 cumulative IPC: 1.619 (Simulation time: 03 hr 18 min 07 sec)
Heartbeat CPU 0 instructions: 1820000301 cycles: 1124011236 heartbeat IPC: 1.625 cumulative IPC: 1.619 (Simulation time: 03 hr 19 min 17 sec)
Heartbeat CPU 0 instructions: 1830000301 cycles: 1130225589 heartbeat IPC: 1.609 cumulative IPC: 1.619 (Simulation time: 03 hr 20 min 28 sec)
Heartbeat CPU 0 instructions: 1840000304 cycles: 1136441944 heartbeat IPC: 1.609 cumulative IPC: 1.619 (Simulation time: 03 hr 21 min 38 sec)
Heartbeat CPU 0 instructions: 1850000306 cycles: 1142652968 heartbeat IPC: 1.61 cumulative IPC: 1.619 (Simulation time: 03 hr 22 min 49 sec)
Heartbeat CPU 0 instructions: 1860000310 cycles: 1148852832 heartbeat IPC: 1.613 cumulative IPC: 1.619 (Simulation time: 03 hr 23 min 52 sec)
Heartbeat CPU 0 instructions: 1870000313 cycles: 1155031167 heartbeat IPC: 1.619 cumulative IPC: 1.619 (Simulation time: 03 hr 24 min 59 sec)
Heartbeat CPU 0 instructions: 1880000314 cycles: 1161208918 heartbeat IPC: 1.619 cumulative IPC: 1.619 (Simulation time: 03 hr 26 min 00 sec)
Heartbeat CPU 0 instructions: 1890000314 cycles: 1167451473 heartbeat IPC: 1.602 cumulative IPC: 1.619 (Simulation time: 03 hr 27 min 03 sec)
Heartbeat CPU 0 instructions: 1900000314 cycles: 1173690041 heartbeat IPC: 1.603 cumulative IPC: 1.619 (Simulation time: 03 hr 27 min 55 sec)
Heartbeat CPU 0 instructions: 1910000315 cycles: 1179910298 heartbeat IPC: 1.608 cumulative IPC: 1.619 (Simulation time: 03 hr 28 min 45 sec)
Heartbeat CPU 0 instructions: 1920000315 cycles: 1186187852 heartbeat IPC: 1.593 cumulative IPC: 1.619 (Simulation time: 03 hr 29 min 33 sec)
Heartbeat CPU 0 instructions: 1930000317 cycles: 1192394467 heartbeat IPC: 1.611 cumulative IPC: 1.619 (Simulation time: 03 hr 30 min 43 sec)
Heartbeat CPU 0 instructions: 1940000317 cycles: 1198617282 heartbeat IPC: 1.607 cumulative IPC: 1.619 (Simulation time: 03 hr 31 min 39 sec)
Heartbeat CPU 0 instructions: 1950000318 cycles: 1204822997 heartbeat IPC: 1.611 cumulative IPC: 1.618 (Simulation time: 03 hr 32 min 42 sec)
Heartbeat CPU 0 instructions: 1960000319 cycles: 1211021744 heartbeat IPC: 1.613 cumulative IPC: 1.618 (Simulation time: 03 hr 33 min 50 sec)
Heartbeat CPU 0 instructions: 1970000321 cycles: 1217199057 heartbeat IPC: 1.619 cumulative IPC: 1.618 (Simulation time: 03 hr 34 min 57 sec)
Heartbeat CPU 0 instructions: 1980000325 cycles: 1223388487 heartbeat IPC: 1.616 cumulative IPC: 1.618 (Simulation time: 03 hr 36 min 04 sec)
Heartbeat CPU 0 instructions: 1990000326 cycles: 1229622989 heartbeat IPC: 1.604 cumulative IPC: 1.618 (Simulation time: 03 hr 37 min 12 sec)

=== ERROR PAGE STATISTICS ===
Mode: CYCLE
Error Cycle Interval: 200000000 CPU cycles
Total Error Accesses: 5
==============================
Simulation finished CPU 0 instructions: 1999999510 cycles: 1235877989 cumulative IPC: 1.618 (Simulation time: 03 hr 38 min 21 sec)
Simulation complete CPU 0 instructions: 1999999510 cycles: 1235877989 cumulative IPC: 1.618 (Simulation time: 03 hr 38 min 21 sec)

ChampSim completed all CPUs

=== Simulation ===
CPU 0 runs test_traces/607.cactuBSSN_s-2421B.champsimtrace.xz

Region of Interest Statistics

CPU 0 cumulative IPC: 1.618 instructions: 1999999510 cycles: 1235877989
CPU 0 Branch Prediction Accuracy: 98.41% MPKI: 0.0223 Average ROB Occupancy at Mispredict: 322.1
Branch type MPKI
BRANCH_DIRECT_JUMP: 3.4e-05
BRANCH_INDIRECT: 4.45e-05
BRANCH_CONDITIONAL: 0.0122
BRANCH_DIRECT_CALL: 0.000332
BRANCH_INDIRECT_CALL: 1.5e-06
BRANCH_RETURN: 0.009687

cpu0->cpu0_STLB TOTAL        ACCESS:   18066563 HIT:   18066320 MISS:        243 MSHR_MERGE:          0
cpu0->cpu0_STLB LOAD         ACCESS:   18066563 HIT:   18066320 MISS:        243 MSHR_MERGE:          0
cpu0->cpu0_STLB RFO          ACCESS:          0 HIT:          0 MISS:          0 MSHR_MERGE:          0
cpu0->cpu0_STLB PREFETCH     ACCESS:          0 HIT:          0 MISS:          0 MSHR_MERGE:          0
cpu0->cpu0_STLB WRITE        ACCESS:          0 HIT:          0 MISS:          0 MSHR_MERGE:          0
cpu0->cpu0_STLB TRANSLATION  ACCESS:          0 HIT:          0 MISS:          0 MSHR_MERGE:          0
cpu0->cpu0_STLB PREFETCH REQUESTED:          0 ISSUED:          0 USEFUL:          0 USELESS:          0
cpu0->cpu0_STLB AVERAGE MISS LATENCY: 9077 cycles
cpu0->cpu0_L2C TOTAL        ACCESS:  251087217 HIT:  230704475 MISS:   20382742 MSHR_MERGE:          0
cpu0->cpu0_L2C LOAD         ACCESS:  217005988 HIT:  196653872 MISS:   20352116 MSHR_MERGE:          0
cpu0->cpu0_L2C RFO          ACCESS:   16173205 HIT:   16142597 MISS:      30608 MSHR_MERGE:          0
cpu0->cpu0_L2C PREFETCH     ACCESS:          0 HIT:          0 MISS:          0 MSHR_MERGE:          0
cpu0->cpu0_L2C WRITE        ACCESS:   17908024 HIT:   17908006 MISS:         18 MSHR_MERGE:          0
cpu0->cpu0_L2C TRANSLATION  ACCESS:          0 HIT:          0 MISS:          0 MSHR_MERGE:          0
cpu0->cpu0_L2C PREFETCH REQUESTED:          0 ISSUED:          0 USEFUL:          0 USELESS:          0
cpu0->cpu0_L2C AVERAGE MISS LATENCY: 95.29 cycles
cpu0->cpu0_L1I TOTAL        ACCESS:  392704634 HIT:  390046606 MISS:    2658028 MSHR_MERGE:    1307885
cpu0->cpu0_L1I LOAD         ACCESS:  392704634 HIT:  390046606 MISS:    2658028 MSHR_MERGE:    1307885
cpu0->cpu0_L1I RFO          ACCESS:          0 HIT:          0 MISS:          0 MSHR_MERGE:          0
cpu0->cpu0_L1I PREFETCH     ACCESS:          0 HIT:          0 MISS:          0 MSHR_MERGE:          0
cpu0->cpu0_L1I WRITE        ACCESS:          0 HIT:          0 MISS:          0 MSHR_MERGE:          0
cpu0->cpu0_L1I TRANSLATION  ACCESS:          0 HIT:          0 MISS:          0 MSHR_MERGE:          0
cpu0->cpu0_L1I PREFETCH REQUESTED:          0 ISSUED:          0 USEFUL:          0 USELESS:          0
cpu0->cpu0_L1I AVERAGE MISS LATENCY: 7.267 cycles
cpu0->cpu0_L1D TOTAL        ACCESS:  650988235 HIT:  376288890 MISS:  274699345 MSHR_MERGE:   42200324
cpu0->cpu0_L1D LOAD         ACCESS:  424238163 HIT:  167462467 MISS:  256775696 MSHR_MERGE:   40456889
cpu0->cpu0_L1D RFO          ACCESS:          0 HIT:          0 MISS:          0 MSHR_MERGE:          0
cpu0->cpu0_L1D PREFETCH     ACCESS:          0 HIT:          0 MISS:          0 MSHR_MERGE:          0
cpu0->cpu0_L1D WRITE        ACCESS:  226750072 HIT:  208826423 MISS:   17923649 MSHR_MERGE:    1743435
cpu0->cpu0_L1D TRANSLATION  ACCESS:          0 HIT:          0 MISS:          0 MSHR_MERGE:          0
cpu0->cpu0_L1D PREFETCH REQUESTED:          0 ISSUED:          0 USEFUL:          0 USELESS:          0
cpu0->cpu0_L1D AVERAGE MISS LATENCY: 17.52 cycles
cpu0->cpu0_ITLB TOTAL        ACCESS:  319409591 HIT:  319409578 MISS:         13 MSHR_MERGE:         10
cpu0->cpu0_ITLB LOAD         ACCESS:  319409591 HIT:  319409578 MISS:         13 MSHR_MERGE:         10
cpu0->cpu0_ITLB RFO          ACCESS:          0 HIT:          0 MISS:          0 MSHR_MERGE:          0
cpu0->cpu0_ITLB PREFETCH     ACCESS:          0 HIT:          0 MISS:          0 MSHR_MERGE:          0
cpu0->cpu0_ITLB WRITE        ACCESS:          0 HIT:          0 MISS:          0 MSHR_MERGE:          0
cpu0->cpu0_ITLB TRANSLATION  ACCESS:          0 HIT:          0 MISS:          0 MSHR_MERGE:          0
cpu0->cpu0_ITLB PREFETCH REQUESTED:          0 ISSUED:          0 USEFUL:          0 USELESS:          0
cpu0->cpu0_ITLB AVERAGE MISS LATENCY: 8638 cycles
cpu0->cpu0_DTLB TOTAL        ACCESS:  491336500 HIT:  454264708 MISS:   37071792 MSHR_MERGE:   19005232
cpu0->cpu0_DTLB LOAD         ACCESS:  491336500 HIT:  454264708 MISS:   37071792 MSHR_MERGE:   19005232
cpu0->cpu0_DTLB RFO          ACCESS:          0 HIT:          0 MISS:          0 MSHR_MERGE:          0
cpu0->cpu0_DTLB PREFETCH     ACCESS:          0 HIT:          0 MISS:          0 MSHR_MERGE:          0
cpu0->cpu0_DTLB WRITE        ACCESS:          0 HIT:          0 MISS:          0 MSHR_MERGE:          0
cpu0->cpu0_DTLB TRANSLATION  ACCESS:          0 HIT:          0 MISS:          0 MSHR_MERGE:          0
cpu0->cpu0_DTLB PREFETCH REQUESTED:          0 ISSUED:          0 USEFUL:          0 USELESS:          0
cpu0->cpu0_DTLB AVERAGE MISS LATENCY: 5.142 cycles
cpu0->LLC TOTAL        ACCESS:   22275863 HIT:    7173056 MISS:   15102807 MSHR_MERGE:          0
cpu0->LLC LOAD         ACCESS:   20352116 HIT:    5279965 MISS:   15072151 MSHR_MERGE:          0
cpu0->LLC RFO          ACCESS:      30608 HIT:          0 MISS:      30608 MSHR_MERGE:          0
cpu0->LLC PREFETCH     ACCESS:          0 HIT:          0 MISS:          0 MSHR_MERGE:          0
cpu0->LLC WRITE        ACCESS:    1893139 HIT:    1893091 MISS:         48 MSHR_MERGE:          0
cpu0->LLC TRANSLATION  ACCESS:          0 HIT:          0 MISS:          0 MSHR_MERGE:          0
cpu0->LLC PREFETCH REQUESTED:          0 ISSUED:          0 USEFUL:          0 USELESS:          0
cpu0->LLC AVERAGE MISS LATENCY: 107.4 cycles

DRAM Statistics

Channel 0 RQ ROW_BUFFER_HIT:      35224
  ROW_BUFFER_MISS:    7516391
  AVG DBUS CONGESTED CYCLE: 10.14
Channel 0 WQ ROW_BUFFER_HIT:     286034
  ROW_BUFFER_MISS:     658143
  FULL:          0
Channel 0 REFRESHES ISSUED:     102983

Channel 1 RQ ROW_BUFFER_HIT:      35294
  ROW_BUFFER_MISS:    7516331
  AVG DBUS CONGESTED CYCLE: 10.13
Channel 1 WQ ROW_BUFFER_HIT:     285984
  ROW_BUFFER_MISS:     658186
  FULL:          0
Channel 1 REFRESHES ISSUED:     102983
