[VMEM] WARNING: physical memory size is smaller than virtual memory size.

*** ChampSim Multicore Out-of-Order Simulator ***
Warmup Instructions: 0
Simulation Instructions: 9223372036854775807
Number of CPUs: 1
Page size: 4096

Off-chip DRAM Size: 64 GiB Channels: 2 Width: 32-bit Data Rate: 4807 MT/s
[ERROR_PAGE_MANAGER] Error latency: 173500 
[ERROR_PAGE_MANAGER] Random seed: 54321 (fixed for preload reproducibility)
[ERROR_PAGE_MANAGER] Cycle-based error modeling enabled
[ERROR_PAGE_MANAGER] Errors per interval: 1
[ERROR_PAGE_MANAGER] Error cycle interval: 10000000 cycles

=== ERROR PAGE STATISTICS ===
Mode: CYCLE
Error Cycle Interval: 10000000 CPU cycles
Total Error Accesses: 0
==============================
Warmup finished CPU 0 instructions: 0 cycles: 1 cumulative IPC: 0 (Simulation time: 00 hr 00 min 01 sec)
Warmup complete CPU 0 instructions: 0 cycles: 1 cumulative IPC: 0 (Simulation time: 00 hr 00 min 01 sec)
[ERROR_CYCLE] Error added at CPU cycle 7127805, next at 9153305, pending count: 1
[DRAM_CYCLE_ERROR] Cycle-based error applied! address=0xc8bd920c0 additional_latency=173500 cycles
[ERROR_CYCLE] Error added at CPU cycle 9153306, next at 25696063, pending count: 1
[DRAM_CYCLE_ERROR] Cycle-based error applied! address=0xab2a313f8 additional_latency=173500 cycles
[ERROR_CYCLE] Error added at CPU cycle 25696063, next at 53467688, pending count: 1
[DRAM_CYCLE_ERROR] Cycle-based error applied! address=0x2066eeec8 additional_latency=173500 cycles
Heartbeat CPU 0 instructions: 10000003 cycles: 31208733 heartbeat IPC: 0.3204 cumulative IPC: 0.3204 (Simulation time: 00 hr 03 min 36 sec)
[ERROR_CYCLE] Error added at CPU cycle 53467689, next at 53768224, pending count: 1
[DRAM_CYCLE_ERROR] Cycle-based error applied! address=0x5a7b7f5e0 additional_latency=173500 cycles
[ERROR_CYCLE] Error added at CPU cycle 53768224, next at 69138641, pending count: 1
[DRAM_CYCLE_ERROR] Cycle-based error applied! address=0x2ae658768 additional_latency=173500 cycles
Heartbeat CPU 0 instructions: 20000007 cycles: 59072401 heartbeat IPC: 0.3589 cumulative IPC: 0.3386 (Simulation time: 00 hr 06 min 39 sec)
[ERROR_CYCLE] Error added at CPU cycle 69138642, next at 70928443, pending count: 1
[DRAM_CYCLE_ERROR] Cycle-based error applied! address=0xe8a857570 additional_latency=173500 cycles
[ERROR_CYCLE] Error added at CPU cycle 70928444, next at 76617422, pending count: 1
[DRAM_CYCLE_ERROR] Cycle-based error applied! address=0xa37b6c9f0 additional_latency=173500 cycles
[ERROR_CYCLE] Error added at CPU cycle 76617422, next at 85156860, pending count: 1
[DRAM_CYCLE_ERROR] Cycle-based error applied! address=0x4926a7788 additional_latency=173500 cycles
Heartbeat CPU 0 instructions: 30000008 cycles: 84998880 heartbeat IPC: 0.3857 cumulative IPC: 0.3529 (Simulation time: 00 hr 09 min 39 sec)
[ERROR_CYCLE] Error added at CPU cycle 85156860, next at 87603375, pending count: 1
[DRAM_CYCLE_ERROR] Cycle-based error applied! address=0x74c8db820 additional_latency=173500 cycles
[ERROR_CYCLE] Error added at CPU cycle 87603376, next at 105362955, pending count: 1
[DRAM_CYCLE_ERROR] Cycle-based error applied! address=0xcca2c5338 additional_latency=173500 cycles
[ERROR_CYCLE] Error added at CPU cycle 105362955, next at 108923137, pending count: 1
[DRAM_CYCLE_ERROR] Cycle-based error applied! address=0xdfa8e4c58 additional_latency=173500 cycles
[ERROR_CYCLE] Error added at CPU cycle 108923137, next at 113398998, pending count: 1
[DRAM_CYCLE_ERROR] Cycle-based error applied! address=0xfe9b86d40 additional_latency=173500 cycles
Heartbeat CPU 0 instructions: 40000008 cycles: 111145213 heartbeat IPC: 0.3825 cumulative IPC: 0.3599 (Simulation time: 00 hr 12 min 37 sec)
[ERROR_CYCLE] Error added at CPU cycle 113398999, next at 133751835, pending count: 1
[DRAM_CYCLE_ERROR] Cycle-based error applied! address=0xc87bd41b0 additional_latency=173500 cycles
[ERROR_CYCLE] Error added at CPU cycle 133751835, next at 133874359, pending count: 1
[DRAM_CYCLE_ERROR] Cycle-based error applied! address=0xf5cbbb380 additional_latency=173500 cycles
[ERROR_CYCLE] Error added at CPU cycle 133874359, next at 145123863, pending count: 1
[DRAM_CYCLE_ERROR] Cycle-based error applied! address=0x7620e2c8 additional_latency=173500 cycles
Heartbeat CPU 0 instructions: 50000008 cycles: 136767553 heartbeat IPC: 0.3903 cumulative IPC: 0.3656 (Simulation time: 00 hr 15 min 00 sec)
[ERROR_CYCLE] Error added at CPU cycle 145123863, next at 151687113, pending count: 1
[DRAM_CYCLE_ERROR] Cycle-based error applied! address=0x7e7993d8 additional_latency=173500 cycles
[ERROR_CYCLE] Error added at CPU cycle 151687113, next at 189526482, pending count: 1
[DRAM_CYCLE_ERROR] Cycle-based error applied! address=0xa97d96708 additional_latency=173500 cycles
Heartbeat CPU 0 instructions: 60000011 cycles: 161127614 heartbeat IPC: 0.4105 cumulative IPC: 0.3724 (Simulation time: 00 hr 17 min 51 sec)
Heartbeat CPU 0 instructions: 70000011 cycles: 185761465 heartbeat IPC: 0.4059 cumulative IPC: 0.3768 (Simulation time: 00 hr 20 min 47 sec)
[ERROR_CYCLE] Error added at CPU cycle 189526483, next at 191895927, pending count: 1
[DRAM_CYCLE_ERROR] Cycle-based error applied! address=0xc49c49348 additional_latency=173500 cycles
[ERROR_CYCLE] Error added at CPU cycle 191895927, next at 194297025, pending count: 1
[DRAM_CYCLE_ERROR] Cycle-based error applied! address=0x1fae0d0b0 additional_latency=173500 cycles
[ERROR_CYCLE] Error added at CPU cycle 194297026, next at 223119032, pending count: 1
[DRAM_CYCLE_ERROR] Cycle-based error applied! address=0x551952e00 additional_latency=173500 cycles
Heartbeat CPU 0 instructions: 80000012 cycles: 210071600 heartbeat IPC: 0.4114 cumulative IPC: 0.3808 (Simulation time: 00 hr 23 min 40 sec)
[ERROR_CYCLE] Error added at CPU cycle 223119032, next at 227066706, pending count: 1
[DRAM_CYCLE_ERROR] Cycle-based error applied! address=0x4232960f0 additional_latency=173500 cycles
[ERROR_CYCLE] Error added at CPU cycle 227066706, next at 269846489, pending count: 1
[DRAM_CYCLE_ERROR] Cycle-based error applied! address=0xa1fb2c188 additional_latency=173500 cycles
Heartbeat CPU 0 instructions: 90000013 cycles: 234080689 heartbeat IPC: 0.4165 cumulative IPC: 0.3845 (Simulation time: 00 hr 26 min 06 sec)
Heartbeat CPU 0 instructions: 100000013 cycles: 257852606 heartbeat IPC: 0.4207 cumulative IPC: 0.3878 (Simulation time: 00 hr 28 min 17 sec)
[ERROR_CYCLE] Error added at CPU cycle 269846490, next at 275597170, pending count: 1
[DRAM_CYCLE_ERROR] Cycle-based error applied! address=0x22b4ba100 additional_latency=173500 cycles
[ERROR_CYCLE] Error added at CPU cycle 275597171, next at 309231635, pending count: 1
[DRAM_CYCLE_ERROR] Cycle-based error applied! address=0xfc9eff210 additional_latency=173500 cycles
Heartbeat CPU 0 instructions: 110000014 cycles: 281602844 heartbeat IPC: 0.421 cumulative IPC: 0.3906 (Simulation time: 00 hr 30 min 48 sec)
Heartbeat CPU 0 instructions: 120000018 cycles: 305259650 heartbeat IPC: 0.4227 cumulative IPC: 0.3931 (Simulation time: 00 hr 33 min 05 sec)
[ERROR_CYCLE] Error added at CPU cycle 309231636, next at 312214761, pending count: 1
[DRAM_CYCLE_ERROR] Cycle-based error applied! address=0x6f594e1f8 additional_latency=173500 cycles
[ERROR_CYCLE] Error added at CPU cycle 312214762, next at 326484517, pending count: 1
[DRAM_CYCLE_ERROR] Cycle-based error applied! address=0xe08b4b2d0 additional_latency=173500 cycles
[ERROR_CYCLE] Error added at CPU cycle 326484517, next at 328619258, pending count: 1
[DRAM_CYCLE_ERROR] Cycle-based error applied! address=0x184750df8 additional_latency=173500 cycles
[ERROR_CYCLE] Error added at CPU cycle 328619258, next at 331945338, pending count: 1
[DRAM_CYCLE_ERROR] Cycle-based error applied! address=0xdbb8bfd60 additional_latency=173500 cycles
Heartbeat CPU 0 instructions: 130000018 cycles: 329587195 heartbeat IPC: 0.4111 cumulative IPC: 0.3944 (Simulation time: 00 hr 35 min 40 sec)
[ERROR_CYCLE] Error added at CPU cycle 331945339, next at 346622017, pending count: 1
[DRAM_CYCLE_ERROR] Cycle-based error applied! address=0x1379b2f60 additional_latency=173500 cycles
[ERROR_CYCLE] Error added at CPU cycle 346622017, next at 346704171, pending count: 1
[DRAM_CYCLE_ERROR] Cycle-based error applied! address=0xe96ca85c4 additional_latency=173500 cycles
[ERROR_CYCLE] Error added at CPU cycle 346704171, next at 351055557, pending count: 1
[DRAM_CYCLE_ERROR] Cycle-based error applied! address=0xa52800e8 additional_latency=173500 cycles
[ERROR_CYCLE] Error added at CPU cycle 351055557, next at 353715518, pending count: 1
[DRAM_CYCLE_ERROR] Cycle-based error applied! address=0xbabd2ab8 additional_latency=173500 cycles
Heartbeat CPU 0 instructions: 140000020 cycles: 353430799 heartbeat IPC: 0.4194 cumulative IPC: 0.3961 (Simulation time: 00 hr 38 min 17 sec)
[ERROR_CYCLE] Error added at CPU cycle 353715518, next at 358578569, pending count: 1
[DRAM_CYCLE_ERROR] Cycle-based error applied! address=0x46aa2cb90 additional_latency=173500 cycles
[ERROR_CYCLE] Error added at CPU cycle 358578569, next at 359734081, pending count: 1
[DRAM_CYCLE_ERROR] Cycle-based error applied! address=0x5684a0110 additional_latency=173500 cycles
[ERROR_CYCLE] Error added at CPU cycle 359734081, next at 364965560, pending count: 1
[DRAM_CYCLE_ERROR] Cycle-based error applied! address=0xe8125d2a0 additional_latency=173500 cycles
[ERROR_CYCLE] Error added at CPU cycle 364965560, next at 370163876, pending count: 1
[DRAM_CYCLE_ERROR] Cycle-based error applied! address=0xc321fd648 additional_latency=173500 cycles
[ERROR_CYCLE] Error added at CPU cycle 370163876, next at 384861686, pending count: 1
[DRAM_CYCLE_ERROR] Cycle-based error applied! address=0x22b4ba3a0 additional_latency=173500 cycles
Heartbeat CPU 0 instructions: 150000021 cycles: 377674287 heartbeat IPC: 0.4125 cumulative IPC: 0.3972 (Simulation time: 00 hr 41 min 06 sec)
[ERROR_CYCLE] Error added at CPU cycle 384861686, next at 403305050, pending count: 1
[DRAM_CYCLE_ERROR] Cycle-based error applied! address=0xa331eb170 additional_latency=173500 cycles
Heartbeat CPU 0 instructions: 160000021 cycles: 401583803 heartbeat IPC: 0.4182 cumulative IPC: 0.3984 (Simulation time: 00 hr 43 min 59 sec)
[ERROR_CYCLE] Error added at CPU cycle 403305051, next at 408299099, pending count: 1
[DRAM_CYCLE_ERROR] Cycle-based error applied! address=0x4d63a33a8 additional_latency=173500 cycles
[ERROR_CYCLE] Error added at CPU cycle 408299099, next at 414578861, pending count: 1
[DRAM_CYCLE_ERROR] Cycle-based error applied! address=0xaf2da8e38 additional_latency=173500 cycles
[ERROR_CYCLE] Error added at CPU cycle 414578862, next at 415677269, pending count: 1
[DRAM_CYCLE_ERROR] Cycle-based error applied! address=0xa1b618208 additional_latency=173500 cycles
[ERROR_CYCLE] Error added at CPU cycle 415677270, next at 417793974, pending count: 1
[DRAM_CYCLE_ERROR] Cycle-based error applied! address=0xdf119a458 additional_latency=173500 cycles
[ERROR_CYCLE] Error added at CPU cycle 417793975, next at 428962166, pending count: 1
[DRAM_CYCLE_ERROR] Cycle-based error applied! address=0x16898b0d0 additional_latency=173500 cycles
Heartbeat CPU 0 instructions: 170000021 cycles: 425294661 heartbeat IPC: 0.4217 cumulative IPC: 0.3997 (Simulation time: 00 hr 46 min 50 sec)
[ERROR_CYCLE] Error added at CPU cycle 428962167, next at 435398726, pending count: 1
[DRAM_CYCLE_ERROR] Cycle-based error applied! address=0x33f09a186 additional_latency=173500 cycles
[ERROR_CYCLE] Error added at CPU cycle 435398727, next at 451570558, pending count: 1
[DRAM_CYCLE_ERROR] Cycle-based error applied! address=0x50cf5358 additional_latency=173500 cycles
Heartbeat CPU 0 instructions: 180000024 cycles: 449011711 heartbeat IPC: 0.4216 cumulative IPC: 0.4009 (Simulation time: 00 hr 49 min 42 sec)
[ERROR_CYCLE] Error added at CPU cycle 451570559, next at 454416191, pending count: 1
[DRAM_CYCLE_ERROR] Cycle-based error applied! address=0xddd3c41b8 additional_latency=173500 cycles
[ERROR_CYCLE] Error added at CPU cycle 454416192, next at 467943289, pending count: 1
[DRAM_CYCLE_ERROR] Cycle-based error applied! address=0x3baf49a44 additional_latency=173500 cycles
[ERROR_CYCLE] Error added at CPU cycle 467943289, next at 479150351, pending count: 1
[DRAM_CYCLE_ERROR] Cycle-based error applied! address=0xb7375308 additional_latency=173500 cycles
Heartbeat CPU 0 instructions: 190000028 cycles: 472538083 heartbeat IPC: 0.4251 cumulative IPC: 0.4021 (Simulation time: 00 hr 52 min 32 sec)
[ERROR_CYCLE] Error added at CPU cycle 479150352, next at 489818806, pending count: 1
[DRAM_CYCLE_ERROR] Cycle-based error applied! address=0xfb1ef7228 additional_latency=173500 cycles
[ERROR_CYCLE] Error added at CPU cycle 489818807, next at 492199391, pending count: 1
[DRAM_CYCLE_ERROR] Cycle-based error applied! address=0x3385bc128 additional_latency=173500 cycles
[ERROR_CYCLE] Error added at CPU cycle 492199392, next at 501105066, pending count: 1
[DRAM_CYCLE_ERROR] Cycle-based error applied! address=0x5f33141b0 additional_latency=173500 cycles
Heartbeat CPU 0 instructions: 200000029 cycles: 496975715 heartbeat IPC: 0.4092 cumulative IPC: 0.4024 (Simulation time: 00 hr 55 min 28 sec)
[ERROR_CYCLE] Error added at CPU cycle 501105067, next at 516413942, pending count: 1
[DRAM_CYCLE_ERROR] Cycle-based error applied! address=0x537e054d8 additional_latency=173500 cycles
[ERROR_CYCLE] Error added at CPU cycle 516413943, next at 523258148, pending count: 1
[DRAM_CYCLE_ERROR] Cycle-based error applied! address=0x6b18e91e8 additional_latency=173500 cycles
Heartbeat CPU 0 instructions: 210000033 cycles: 521039732 heartbeat IPC: 0.4156 cumulative IPC: 0.403 (Simulation time: 00 hr 58 min 22 sec)
[ERROR_CYCLE] Error added at CPU cycle 523258148, next at 524320531, pending count: 1
[DRAM_CYCLE_ERROR] Cycle-based error applied! address=0x447f05ad0 additional_latency=173500 cycles
[ERROR_CYCLE] Error added at CPU cycle 524320531, next at 545421303, pending count: 1
[DRAM_CYCLE_ERROR] Cycle-based error applied! address=0xa852c0178 additional_latency=173500 cycles
Heartbeat CPU 0 instructions: 220000035 cycles: 544989066 heartbeat IPC: 0.4175 cumulative IPC: 0.4037 (Simulation time: 01 hr 01 min 15 sec)
[ERROR_CYCLE] Error added at CPU cycle 545421304, next at 555011553, pending count: 1
[DRAM_CYCLE_ERROR] Cycle-based error applied! address=0xb85f4cfb1 additional_latency=173500 cycles
[ERROR_CYCLE] Error added at CPU cycle 555011553, next at 566707107, pending count: 1
[DRAM_CYCLE_ERROR] Cycle-based error applied! address=0x465a76200 additional_latency=173500 cycles
[ERROR_CYCLE] Error added at CPU cycle 566707107, next at 602334490, pending count: 1
[DRAM_CYCLE_ERROR] Cycle-based error applied! address=0x958b22520 additional_latency=173500 cycles
Heartbeat CPU 0 instructions: 230000036 cycles: 569193873 heartbeat IPC: 0.4131 cumulative IPC: 0.4041 (Simulation time: 01 hr 04 min 09 sec)
Heartbeat CPU 0 instructions: 240000036 cycles: 593436748 heartbeat IPC: 0.4125 cumulative IPC: 0.4044 (Simulation time: 01 hr 07 min 05 sec)
[ERROR_CYCLE] Error added at CPU cycle 602334490, next at 607801697, pending count: 1
[DRAM_CYCLE_ERROR] Cycle-based error applied! address=0x9c634f680 additional_latency=173500 cycles
[ERROR_CYCLE] Error added at CPU cycle 607801697, next at 608543542, pending count: 1
[DRAM_CYCLE_ERROR] Cycle-based error applied! address=0x2498d7178 additional_latency=173500 cycles
[ERROR_CYCLE] Error added at CPU cycle 608543543, next at 610655090, pending count: 1
[DRAM_CYCLE_ERROR] Cycle-based error applied! address=0xa9a099388 additional_latency=173500 cycles
[ERROR_CYCLE] Error added at CPU cycle 610655091, next at 613219349, pending count: 1
[DRAM_CYCLE_ERROR] Cycle-based error applied! address=0xec342ec38 additional_latency=173500 cycles
[ERROR_CYCLE] Error added at CPU cycle 613219350, next at 613730924, pending count: 1
[DRAM_CYCLE_ERROR] Cycle-based error applied! address=0x6d5d909d8 additional_latency=173500 cycles
[ERROR_CYCLE] Error added at CPU cycle 613730925, next at 615686536, pending count: 1
[DRAM_CYCLE_ERROR] Cycle-based error applied! address=0xee2751550 additional_latency=173500 cycles
[ERROR_CYCLE] Error added at CPU cycle 615686536, next at 623830395, pending count: 1
[DRAM_CYCLE_ERROR] Cycle-based error applied! address=0x52ad1e150 additional_latency=173500 cycles
Heartbeat CPU 0 instructions: 250000038 cycles: 616447299 heartbeat IPC: 0.4346 cumulative IPC: 0.4055 (Simulation time: 01 hr 09 min 53 sec)
[ERROR_CYCLE] Error added at CPU cycle 623830395, next at 655504590, pending count: 1
[DRAM_CYCLE_ERROR] Cycle-based error applied! address=0x183897bf8 additional_latency=173500 cycles
Heartbeat CPU 0 instructions: 260000038 cycles: 639784438 heartbeat IPC: 0.4285 cumulative IPC: 0.4064 (Simulation time: 01 hr 12 min 43 sec)
[ERROR_CYCLE] Error added at CPU cycle 655504590, next at 685296427, pending count: 1
[DRAM_CYCLE_ERROR] Cycle-based error applied! address=0x2860926e0 additional_latency=173500 cycles
Heartbeat CPU 0 instructions: 270000038 cycles: 663584168 heartbeat IPC: 0.4202 cumulative IPC: 0.4069 (Simulation time: 01 hr 15 min 36 sec)
[ERROR_CYCLE] Error added at CPU cycle 685296428, next at 692067362, pending count: 1
[DRAM_CYCLE_ERROR] Cycle-based error applied! address=0x53c2a080 additional_latency=173500 cycles
Heartbeat CPU 0 instructions: 280000041 cycles: 688459710 heartbeat IPC: 0.402 cumulative IPC: 0.4067 (Simulation time: 01 hr 18 min 36 sec)
[ERROR_CYCLE] Error added at CPU cycle 692067362, next at 693560863, pending count: 1
[DRAM_CYCLE_ERROR] Cycle-based error applied! address=0xc302cf498 additional_latency=173500 cycles
[ERROR_CYCLE] Error added at CPU cycle 693560864, next at 696567615, pending count: 1
[DRAM_CYCLE_ERROR] Cycle-based error applied! address=0x7ed6172d8 additional_latency=173500 cycles
[ERROR_CYCLE] Error added at CPU cycle 696567615, next at 705122761, pending count: 1
[DRAM_CYCLE_ERROR] Cycle-based error applied! address=0xce7e690c8 additional_latency=173500 cycles
[ERROR_CYCLE] Error added at CPU cycle 705122762, next at 747545945, pending count: 1
[DRAM_CYCLE_ERROR] Cycle-based error applied! address=0x644a54326 additional_latency=173500 cycles
Heartbeat CPU 0 instructions: 290000043 cycles: 712657486 heartbeat IPC: 0.4133 cumulative IPC: 0.4069 (Simulation time: 01 hr 21 min 18 sec)
Heartbeat CPU 0 instructions: 300000044 cycles: 735805399 heartbeat IPC: 0.432 cumulative IPC: 0.4077 (Simulation time: 01 hr 23 min 53 sec)
[ERROR_CYCLE] Error added at CPU cycle 747545946, next at 748669179, pending count: 1
[DRAM_CYCLE_ERROR] Cycle-based error applied! address=0xc25555e0 additional_latency=173500 cycles
[ERROR_CYCLE] Error added at CPU cycle 748669179, next at 755019492, pending count: 1
[DRAM_CYCLE_ERROR] Cycle-based error applied! address=0x2aeddfa38 additional_latency=173500 cycles
[ERROR_CYCLE] Error added at CPU cycle 755019492, next at 755497083, pending count: 1
[DRAM_CYCLE_ERROR] Cycle-based error applied! address=0xea1d75c00 additional_latency=173500 cycles
[ERROR_CYCLE] Error added at CPU cycle 755497084, next at 758773095, pending count: 1
[DRAM_CYCLE_ERROR] Cycle-based error applied! address=0xc9377b9c8 additional_latency=173500 cycles
[ERROR_CYCLE] Error added at CPU cycle 758773095, next at 767932446, pending count: 1
[DRAM_CYCLE_ERROR] Cycle-based error applied! address=0xd2d17468 additional_latency=173500 cycles
Heartbeat CPU 0 instructions: 310000044 cycles: 760209342 heartbeat IPC: 0.4098 cumulative IPC: 0.4078 (Simulation time: 01 hr 26 min 29 sec)
[ERROR_CYCLE] Error added at CPU cycle 767932447, next at 768052303, pending count: 1
[DRAM_CYCLE_ERROR] Cycle-based error applied! address=0xefbfecb00 additional_latency=173500 cycles
[ERROR_CYCLE] Error added at CPU cycle 768052303, next at 768100071, pending count: 1
[DRAM_CYCLE_ERROR] Cycle-based error applied! address=0xd30ded208 additional_latency=173500 cycles
[ERROR_CYCLE] Error added at CPU cycle 768100072, next at 768264987, pending count: 1
[DRAM_CYCLE_ERROR] Cycle-based error applied! address=0x5d5959a98 additional_latency=173500 cycles
[ERROR_CYCLE] Error added at CPU cycle 768264987, next at 773476830, pending count: 1
[DRAM_CYCLE_ERROR] Cycle-based error applied! address=0x2d9b47180 additional_latency=173500 cycles
[ERROR_CYCLE] Error added at CPU cycle 773476830, next at 775408797, pending count: 1
[DRAM_CYCLE_ERROR] Cycle-based error applied! address=0x74341b138 additional_latency=173500 cycles
[ERROR_CYCLE] Error added at CPU cycle 775408797, next at 776477567, pending count: 1
[DRAM_CYCLE_ERROR] Cycle-based error applied! address=0xb02821278 additional_latency=173500 cycles
[ERROR_CYCLE] Error added at CPU cycle 776477568, next at 782055313, pending count: 1
[DRAM_CYCLE_ERROR] Cycle-based error applied! address=0x87b78abb0 additional_latency=173500 cycles
[ERROR_CYCLE] Error added at CPU cycle 782055314, next at 793366198, pending count: 1
[DRAM_CYCLE_ERROR] Cycle-based error applied! address=0x2498d7198 additional_latency=173500 cycles
Heartbeat CPU 0 instructions: 320000046 cycles: 784181116 heartbeat IPC: 0.4172 cumulative IPC: 0.4081 (Simulation time: 01 hr 29 min 13 sec)
[ERROR_CYCLE] Error added at CPU cycle 793366198, next at 800738627, pending count: 1
[DRAM_CYCLE_ERROR] Cycle-based error applied! address=0x4347788a8 additional_latency=173500 cycles
[ERROR_CYCLE] Error added at CPU cycle 800738628, next at 804703481, pending count: 1
[DRAM_CYCLE_ERROR] Cycle-based error applied! address=0x517f74619 additional_latency=173500 cycles
[ERROR_CYCLE] Error added at CPU cycle 804703481, next at 812634114, pending count: 1
[DRAM_CYCLE_ERROR] Cycle-based error applied! address=0x51bd84ac8 additional_latency=173500 cycles
Heartbeat CPU 0 instructions: 330000046 cycles: 807923181 heartbeat IPC: 0.4212 cumulative IPC: 0.4085 (Simulation time: 01 hr 32 min 03 sec)
[ERROR_CYCLE] Error added at CPU cycle 812634115, next at 825252033, pending count: 1
[DRAM_CYCLE_ERROR] Cycle-based error applied! address=0xa903aafb8 additional_latency=173500 cycles
[ERROR_CYCLE] Error added at CPU cycle 825252034, next at 830437472, pending count: 1
[DRAM_CYCLE_ERROR] Cycle-based error applied! address=0x7a951ece0 additional_latency=173500 cycles
Heartbeat CPU 0 instructions: 340000050 cycles: 830104604 heartbeat IPC: 0.4508 cumulative IPC: 0.4096 (Simulation time: 01 hr 34 min 44 sec)
[ERROR_CYCLE] Error added at CPU cycle 830437472, next at 838935145, pending count: 1
[DRAM_CYCLE_ERROR] Cycle-based error applied! address=0x6a0661488 additional_latency=173500 cycles
[ERROR_CYCLE] Error added at CPU cycle 838935145, next at 861804158, pending count: 1
[DRAM_CYCLE_ERROR] Cycle-based error applied! address=0x400627138 additional_latency=173500 cycles
Heartbeat CPU 0 instructions: 350000050 cycles: 853755189 heartbeat IPC: 0.4228 cumulative IPC: 0.41 (Simulation time: 01 hr 37 min 31 sec)
[ERROR_CYCLE] Error added at CPU cycle 861804158, next at 864139244, pending count: 1
[DRAM_CYCLE_ERROR] Cycle-based error applied! address=0xff1939d40 additional_latency=173500 cycles
[ERROR_CYCLE] Error added at CPU cycle 864139244, next at 883044804, pending count: 1
[DRAM_CYCLE_ERROR] Cycle-based error applied! address=0x8e0d280e0 additional_latency=173500 cycles
Heartbeat CPU 0 instructions: 360000051 cycles: 876842430 heartbeat IPC: 0.4331 cumulative IPC: 0.4106 (Simulation time: 01 hr 40 min 18 sec)
[ERROR_CYCLE] Error added at CPU cycle 883044804, next at 885467139, pending count: 1
[DRAM_CYCLE_ERROR] Cycle-based error applied! address=0xeed2a9ed8 additional_latency=173500 cycles
[ERROR_CYCLE] Error added at CPU cycle 885467140, next at 887176065, pending count: 1
[DRAM_CYCLE_ERROR] Cycle-based error applied! address=0xa66505878 additional_latency=173500 cycles
[ERROR_CYCLE] Error added at CPU cycle 887176065, next at 891433294, pending count: 1
[DRAM_CYCLE_ERROR] Cycle-based error applied! address=0x195f153a8 additional_latency=173500 cycles
[ERROR_CYCLE] Error added at CPU cycle 891433294, next at 910142062, pending count: 1
[DRAM_CYCLE_ERROR] Cycle-based error applied! address=0x15b36c9f8 additional_latency=173500 cycles
Heartbeat CPU 0 instructions: 370000052 cycles: 900191912 heartbeat IPC: 0.4283 cumulative IPC: 0.411 (Simulation time: 01 hr 43 min 07 sec)
[ERROR_CYCLE] Error added at CPU cycle 910142062, next at 912455925, pending count: 1
[DRAM_CYCLE_ERROR] Cycle-based error applied! address=0xae00f218 additional_latency=173500 cycles
[ERROR_CYCLE] Error added at CPU cycle 912455925, next at 920452495, pending count: 1
[DRAM_CYCLE_ERROR] Cycle-based error applied! address=0x457370b60 additional_latency=173500 cycles
[ERROR_CYCLE] Error added at CPU cycle 920452495, next at 925358975, pending count: 1
[DRAM_CYCLE_ERROR] Cycle-based error applied! address=0x73c28baf0 additional_latency=173500 cycles
Heartbeat CPU 0 instructions: 380000054 cycles: 923365419 heartbeat IPC: 0.4315 cumulative IPC: 0.4115 (Simulation time: 01 hr 45 min 56 sec)
[ERROR_CYCLE] Error added at CPU cycle 925358976, next at 928208581, pending count: 1
[DRAM_CYCLE_ERROR] Cycle-based error applied! address=0xadfd9b478 additional_latency=173500 cycles
[ERROR_CYCLE] Error added at CPU cycle 928208581, next at 935551244, pending count: 1
[DRAM_CYCLE_ERROR] Cycle-based error applied! address=0xca2e27ec0 additional_latency=173500 cycles
[ERROR_CYCLE] Error added at CPU cycle 935551244, next at 940277711, pending count: 1
[DRAM_CYCLE_ERROR] Cycle-based error applied! address=0x52a0af1a0 additional_latency=173500 cycles
[ERROR_CYCLE] Error added at CPU cycle 940277711, next at 941361915, pending count: 1
[DRAM_CYCLE_ERROR] Cycle-based error applied! address=0x2c96a6c0 additional_latency=173500 cycles
[ERROR_CYCLE] Error added at CPU cycle 941361915, next at 944131710, pending count: 1
[DRAM_CYCLE_ERROR] Cycle-based error applied! address=0x661ea0d8 additional_latency=173500 cycles
[ERROR_CYCLE] Error added at CPU cycle 944131710, next at 965831250, pending count: 1
[DRAM_CYCLE_ERROR] Cycle-based error applied! address=0xfc7d17ec0 additional_latency=173500 cycles
Heartbeat CPU 0 instructions: 390000058 cycles: 946533042 heartbeat IPC: 0.4316 cumulative IPC: 0.412 (Simulation time: 01 hr 48 min 31 sec)
[ERROR_CYCLE] Error added at CPU cycle 965831250, next at 978230112, pending count: 1
[DRAM_CYCLE_ERROR] Cycle-based error applied! address=0xbb3235138 additional_latency=173500 cycles
Heartbeat CPU 0 instructions: 400000059 cycles: 969746933 heartbeat IPC: 0.4308 cumulative IPC: 0.4125 (Simulation time: 01 hr 51 min 09 sec)
[ERROR_CYCLE] Error added at CPU cycle 978230113, next at 995345989, pending count: 1
[DRAM_CYCLE_ERROR] Cycle-based error applied! address=0x52074a1b0 additional_latency=173500 cycles
Heartbeat CPU 0 instructions: 410000059 cycles: 992885380 heartbeat IPC: 0.4322 cumulative IPC: 0.4129 (Simulation time: 01 hr 53 min 30 sec)
[ERROR_CYCLE] Error added at CPU cycle 995345989, next at 1001484614, pending count: 1
[DRAM_CYCLE_ERROR] Cycle-based error applied! address=0x42b411738 additional_latency=173500 cycles
[ERROR_CYCLE] Error added at CPU cycle 1001484615, next at 1010972056, pending count: 1
[DRAM_CYCLE_ERROR] Cycle-based error applied! address=0xe4c960ff8 additional_latency=173500 cycles
[ERROR_CYCLE] Error added at CPU cycle 1010972057, next at 1013450836, pending count: 1
[DRAM_CYCLE_ERROR] Cycle-based error applied! address=0xe59ece740 additional_latency=173500 cycles
[ERROR_CYCLE] Error added at CPU cycle 1013450836, next at 1027850374, pending count: 1
[DRAM_CYCLE_ERROR] Cycle-based error applied! address=0x35f517700 additional_latency=173500 cycles
Heartbeat CPU 0 instructions: 420000062 cycles: 1016519162 heartbeat IPC: 0.4231 cumulative IPC: 0.4132 (Simulation time: 01 hr 55 min 55 sec)
[ERROR_CYCLE] Error added at CPU cycle 1027850375, next at 1040360188, pending count: 1
[DRAM_CYCLE_ERROR] Cycle-based error applied! address=0x3d492f788 additional_latency=173500 cycles
Heartbeat CPU 0 instructions: 430000065 cycles: 1040122279 heartbeat IPC: 0.4237 cumulative IPC: 0.4134 (Simulation time: 01 hr 58 min 09 sec)
[ERROR_CYCLE] Error added at CPU cycle 1040360189, next at 1048241966, pending count: 1
[DRAM_CYCLE_ERROR] Cycle-based error applied! address=0xd47d83c48 additional_latency=173500 cycles
[ERROR_CYCLE] Error added at CPU cycle 1048241966, next at 1057607729, pending count: 1
[DRAM_CYCLE_ERROR] Cycle-based error applied! address=0x25697cb08 additional_latency=173500 cycles
[ERROR_CYCLE] Error added at CPU cycle 1057607729, next at 1078039556, pending count: 1
[DRAM_CYCLE_ERROR] Cycle-based error applied! address=0x7de920ab8 additional_latency=173500 cycles
Heartbeat CPU 0 instructions: 440000068 cycles: 1063984119 heartbeat IPC: 0.4191 cumulative IPC: 0.4135 (Simulation time: 02 hr 00 min 57 sec)
[ERROR_CYCLE] Error added at CPU cycle 1078039557, next at 1093227895, pending count: 1
[DRAM_CYCLE_ERROR] Cycle-based error applied! address=0x60788e08 additional_latency=173500 cycles
Heartbeat CPU 0 instructions: 450000068 cycles: 1087843226 heartbeat IPC: 0.4191 cumulative IPC: 0.4137 (Simulation time: 02 hr 03 min 42 sec)
[ERROR_CYCLE] Error added at CPU cycle 1093227895, next at 1095375545, pending count: 1
[DRAM_CYCLE_ERROR] Cycle-based error applied! address=0x559cc0138 additional_latency=173500 cycles
[ERROR_CYCLE] Error added at CPU cycle 1095375545, next at 1101804530, pending count: 1
[DRAM_CYCLE_ERROR] Cycle-based error applied! address=0xe4ad6370 additional_latency=173500 cycles
[ERROR_CYCLE] Error added at CPU cycle 1101804530, next at 1107079687, pending count: 1
[DRAM_CYCLE_ERROR] Cycle-based error applied! address=0xcf5a24d00 additional_latency=173500 cycles
[ERROR_CYCLE] Error added at CPU cycle 1107079687, next at 1115318803, pending count: 1
[DRAM_CYCLE_ERROR] Cycle-based error applied! address=0xc06e7b1b0 additional_latency=173500 cycles
Heartbeat CPU 0 instructions: 460000068 cycles: 1111337146 heartbeat IPC: 0.4256 cumulative IPC: 0.4139 (Simulation time: 02 hr 06 min 25 sec)
[ERROR_CYCLE] Error added at CPU cycle 1115318803, next at 1135008200, pending count: 1
[DRAM_CYCLE_ERROR] Cycle-based error applied! address=0xede8f2410 additional_latency=173500 cycles
Heartbeat CPU 0 instructions: 470000068 cycles: 1134875492 heartbeat IPC: 0.4248 cumulative IPC: 0.4141 (Simulation time: 02 hr 09 min 07 sec)
[ERROR_CYCLE] Error added at CPU cycle 1135008201, next at 1140982700, pending count: 1
[DRAM_CYCLE_ERROR] Cycle-based error applied! address=0x214a71978 additional_latency=173500 cycles
[ERROR_CYCLE] Error added at CPU cycle 1140982700, next at 1154083331, pending count: 1
[DRAM_CYCLE_ERROR] Cycle-based error applied! address=0x866e62bc8 additional_latency=173500 cycles
[ERROR_CYCLE] Error added at CPU cycle 1154083332, next at 1155066855, pending count: 1
[DRAM_CYCLE_ERROR] Cycle-based error applied! address=0x629708198 additional_latency=173500 cycles
[ERROR_CYCLE] Error added at CPU cycle 1155066856, next at 1164180982, pending count: 1
[DRAM_CYCLE_ERROR] Cycle-based error applied! address=0xcd2f1b900 additional_latency=173500 cycles
Heartbeat CPU 0 instructions: 480000068 cycles: 1158463684 heartbeat IPC: 0.4239 cumulative IPC: 0.4143 (Simulation time: 02 hr 11 min 27 sec)
[ERROR_CYCLE] Error added at CPU cycle 1164180982, next at 1170052729, pending count: 1
[DRAM_CYCLE_ERROR] Cycle-based error applied! address=0x9193cf1e8 additional_latency=173500 cycles
[ERROR_CYCLE] Error added at CPU cycle 1170052730, next at 1201159550, pending count: 1
[DRAM_CYCLE_ERROR] Cycle-based error applied! address=0xd77116a80 additional_latency=173500 cycles
Heartbeat CPU 0 instructions: 490000071 cycles: 1183530144 heartbeat IPC: 0.3989 cumulative IPC: 0.414 (Simulation time: 02 hr 13 min 56 sec)
[ERROR_CYCLE] Error added at CPU cycle 1201159551, next at 1219803754, pending count: 1
[DRAM_CYCLE_ERROR] Cycle-based error applied! address=0x642eb2081 additional_latency=173500 cycles
Heartbeat CPU 0 instructions: 500000071 cycles: 1206898390 heartbeat IPC: 0.4279 cumulative IPC: 0.4143 (Simulation time: 02 hr 16 min 37 sec)
[ERROR_CYCLE] Error added at CPU cycle 1219803754, next at 1222032553, pending count: 1
[DRAM_CYCLE_ERROR] Cycle-based error applied! address=0xe63251510 additional_latency=173500 cycles
[ERROR_CYCLE] Error added at CPU cycle 1222032554, next at 1224789878, pending count: 1
[DRAM_CYCLE_ERROR] Cycle-based error applied! address=0x698f431b0 additional_latency=173500 cycles
[ERROR_CYCLE] Error added at CPU cycle 1224789879, next at 1231478862, pending count: 1
[DRAM_CYCLE_ERROR] Cycle-based error applied! address=0x2b0637196 additional_latency=173500 cycles
Heartbeat CPU 0 instructions: 510000075 cycles: 1231063835 heartbeat IPC: 0.4138 cumulative IPC: 0.4143 (Simulation time: 02 hr 19 min 23 sec)
[ERROR_CYCLE] Error added at CPU cycle 1231478862, next at 1231912145, pending count: 1
[DRAM_CYCLE_ERROR] Cycle-based error applied! address=0xbc2d81ec0 additional_latency=173500 cycles
[ERROR_CYCLE] Error added at CPU cycle 1231912145, next at 1236268432, pending count: 1
[DRAM_CYCLE_ERROR] Cycle-based error applied! address=0x8e9144390 additional_latency=173500 cycles
[ERROR_CYCLE] Error added at CPU cycle 1236268432, next at 1250618753, pending count: 1
[DRAM_CYCLE_ERROR] Cycle-based error applied! address=0xcfad41d48 additional_latency=173500 cycles
[ERROR_CYCLE] Error added at CPU cycle 1250618753, next at 1293864347, pending count: 1
[DRAM_CYCLE_ERROR] Cycle-based error applied! address=0x57805df50 additional_latency=173500 cycles
Heartbeat CPU 0 instructions: 520000078 cycles: 1254928313 heartbeat IPC: 0.419 cumulative IPC: 0.4144 (Simulation time: 02 hr 21 min 57 sec)
Heartbeat CPU 0 instructions: 530000080 cycles: 1278506866 heartbeat IPC: 0.4241 cumulative IPC: 0.4145 (Simulation time: 02 hr 24 min 49 sec)
[ERROR_CYCLE] Error added at CPU cycle 1293864347, next at 1304881196, pending count: 1
[DRAM_CYCLE_ERROR] Cycle-based error applied! address=0xf635a5f40 additional_latency=173500 cycles
Heartbeat CPU 0 instructions: 540000080 cycles: 1303068275 heartbeat IPC: 0.4071 cumulative IPC: 0.4144 (Simulation time: 02 hr 27 min 46 sec)
[ERROR_CYCLE] Error added at CPU cycle 1304881197, next at 1314838771, pending count: 1
[DRAM_CYCLE_ERROR] Cycle-based error applied! address=0x742eca090 additional_latency=173500 cycles
[ERROR_CYCLE] Error added at CPU cycle 1314838771, next at 1321326019, pending count: 1
[DRAM_CYCLE_ERROR] Cycle-based error applied! address=0xa18b0aca8 additional_latency=173500 cycles
[ERROR_CYCLE] Error added at CPU cycle 1321326020, next at 1334779567, pending count: 1
[DRAM_CYCLE_ERROR] Cycle-based error applied! address=0x2e10458c0 additional_latency=173500 cycles
Heartbeat CPU 0 instructions: 550000081 cycles: 1327300675 heartbeat IPC: 0.4127 cumulative IPC: 0.4144 (Simulation time: 02 hr 30 min 42 sec)
[ERROR_CYCLE] Error added at CPU cycle 1334779568, next at 1341662842, pending count: 1
[DRAM_CYCLE_ERROR] Cycle-based error applied! address=0xf432c5906 additional_latency=173500 cycles
[ERROR_CYCLE] Error added at CPU cycle 1341662842, next at 1341958013, pending count: 1
[DRAM_CYCLE_ERROR] Cycle-based error applied! address=0x841c4d546 additional_latency=173500 cycles
[ERROR_CYCLE] Error added at CPU cycle 1341958014, next at 1347444921, pending count: 1
[DRAM_CYCLE_ERROR] Cycle-based error applied! address=0xc129b4b0 additional_latency=173500 cycles
[ERROR_CYCLE] Error added at CPU cycle 1347444921, next at 1348889686, pending count: 1
[DRAM_CYCLE_ERROR] Cycle-based error applied! address=0x58ac077b0 additional_latency=173500 cycles
[ERROR_CYCLE] Error added at CPU cycle 1348889686, next at 1370368934, pending count: 1
[DRAM_CYCLE_ERROR] Cycle-based error applied! address=0x74c60e868 additional_latency=173500 cycles
Heartbeat CPU 0 instructions: 560000082 cycles: 1351140056 heartbeat IPC: 0.4195 cumulative IPC: 0.4145 (Simulation time: 02 hr 33 min 15 sec)
[ERROR_CYCLE] Error added at CPU cycle 1370368934, next at 1377657432, pending count: 1
[DRAM_CYCLE_ERROR] Cycle-based error applied! address=0x2be84b348 additional_latency=173500 cycles
Heartbeat CPU 0 instructions: 570000082 cycles: 1375497636 heartbeat IPC: 0.4105 cumulative IPC: 0.4144 (Simulation time: 02 hr 36 min 09 sec)
[ERROR_CYCLE] Error added at CPU cycle 1377657432, next at 1418042020, pending count: 1
[DRAM_CYCLE_ERROR] Cycle-based error applied! address=0xee4ddcac0 additional_latency=173500 cycles
Heartbeat CPU 0 instructions: 580000083 cycles: 1399272967 heartbeat IPC: 0.4206 cumulative IPC: 0.4145 (Simulation time: 02 hr 38 min 49 sec)
[ERROR_CYCLE] Error added at CPU cycle 1418042020, next at 1428774744, pending count: 1
[DRAM_CYCLE_ERROR] Cycle-based error applied! address=0xbdd6596d0 additional_latency=173500 cycles
Heartbeat CPU 0 instructions: 590000085 cycles: 1423583384 heartbeat IPC: 0.4113 cumulative IPC: 0.4144 (Simulation time: 02 hr 41 min 26 sec)
[ERROR_CYCLE] Error added at CPU cycle 1428774745, next at 1430659638, pending count: 1
[DRAM_CYCLE_ERROR] Cycle-based error applied! address=0xc12f5a270 additional_latency=173500 cycles
[ERROR_CYCLE] Error added at CPU cycle 1430659639, next at 1434805602, pending count: 1
[DRAM_CYCLE_ERROR] Cycle-based error applied! address=0xed1b84ee8 additional_latency=173500 cycles
[ERROR_CYCLE] Error added at CPU cycle 1434805602, next at 1439910027, pending count: 1
[DRAM_CYCLE_ERROR] Cycle-based error applied! address=0xad8318584 additional_latency=173500 cycles
[ERROR_CYCLE] Error added at CPU cycle 1439910028, next at 1455265502, pending count: 1
[DRAM_CYCLE_ERROR] Cycle-based error applied! address=0x4353b0b48 additional_latency=173500 cycles
Heartbeat CPU 0 instructions: 600000086 cycles: 1447154332 heartbeat IPC: 0.4243 cumulative IPC: 0.4146 (Simulation time: 02 hr 44 min 12 sec)
[ERROR_CYCLE] Error added at CPU cycle 1455265502, next at 1456081149, pending count: 1
[DRAM_CYCLE_ERROR] Cycle-based error applied! address=0xcd7def5b0 additional_latency=173500 cycles
[ERROR_CYCLE] Error added at CPU cycle 1456081149, next at 1459633187, pending count: 1
[DRAM_CYCLE_ERROR] Cycle-based error applied! address=0x8e487c078 additional_latency=173500 cycles
[ERROR_CYCLE] Error added at CPU cycle 1459633187, next at 1470585164, pending count: 1
[DRAM_CYCLE_ERROR] Cycle-based error applied! address=0x22ab92938 additional_latency=173500 cycles
[ERROR_CYCLE] Error added at CPU cycle 1470585164, next at 1472949657, pending count: 1
[DRAM_CYCLE_ERROR] Cycle-based error applied! address=0x9b9bc92c8 additional_latency=173500 cycles
Heartbeat CPU 0 instructions: 610000086 cycles: 1470982449 heartbeat IPC: 0.4197 cumulative IPC: 0.4147 (Simulation time: 02 hr 47 min 05 sec)
[ERROR_CYCLE] Error added at CPU cycle 1472949657, next at 1483173147, pending count: 1
[DRAM_CYCLE_ERROR] Cycle-based error applied! address=0xb00a87148 additional_latency=173500 cycles
[ERROR_CYCLE] Error added at CPU cycle 1483173148, next at 1484511175, pending count: 1
[DRAM_CYCLE_ERROR] Cycle-based error applied! address=0xba11329d8 additional_latency=173500 cycles
[ERROR_CYCLE] Error added at CPU cycle 1484511175, next at 1492326095, pending count: 1
[DRAM_CYCLE_ERROR] Cycle-based error applied! address=0x4537f4138 additional_latency=173500 cycles
[ERROR_CYCLE] Error added at CPU cycle 1492326095, next at 1498403147, pending count: 1
[DRAM_CYCLE_ERROR] Cycle-based error applied! address=0x1eda123b0 additional_latency=173500 cycles
Heartbeat CPU 0 instructions: 620000090 cycles: 1495389885 heartbeat IPC: 0.4097 cumulative IPC: 0.4146 (Simulation time: 02 hr 49 min 34 sec)
[ERROR_CYCLE] Error added at CPU cycle 1498403147, next at 1500174205, pending count: 1
[DRAM_CYCLE_ERROR] Cycle-based error applied! address=0x658d82011 additional_latency=173500 cycles
[ERROR_CYCLE] Error added at CPU cycle 1500174206, next at 1504681962, pending count: 1
[DRAM_CYCLE_ERROR] Cycle-based error applied! address=0x2cfd3b5f8 additional_latency=173500 cycles
[ERROR_CYCLE] Error added at CPU cycle 1504681962, next at 1508176422, pending count: 1
[DRAM_CYCLE_ERROR] Cycle-based error applied! address=0xd205c7e40 additional_latency=173500 cycles
[ERROR_CYCLE] Error added at CPU cycle 1508176422, next at 1510980618, pending count: 1
[DRAM_CYCLE_ERROR] Cycle-based error applied! address=0x98e1f4610 additional_latency=173500 cycles
[ERROR_CYCLE] Error added at CPU cycle 1510980618, next at 1540506590, pending count: 1
[DRAM_CYCLE_ERROR] Cycle-based error applied! address=0x93f2ff4a0 additional_latency=173500 cycles
Heartbeat CPU 0 instructions: 630000093 cycles: 1519412304 heartbeat IPC: 0.4163 cumulative IPC: 0.4146 (Simulation time: 02 hr 52 min 18 sec)
[ERROR_CYCLE] Error added at CPU cycle 1540506591, next at 1545633908, pending count: 1
[DRAM_CYCLE_ERROR] Cycle-based error applied! address=0x8ca6d1608 additional_latency=173500 cycles
Heartbeat CPU 0 instructions: 640000095 cycles: 1543927262 heartbeat IPC: 0.4079 cumulative IPC: 0.4145 (Simulation time: 02 hr 55 min 12 sec)
[ERROR_CYCLE] Error added at CPU cycle 1545633909, next at 1555382131, pending count: 1
[DRAM_CYCLE_ERROR] Cycle-based error applied! address=0x8e1aa1a88 additional_latency=173500 cycles
[ERROR_CYCLE] Error added at CPU cycle 1555382132, next at 1559379921, pending count: 1
[DRAM_CYCLE_ERROR] Cycle-based error applied! address=0x2224f15d0 additional_latency=173500 cycles
[ERROR_CYCLE] Error added at CPU cycle 1559379922, next at 1568250473, pending count: 1
[DRAM_CYCLE_ERROR] Cycle-based error applied! address=0xc94bc190 additional_latency=173500 cycles
Heartbeat CPU 0 instructions: 650000098 cycles: 1568118295 heartbeat IPC: 0.4134 cumulative IPC: 0.4145 (Simulation time: 02 hr 58 min 03 sec)
[ERROR_CYCLE] Error added at CPU cycle 1568250473, next at 1568397086, pending count: 1
[DRAM_CYCLE_ERROR] Cycle-based error applied! address=0x1b8af7594 additional_latency=173500 cycles
[ERROR_CYCLE] Error added at CPU cycle 1568397086, next at 1571204618, pending count: 1
[DRAM_CYCLE_ERROR] Cycle-based error applied! address=0x1fae0df60 additional_latency=173500 cycles
[ERROR_CYCLE] Error added at CPU cycle 1571204618, next at 1572401785, pending count: 1
[DRAM_CYCLE_ERROR] Cycle-based error applied! address=0x5d6dc0596 additional_latency=173500 cycles
[ERROR_CYCLE] Error added at CPU cycle 1572401785, next at 1585569552, pending count: 1
[DRAM_CYCLE_ERROR] Cycle-based error applied! address=0xee2751411 additional_latency=173500 cycles
[ERROR_CYCLE] Error added at CPU cycle 1585569553, next at 1586429627, pending count: 1
[DRAM_CYCLE_ERROR] Cycle-based error applied! address=0x4cf8ff178 additional_latency=173500 cycles
[ERROR_CYCLE] Error added at CPU cycle 1586429628, next at 1598198580, pending count: 1
[DRAM_CYCLE_ERROR] Cycle-based error applied! address=0xe3beb0c98 additional_latency=173500 cycles
Heartbeat CPU 0 instructions: 660000100 cycles: 1592081705 heartbeat IPC: 0.4173 cumulative IPC: 0.4146 (Simulation time: 03 hr 00 min 51 sec)
[ERROR_CYCLE] Error added at CPU cycle 1598198580, next at 1609933064, pending count: 1
[DRAM_CYCLE_ERROR] Cycle-based error applied! address=0xe54a6a0f0 additional_latency=173500 cycles
[ERROR_CYCLE] Error added at CPU cycle 1609933064, next at 1625877684, pending count: 1
[DRAM_CYCLE_ERROR] Cycle-based error applied! address=0x475ca9d58 additional_latency=173500 cycles
Heartbeat CPU 0 instructions: 670000101 cycles: 1615654781 heartbeat IPC: 0.4242 cumulative IPC: 0.4147 (Simulation time: 03 hr 03 min 40 sec)
[ERROR_CYCLE] Error added at CPU cycle 1625877685, next at 1636789861, pending count: 1
[DRAM_CYCLE_ERROR] Cycle-based error applied! address=0x9d374bba8 additional_latency=173500 cycles
[ERROR_CYCLE] Error added at CPU cycle 1636789862, next at 1644796500, pending count: 1
[DRAM_CYCLE_ERROR] Cycle-based error applied! address=0x732dd8148 additional_latency=173500 cycles
Heartbeat CPU 0 instructions: 680000104 cycles: 1639328767 heartbeat IPC: 0.4224 cumulative IPC: 0.4148 (Simulation time: 03 hr 06 min 26 sec)
[ERROR_CYCLE] Error added at CPU cycle 1644796501, next at 1651860450, pending count: 1
[DRAM_CYCLE_ERROR] Cycle-based error applied! address=0x53c2a2b8 additional_latency=173500 cycles
[ERROR_CYCLE] Error added at CPU cycle 1651860451, next at 1653809977, pending count: 1
[DRAM_CYCLE_ERROR] Cycle-based error applied! address=0x500fb5688 additional_latency=173500 cycles
[ERROR_CYCLE] Error added at CPU cycle 1653809978, next at 1657379418, pending count: 1
[DRAM_CYCLE_ERROR] Cycle-based error applied! address=0xddd3c4180 additional_latency=173500 cycles
[ERROR_CYCLE] Error added at CPU cycle 1657379418, next at 1658264083, pending count: 1
[DRAM_CYCLE_ERROR] Cycle-based error applied! address=0xefd9481f8 additional_latency=173500 cycles
[ERROR_CYCLE] Error added at CPU cycle 1658264083, next at 1665882359, pending count: 1
[DRAM_CYCLE_ERROR] Cycle-based error applied! address=0x575c56456 additional_latency=173500 cycles
Heartbeat CPU 0 instructions: 690000108 cycles: 1663099958 heartbeat IPC: 0.4207 cumulative IPC: 0.4149 (Simulation time: 03 hr 08 min 59 sec)
[ERROR_CYCLE] Error added at CPU cycle 1665882360, next at 1676059798, pending count: 1
[DRAM_CYCLE_ERROR] Cycle-based error applied! address=0xd0214a120 additional_latency=173500 cycles
[ERROR_CYCLE] Error added at CPU cycle 1676059798, next at 1681837268, pending count: 1
[DRAM_CYCLE_ERROR] Cycle-based error applied! address=0x8319e3348 additional_latency=173500 cycles
[ERROR_CYCLE] Error added at CPU cycle 1681837269, next at 1682449489, pending count: 1
[DRAM_CYCLE_ERROR] Cycle-based error applied! address=0x7cb18d1e0 additional_latency=173500 cycles
[ERROR_CYCLE] Error added at CPU cycle 1682449490, next at 1684531699, pending count: 1
[DRAM_CYCLE_ERROR] Cycle-based error applied! address=0x8791eb3b0 additional_latency=173500 cycles
[ERROR_CYCLE] Error added at CPU cycle 1684531699, next at 1689632708, pending count: 1
[DRAM_CYCLE_ERROR] Cycle-based error applied! address=0xf4c995da8 additional_latency=173500 cycles
Heartbeat CPU 0 instructions: 700000111 cycles: 1686730283 heartbeat IPC: 0.4232 cumulative IPC: 0.415 (Simulation time: 03 hr 11 min 30 sec)
[ERROR_CYCLE] Error added at CPU cycle 1689632708, next at 1698666429, pending count: 1
[DRAM_CYCLE_ERROR] Cycle-based error applied! address=0x6d8f79db0 additional_latency=173500 cycles
[ERROR_CYCLE] Error added at CPU cycle 1698666429, next at 1712907950, pending count: 1
[DRAM_CYCLE_ERROR] Cycle-based error applied! address=0x39787180 additional_latency=173500 cycles
Heartbeat CPU 0 instructions: 710000111 cycles: 1710701562 heartbeat IPC: 0.4172 cumulative IPC: 0.415 (Simulation time: 03 hr 14 min 13 sec)
[ERROR_CYCLE] Error added at CPU cycle 1712907950, next at 1723767518, pending count: 1
[DRAM_CYCLE_ERROR] Cycle-based error applied! address=0x5c1826d10 additional_latency=173500 cycles
[ERROR_CYCLE] Error added at CPU cycle 1723767518, next at 1724455640, pending count: 1
[DRAM_CYCLE_ERROR] Cycle-based error applied! address=0x91cf15260 additional_latency=173500 cycles
[ERROR_CYCLE] Error added at CPU cycle 1724455640, next at 1732720291, pending count: 1
[DRAM_CYCLE_ERROR] Cycle-based error applied! address=0x2e6d57da0 additional_latency=173500 cycles
[ERROR_CYCLE] Error added at CPU cycle 1732720291, next at 1732872069, pending count: 1
[DRAM_CYCLE_ERROR] Cycle-based error applied! address=0x40a2c1ec0 additional_latency=173500 cycles
[ERROR_CYCLE] Error added at CPU cycle 1732872069, next at 1761065331, pending count: 1
[DRAM_CYCLE_ERROR] Cycle-based error applied! address=0x6d33d9810 additional_latency=173500 cycles
Heartbeat CPU 0 instructions: 720000111 cycles: 1734867826 heartbeat IPC: 0.4138 cumulative IPC: 0.415 (Simulation time: 03 hr 16 min 51 sec)
Heartbeat CPU 0 instructions: 730000114 cycles: 1758363108 heartbeat IPC: 0.4256 cumulative IPC: 0.4152 (Simulation time: 03 hr 19 min 28 sec)
[ERROR_CYCLE] Error added at CPU cycle 1761065331, next at 1793147943, pending count: 1
[DRAM_CYCLE_ERROR] Cycle-based error applied! address=0x9199bc00 additional_latency=173500 cycles
Heartbeat CPU 0 instructions: 740000114 cycles: 1782166784 heartbeat IPC: 0.4201 cumulative IPC: 0.4152 (Simulation time: 03 hr 21 min 55 sec)
[ERROR_CYCLE] Error added at CPU cycle 1793147943, next at 1793813373, pending count: 1
[DRAM_CYCLE_ERROR] Cycle-based error applied! address=0x32a9ab1e8 additional_latency=173500 cycles
[ERROR_CYCLE] Error added at CPU cycle 1793813374, next at 1797803186, pending count: 1
[DRAM_CYCLE_ERROR] Cycle-based error applied! address=0x408fe02b8 additional_latency=173500 cycles
[ERROR_CYCLE] Error added at CPU cycle 1797803186, next at 1799966554, pending count: 1
[DRAM_CYCLE_ERROR] Cycle-based error applied! address=0xddd3c4198 additional_latency=173500 cycles
[ERROR_CYCLE] Error added at CPU cycle 1799966554, next at 1816349209, pending count: 1
[DRAM_CYCLE_ERROR] Cycle-based error applied! address=0x2f849cb80 additional_latency=173500 cycles
Heartbeat CPU 0 instructions: 750000114 cycles: 1805777063 heartbeat IPC: 0.4235 cumulative IPC: 0.4153 (Simulation time: 03 hr 24 min 18 sec)
[ERROR_CYCLE] Error added at CPU cycle 1816349210, next at 1825528779, pending count: 1
[DRAM_CYCLE_ERROR] Cycle-based error applied! address=0xe73f4dcd6 additional_latency=173500 cycles
[ERROR_CYCLE] Error added at CPU cycle 1825528779, next at 1834768449, pending count: 1
[DRAM_CYCLE_ERROR] Cycle-based error applied! address=0xdc70cdfd0 additional_latency=173500 cycles
Heartbeat CPU 0 instructions: 760000117 cycles: 1829498529 heartbeat IPC: 0.4216 cumulative IPC: 0.4154 (Simulation time: 03 hr 26 min 36 sec)
[ERROR_CYCLE] Error added at CPU cycle 1834768449, next at 1844525260, pending count: 1
[DRAM_CYCLE_ERROR] Cycle-based error applied! address=0xf8285d780 additional_latency=173500 cycles
[ERROR_CYCLE] Error added at CPU cycle 1844525260, next at 1850641546, pending count: 1
[DRAM_CYCLE_ERROR] Cycle-based error applied! address=0xb46e27920 additional_latency=173500 cycles
[ERROR_CYCLE] Error added at CPU cycle 1850641546, next at 1889060908, pending count: 1
[DRAM_CYCLE_ERROR] Cycle-based error applied! address=0x629fdff60 additional_latency=173500 cycles
Heartbeat CPU 0 instructions: 770000119 cycles: 1852503571 heartbeat IPC: 0.4347 cumulative IPC: 0.4157 (Simulation time: 03 hr 28 min 55 sec)
Heartbeat CPU 0 instructions: 780000119 cycles: 1875906325 heartbeat IPC: 0.4273 cumulative IPC: 0.4158 (Simulation time: 03 hr 31 min 36 sec)
[ERROR_CYCLE] Error added at CPU cycle 1889060908, next at 1893058439, pending count: 1
[DRAM_CYCLE_ERROR] Cycle-based error applied! address=0x1f6d58008 additional_latency=173500 cycles
[ERROR_CYCLE] Error added at CPU cycle 1893058439, next at 1893848597, pending count: 1
[DRAM_CYCLE_ERROR] Cycle-based error applied! address=0x6f4b31aa8 additional_latency=173500 cycles
[ERROR_CYCLE] Error added at CPU cycle 1893848597, next at 1896618500, pending count: 1
[DRAM_CYCLE_ERROR] Cycle-based error applied! address=0x923c59b30 additional_latency=173500 cycles
[ERROR_CYCLE] Error added at CPU cycle 1896618500, next at 1899563940, pending count: 1
[DRAM_CYCLE_ERROR] Cycle-based error applied! address=0x86d078fb8 additional_latency=173500 cycles
[ERROR_CYCLE] Error added at CPU cycle 1899563940, next at 1916523007, pending count: 1
[DRAM_CYCLE_ERROR] Cycle-based error applied! address=0x91458fa50 additional_latency=173500 cycles
Heartbeat CPU 0 instructions: 790000119 cycles: 1899773441 heartbeat IPC: 0.419 cumulative IPC: 0.4158 (Simulation time: 03 hr 34 min 17 sec)
[ERROR_CYCLE] Error added at CPU cycle 1916523007, next at 1919993062, pending count: 1
[DRAM_CYCLE_ERROR] Cycle-based error applied! address=0x399d87608 additional_latency=173500 cycles
[ERROR_CYCLE] Error added at CPU cycle 1919993063, next at 1953397181, pending count: 1
[DRAM_CYCLE_ERROR] Cycle-based error applied! address=0x341f6f438 additional_latency=173500 cycles
Heartbeat CPU 0 instructions: 800000121 cycles: 1922916290 heartbeat IPC: 0.4321 cumulative IPC: 0.416 (Simulation time: 03 hr 37 min 02 sec)
Heartbeat CPU 0 instructions: 810000124 cycles: 1946851409 heartbeat IPC: 0.4178 cumulative IPC: 0.4161 (Simulation time: 03 hr 39 min 50 sec)
[ERROR_CYCLE] Error added at CPU cycle 1953397182, next at 1957960083, pending count: 1
[DRAM_CYCLE_ERROR] Cycle-based error applied! address=0xa65366600 additional_latency=173500 cycles
[ERROR_CYCLE] Error added at CPU cycle 1957960083, next at 1964413148, pending count: 1
[DRAM_CYCLE_ERROR] Cycle-based error applied! address=0xa3979d5c0 additional_latency=173500 cycles
[ERROR_CYCLE] Error added at CPU cycle 1964413148, next at 1975694798, pending count: 1
[DRAM_CYCLE_ERROR] Cycle-based error applied! address=0x27e92b178 additional_latency=173500 cycles
Heartbeat CPU 0 instructions: 820000124 cycles: 1970559019 heartbeat IPC: 0.4218 cumulative IPC: 0.4161 (Simulation time: 03 hr 42 min 36 sec)
[ERROR_CYCLE] Error added at CPU cycle 1975694799, next at 1978590678, pending count: 1
[DRAM_CYCLE_ERROR] Cycle-based error applied! address=0x33d2006f0 additional_latency=173500 cycles
[ERROR_CYCLE] Error added at CPU cycle 1978590678, next at 1999903695, pending count: 1
[DRAM_CYCLE_ERROR] Cycle-based error applied! address=0xba89d1ed8 additional_latency=173500 cycles
Heartbeat CPU 0 instructions: 830000127 cycles: 1994015885 heartbeat IPC: 0.4263 cumulative IPC: 0.4162 (Simulation time: 03 hr 45 min 19 sec)
[ERROR_CYCLE] Error added at CPU cycle 1999903696, next at 2039968677, pending count: 1
[DRAM_CYCLE_ERROR] Cycle-based error applied! address=0xb59ee5a40 additional_latency=173500 cycles
Heartbeat CPU 0 instructions: 840000131 cycles: 2017568444 heartbeat IPC: 0.4246 cumulative IPC: 0.4163 (Simulation time: 03 hr 48 min 04 sec)
[ERROR_CYCLE] Error added at CPU cycle 2039968677, next at 2041475847, pending count: 1
[DRAM_CYCLE_ERROR] Cycle-based error applied! address=0xbbb137220 additional_latency=173500 cycles
Heartbeat CPU 0 instructions: 850000134 cycles: 2041446604 heartbeat IPC: 0.4188 cumulative IPC: 0.4164 (Simulation time: 03 hr 50 min 50 sec)
[ERROR_CYCLE] Error added at CPU cycle 2041475847, next at 2047560792, pending count: 1
[DRAM_CYCLE_ERROR] Cycle-based error applied! address=0xe263f84b8 additional_latency=173500 cycles
[ERROR_CYCLE] Error added at CPU cycle 2047560792, next at 2057318185, pending count: 1
[DRAM_CYCLE_ERROR] Cycle-based error applied! address=0x3385bc1d8 additional_latency=173500 cycles
[ERROR_CYCLE] Error added at CPU cycle 2057318185, next at 2060443789, pending count: 1
[DRAM_CYCLE_ERROR] Cycle-based error applied! address=0x510c31180 additional_latency=173500 cycles
[ERROR_CYCLE] Error added at CPU cycle 2060443790, next at 2081336312, pending count: 1
[DRAM_CYCLE_ERROR] Cycle-based error applied! address=0x67f27df18 additional_latency=173500 cycles
Heartbeat CPU 0 instructions: 860000138 cycles: 2064984027 heartbeat IPC: 0.4249 cumulative IPC: 0.4165 (Simulation time: 03 hr 53 min 34 sec)
[ERROR_CYCLE] Error added at CPU cycle 2081336313, next at 2086511136, pending count: 1
[DRAM_CYCLE_ERROR] Cycle-based error applied! address=0xfd17af5e8 additional_latency=173500 cycles
[ERROR_CYCLE] Error added at CPU cycle 2086511137, next at 2122093809, pending count: 1
[DRAM_CYCLE_ERROR] Cycle-based error applied! address=0x705255258 additional_latency=173500 cycles
Heartbeat CPU 0 instructions: 870000139 cycles: 2088517508 heartbeat IPC: 0.4249 cumulative IPC: 0.4166 (Simulation time: 03 hr 56 min 18 sec)
Heartbeat CPU 0 instructions: 880000143 cycles: 2112320082 heartbeat IPC: 0.4201 cumulative IPC: 0.4166 (Simulation time: 03 hr 59 min 05 sec)
[ERROR_CYCLE] Error added at CPU cycle 2122093810, next at 2127094108, pending count: 1
[DRAM_CYCLE_ERROR] Cycle-based error applied! address=0x18cbde438 additional_latency=173500 cycles
[ERROR_CYCLE] Error added at CPU cycle 2127094108, next at 2135895343, pending count: 1
[DRAM_CYCLE_ERROR] Cycle-based error applied! address=0xcf3d8db38 additional_latency=173500 cycles
Heartbeat CPU 0 instructions: 890000144 cycles: 2135699562 heartbeat IPC: 0.4277 cumulative IPC: 0.4167 (Simulation time: 04 hr 01 min 48 sec)
[ERROR_CYCLE] Error added at CPU cycle 2135895344, next at 2136799738, pending count: 1
[DRAM_CYCLE_ERROR] Cycle-based error applied! address=0x21b09e790 additional_latency=173500 cycles
[ERROR_CYCLE] Error added at CPU cycle 2136799738, next at 2139453762, pending count: 1
[DRAM_CYCLE_ERROR] Cycle-based error applied! address=0xd6e3c5a76 additional_latency=173500 cycles
[ERROR_CYCLE] Error added at CPU cycle 2139453763, next at 2143754350, pending count: 1
[DRAM_CYCLE_ERROR] Cycle-based error applied! address=0x779df6d58 additional_latency=173500 cycles
[ERROR_CYCLE] Error added at CPU cycle 2143754351, next at 2143833455, pending count: 1
[DRAM_CYCLE_ERROR] Cycle-based error applied! address=0xf4d70ae58 additional_latency=173500 cycles
[ERROR_CYCLE] Error added at CPU cycle 2143833456, next at 2170169196, pending count: 1
[DRAM_CYCLE_ERROR] Cycle-based error applied! address=0x95ec0c1a0 additional_latency=173500 cycles
Heartbeat CPU 0 instructions: 900000146 cycles: 2158524227 heartbeat IPC: 0.4381 cumulative IPC: 0.417 (Simulation time: 04 hr 04 min 28 sec)
[ERROR_CYCLE] Error added at CPU cycle 2170169196, next at 2170565878, pending count: 1
[DRAM_CYCLE_ERROR] Cycle-based error applied! address=0x7ac735f54 additional_latency=173500 cycles
[ERROR_CYCLE] Error added at CPU cycle 2170565879, next at 2195034269, pending count: 1
[DRAM_CYCLE_ERROR] Cycle-based error applied! address=0x5dac08bb0 additional_latency=173500 cycles
Heartbeat CPU 0 instructions: 910000147 cycles: 2181954989 heartbeat IPC: 0.4268 cumulative IPC: 0.4171 (Simulation time: 04 hr 07 min 04 sec)
[ERROR_CYCLE] Error added at CPU cycle 2195034270, next at 2204436534, pending count: 1
[DRAM_CYCLE_ERROR] Cycle-based error applied! address=0x6ea54a0a0 additional_latency=173500 cycles
[ERROR_CYCLE] Error added at CPU cycle 2204436534, next at 2217211204, pending count: 1
[DRAM_CYCLE_ERROR] Cycle-based error applied! address=0xda49970e0 additional_latency=173500 cycles
Heartbeat CPU 0 instructions: 920000148 cycles: 2205624297 heartbeat IPC: 0.4225 cumulative IPC: 0.4171 (Simulation time: 04 hr 09 min 53 sec)
[ERROR_CYCLE] Error added at CPU cycle 2217211205, next at 2223054796, pending count: 1
[DRAM_CYCLE_ERROR] Cycle-based error applied! address=0x7da1544a8 additional_latency=173500 cycles
[ERROR_CYCLE] Error added at CPU cycle 2223054797, next at 2228544198, pending count: 1
[DRAM_CYCLE_ERROR] Cycle-based error applied! address=0xaf1a7bff0 additional_latency=173500 cycles
[ERROR_CYCLE] Error added at CPU cycle 2228544198, next at 2232019815, pending count: 1
[DRAM_CYCLE_ERROR] Cycle-based error applied! address=0xe216be268 additional_latency=173500 cycles
Heartbeat CPU 0 instructions: 930000148 cycles: 2228555629 heartbeat IPC: 0.4361 cumulative IPC: 0.4173 (Simulation time: 04 hr 12 min 38 sec)
[ERROR_CYCLE] Error added at CPU cycle 2232019815, next at 2235515925, pending count: 1
[DRAM_CYCLE_ERROR] Cycle-based error applied! address=0x55c7bab80 additional_latency=173500 cycles
[ERROR_CYCLE] Error added at CPU cycle 2235515925, next at 2237647010, pending count: 1
[DRAM_CYCLE_ERROR] Cycle-based error applied! address=0xd4b282008 additional_latency=173500 cycles
[ERROR_CYCLE] Error added at CPU cycle 2237647010, next at 2248080448, pending count: 1
[DRAM_CYCLE_ERROR] Cycle-based error applied! address=0xaf4e33999 additional_latency=173500 cycles
[ERROR_CYCLE] Error added at CPU cycle 2248080448, next at 2268555961, pending count: 1
[DRAM_CYCLE_ERROR] Cycle-based error applied! address=0x89774dec8 additional_latency=173500 cycles
Heartbeat CPU 0 instructions: 940000148 cycles: 2251550392 heartbeat IPC: 0.4349 cumulative IPC: 0.4175 (Simulation time: 04 hr 15 min 26 sec)
[ERROR_CYCLE] Error added at CPU cycle 2268555961, next at 2288482074, pending count: 1
[DRAM_CYCLE_ERROR] Cycle-based error applied! address=0x5e7497258 additional_latency=173500 cycles
Heartbeat CPU 0 instructions: 950000151 cycles: 2275132153 heartbeat IPC: 0.4241 cumulative IPC: 0.4176 (Simulation time: 04 hr 18 min 17 sec)
[ERROR_CYCLE] Error added at CPU cycle 2288482074, next at 2294298920, pending count: 1
[DRAM_CYCLE_ERROR] Cycle-based error applied! address=0xc721a4ae8 additional_latency=173500 cycles
[ERROR_CYCLE] Error added at CPU cycle 2294298920, next at 2295073929, pending count: 1
[DRAM_CYCLE_ERROR] Cycle-based error applied! address=0xc2aa21b60 additional_latency=173500 cycles
[ERROR_CYCLE] Error added at CPU cycle 2295073930, next at 2296867031, pending count: 1
[DRAM_CYCLE_ERROR] Cycle-based error applied! address=0x4dadc820 additional_latency=173500 cycles
[ERROR_CYCLE] Error added at CPU cycle 2296867031, next at 2305759519, pending count: 1
[DRAM_CYCLE_ERROR] Cycle-based error applied! address=0xefef62840 additional_latency=173500 cycles
Heartbeat CPU 0 instructions: 960000153 cycles: 2298521520 heartbeat IPC: 0.4275 cumulative IPC: 0.4177 (Simulation time: 04 hr 20 min 38 sec)
[ERROR_CYCLE] Error added at CPU cycle 2305759519, next at 2317589146, pending count: 1
[DRAM_CYCLE_ERROR] Cycle-based error applied! address=0x4a230f2a8 additional_latency=173500 cycles
[ERROR_CYCLE] Error added at CPU cycle 2317589146, next at 2319340389, pending count: 1
[DRAM_CYCLE_ERROR] Cycle-based error applied! address=0x1e9242c0 additional_latency=173500 cycles
[ERROR_CYCLE] Error added at CPU cycle 2319340390, next at 2321630499, pending count: 1
[DRAM_CYCLE_ERROR] Cycle-based error applied! address=0x6d16ef180 additional_latency=173500 cycles
[ERROR_CYCLE] Error added at CPU cycle 2321630499, next at 2328230742, pending count: 1
[DRAM_CYCLE_ERROR] Cycle-based error applied! address=0x9bcf1ec60 additional_latency=173500 cycles
Heartbeat CPU 0 instructions: 970000153 cycles: 2322110195 heartbeat IPC: 0.4239 cumulative IPC: 0.4177 (Simulation time: 04 hr 23 min 29 sec)
[ERROR_CYCLE] Error added at CPU cycle 2328230742, next at 2330492435, pending count: 1
[DRAM_CYCLE_ERROR] Cycle-based error applied! address=0xb7e350a90 additional_latency=173500 cycles
[ERROR_CYCLE] Error added at CPU cycle 2330492436, next at 2331166908, pending count: 1
[DRAM_CYCLE_ERROR] Cycle-based error applied! address=0x6a3f883f0 additional_latency=173500 cycles
[ERROR_CYCLE] Error added at CPU cycle 2331166908, next at 2332314393, pending count: 1
[DRAM_CYCLE_ERROR] Cycle-based error applied! address=0x1a05cdb28 additional_latency=173500 cycles
[ERROR_CYCLE] Error added at CPU cycle 2332314393, next at 2334063851, pending count: 1
[DRAM_CYCLE_ERROR] Cycle-based error applied! address=0x4b43a4088 additional_latency=173500 cycles
[ERROR_CYCLE] Error added at CPU cycle 2334063851, next at 2375625705, pending count: 1
[DRAM_CYCLE_ERROR] Cycle-based error applied! address=0xa228009c0 additional_latency=173500 cycles
Heartbeat CPU 0 instructions: 980000156 cycles: 2345237258 heartbeat IPC: 0.4324 cumulative IPC: 0.4179 (Simulation time: 04 hr 26 min 08 sec)
Heartbeat CPU 0 instructions: 990000157 cycles: 2368932614 heartbeat IPC: 0.422 cumulative IPC: 0.4179 (Simulation time: 04 hr 28 min 38 sec)
[ERROR_CYCLE] Error added at CPU cycle 2375625705, next at 2388203853, pending count: 1
[DRAM_CYCLE_ERROR] Cycle-based error applied! address=0xa601170 additional_latency=173500 cycles
[ERROR_CYCLE] Error added at CPU cycle 2388203853, next at 2394260406, pending count: 1
[DRAM_CYCLE_ERROR] Cycle-based error applied! address=0xeaea95600 additional_latency=173500 cycles
Heartbeat CPU 0 instructions: 1000000158 cycles: 2392567826 heartbeat IPC: 0.4231 cumulative IPC: 0.418 (Simulation time: 04 hr 30 min 50 sec)
[ERROR_CYCLE] Error added at CPU cycle 2394260407, next at 2419140556, pending count: 1
[DRAM_CYCLE_ERROR] Cycle-based error applied! address=0x5101d4718 additional_latency=173500 cycles
Heartbeat CPU 0 instructions: 1010000158 cycles: 2416000817 heartbeat IPC: 0.4267 cumulative IPC: 0.418 (Simulation time: 04 hr 33 min 29 sec)
[ERROR_CYCLE] Error added at CPU cycle 2419140557, next at 2424145521, pending count: 1
[DRAM_CYCLE_ERROR] Cycle-based error applied! address=0x37cf2f18 additional_latency=173500 cycles
[ERROR_CYCLE] Error added at CPU cycle 2424145521, next at 2429301214, pending count: 1
[DRAM_CYCLE_ERROR] Cycle-based error applied! address=0x9a713bdf8 additional_latency=173500 cycles
[ERROR_CYCLE] Error added at CPU cycle 2429301214, next at 2462176563, pending count: 1
[DRAM_CYCLE_ERROR] Cycle-based error applied! address=0xda2d432d8 additional_latency=173500 cycles
Heartbeat CPU 0 instructions: 1020000158 cycles: 2439629562 heartbeat IPC: 0.4232 cumulative IPC: 0.4181 (Simulation time: 04 hr 35 min 43 sec)
[ERROR_CYCLE] Error added at CPU cycle 2462176564, next at 2471115500, pending count: 1
[DRAM_CYCLE_ERROR] Cycle-based error applied! address=0x620e480f0 additional_latency=173500 cycles
Heartbeat CPU 0 instructions: 1030000159 cycles: 2463106173 heartbeat IPC: 0.426 cumulative IPC: 0.4182 (Simulation time: 04 hr 37 min 49 sec)
[ERROR_CYCLE] Error added at CPU cycle 2471115500, next at 2482235696, pending count: 1
[DRAM_CYCLE_ERROR] Cycle-based error applied! address=0x76c1c0ee8 additional_latency=173500 cycles
[ERROR_CYCLE] Error added at CPU cycle 2482235696, next at 2484445689, pending count: 1
[DRAM_CYCLE_ERROR] Cycle-based error applied! address=0xddc4ae9d0 additional_latency=173500 cycles
[ERROR_CYCLE] Error added at CPU cycle 2484445689, next at 2487826583, pending count: 1
[DRAM_CYCLE_ERROR] Cycle-based error applied! address=0x72c7f7bb0 additional_latency=173500 cycles
Heartbeat CPU 0 instructions: 1040000159 cycles: 2486322886 heartbeat IPC: 0.4307 cumulative IPC: 0.4183 (Simulation time: 04 hr 40 min 17 sec)
[ERROR_CYCLE] Error added at CPU cycle 2487826583, next at 2492127373, pending count: 1
[DRAM_CYCLE_ERROR] Cycle-based error applied! address=0xb9780e418 additional_latency=173500 cycles
[ERROR_CYCLE] Error added at CPU cycle 2492127374, next at 2505689272, pending count: 1
[DRAM_CYCLE_ERROR] Cycle-based error applied! address=0x19e5790f0 additional_latency=173500 cycles
[ERROR_CYCLE] Error added at CPU cycle 2505689272, next at 2515529207, pending count: 1
[DRAM_CYCLE_ERROR] Cycle-based error applied! address=0xd15e14208 additional_latency=173500 cycles
Heartbeat CPU 0 instructions: 1050000161 cycles: 2509381615 heartbeat IPC: 0.4337 cumulative IPC: 0.4184 (Simulation time: 04 hr 42 min 44 sec)
[ERROR_CYCLE] Error added at CPU cycle 2515529208, next at 2520692507, pending count: 1
[DRAM_CYCLE_ERROR] Cycle-based error applied! address=0x5e8c029b0 additional_latency=173500 cycles
[ERROR_CYCLE] Error added at CPU cycle 2520692507, next at 2526977663, pending count: 1
[DRAM_CYCLE_ERROR] Cycle-based error applied! address=0x2498d7138 additional_latency=173500 cycles
[ERROR_CYCLE] Error added at CPU cycle 2526977664, next at 2534787706, pending count: 1
[DRAM_CYCLE_ERROR] Cycle-based error applied! address=0x80bfbbdb8 additional_latency=173500 cycles
Heartbeat CPU 0 instructions: 1060000161 cycles: 2531981036 heartbeat IPC: 0.4425 cumulative IPC: 0.4186 (Simulation time: 04 hr 45 min 28 sec)
[ERROR_CYCLE] Error added at CPU cycle 2534787706, next at 2539634993, pending count: 1
[DRAM_CYCLE_ERROR] Cycle-based error applied! address=0x716db3900 additional_latency=173500 cycles
[ERROR_CYCLE] Error added at CPU cycle 2539634993, next at 2541357327, pending count: 1
[DRAM_CYCLE_ERROR] Cycle-based error applied! address=0xf77edbb80 additional_latency=173500 cycles
[ERROR_CYCLE] Error added at CPU cycle 2541357328, next at 2563015622, pending count: 1
[DRAM_CYCLE_ERROR] Cycle-based error applied! address=0x521453ac4 additional_latency=173500 cycles
Heartbeat CPU 0 instructions: 1070000165 cycles: 2555075362 heartbeat IPC: 0.433 cumulative IPC: 0.4188 (Simulation time: 04 hr 48 min 08 sec)
[ERROR_CYCLE] Error added at CPU cycle 2563015623, next at 2574248413, pending count: 1
[DRAM_CYCLE_ERROR] Cycle-based error applied! address=0x5c020c598 additional_latency=173500 cycles
[ERROR_CYCLE] Error added at CPU cycle 2574248413, next at 2584536777, pending count: 1
[DRAM_CYCLE_ERROR] Cycle-based error applied! address=0x606a9f010 additional_latency=173500 cycles
Heartbeat CPU 0 instructions: 1080000166 cycles: 2578576625 heartbeat IPC: 0.4255 cumulative IPC: 0.4188 (Simulation time: 04 hr 50 min 40 sec)
[ERROR_CYCLE] Error added at CPU cycle 2584536777, next at 2633667804, pending count: 1
[DRAM_CYCLE_ERROR] Cycle-based error applied! address=0x538189b40 additional_latency=173500 cycles
Heartbeat CPU 0 instructions: 1090000166 cycles: 2601868537 heartbeat IPC: 0.4293 cumulative IPC: 0.4189 (Simulation time: 04 hr 53 min 27 sec)
Heartbeat CPU 0 instructions: 1100000166 cycles: 2624571931 heartbeat IPC: 0.4405 cumulative IPC: 0.4191 (Simulation time: 04 hr 56 min 01 sec)
[ERROR_CYCLE] Error added at CPU cycle 2633667805, next at 2637894515, pending count: 1
[DRAM_CYCLE_ERROR] Cycle-based error applied! address=0x69015bb8 additional_latency=173500 cycles
[ERROR_CYCLE] Error added at CPU cycle 2637894516, next at 2648211880, pending count: 1
[DRAM_CYCLE_ERROR] Cycle-based error applied! address=0x433e37350 additional_latency=173500 cycles
Heartbeat CPU 0 instructions: 1110000166 cycles: 2648022524 heartbeat IPC: 0.4264 cumulative IPC: 0.4192 (Simulation time: 04 hr 58 min 38 sec)
[ERROR_CYCLE] Error added at CPU cycle 2648211880, next at 2649012483, pending count: 1
[DRAM_CYCLE_ERROR] Cycle-based error applied! address=0x71ab01fc0 additional_latency=173500 cycles
[ERROR_CYCLE] Error added at CPU cycle 2649012484, next at 2655650192, pending count: 1
[DRAM_CYCLE_ERROR] Cycle-based error applied! address=0xd15d3fda0 additional_latency=173500 cycles
[ERROR_CYCLE] Error added at CPU cycle 2655650192, next at 2663525915, pending count: 1
[DRAM_CYCLE_ERROR] Cycle-based error applied! address=0x745a4a288 additional_latency=173500 cycles
[ERROR_CYCLE] Error added at CPU cycle 2663525915, next at 2686778622, pending count: 1
[DRAM_CYCLE_ERROR] Cycle-based error applied! address=0xee032da80 additional_latency=173500 cycles
Heartbeat CPU 0 instructions: 1120000168 cycles: 2671045420 heartbeat IPC: 0.4344 cumulative IPC: 0.4193 (Simulation time: 05 hr 01 min 05 sec)
[ERROR_CYCLE] Error added at CPU cycle 2686778623, next at 2706990306, pending count: 1
[DRAM_CYCLE_ERROR] Cycle-based error applied! address=0x76a86f8c8 additional_latency=173500 cycles
Heartbeat CPU 0 instructions: 1130000172 cycles: 2694503044 heartbeat IPC: 0.4263 cumulative IPC: 0.4194 (Simulation time: 05 hr 03 min 42 sec)
[ERROR_CYCLE] Error added at CPU cycle 2706990306, next at 2707500157, pending count: 1
[DRAM_CYCLE_ERROR] Cycle-based error applied! address=0x4848064a0 additional_latency=173500 cycles
[ERROR_CYCLE] Error added at CPU cycle 2707500157, next at 2711785951, pending count: 1
[DRAM_CYCLE_ERROR] Cycle-based error applied! address=0x25107a80 additional_latency=173500 cycles
[ERROR_CYCLE] Error added at CPU cycle 2711785952, next at 2722419252, pending count: 1
[DRAM_CYCLE_ERROR] Cycle-based error applied! address=0xff4742e50 additional_latency=173500 cycles
Heartbeat CPU 0 instructions: 1140000176 cycles: 2717437429 heartbeat IPC: 0.436 cumulative IPC: 0.4195 (Simulation time: 05 hr 06 min 17 sec)
[ERROR_CYCLE] Error added at CPU cycle 2722419253, next at 2734191801, pending count: 1
[DRAM_CYCLE_ERROR] Cycle-based error applied! address=0x8854cf100 additional_latency=173500 cycles
[ERROR_CYCLE] Error added at CPU cycle 2734191802, next at 2762580882, pending count: 1
[DRAM_CYCLE_ERROR] Cycle-based error applied! address=0x1a010de28 additional_latency=173500 cycles
Heartbeat CPU 0 instructions: 1150000177 cycles: 2740185261 heartbeat IPC: 0.4396 cumulative IPC: 0.4197 (Simulation time: 05 hr 09 min 01 sec)
[ERROR_CYCLE] Error added at CPU cycle 2762580882, next at 2768610152, pending count: 1
[DRAM_CYCLE_ERROR] Cycle-based error applied! address=0x4a040dc40 additional_latency=173500 cycles
Heartbeat CPU 0 instructions: 1160000181 cycles: 2763107699 heartbeat IPC: 0.4363 cumulative IPC: 0.4198 (Simulation time: 05 hr 11 min 28 sec)
[ERROR_CYCLE] Error added at CPU cycle 2768610153, next at 2784603218, pending count: 1
[DRAM_CYCLE_ERROR] Cycle-based error applied! address=0xe29c93a90 additional_latency=173500 cycles
[ERROR_CYCLE] Error added at CPU cycle 2784603218, next at 2791831024, pending count: 1
[DRAM_CYCLE_ERROR] Cycle-based error applied! address=0x3c9d526e0 additional_latency=173500 cycles
Heartbeat CPU 0 instructions: 1170000183 cycles: 2786456735 heartbeat IPC: 0.4283 cumulative IPC: 0.4199 (Simulation time: 05 hr 14 min 07 sec)
[ERROR_CYCLE] Error added at CPU cycle 2791831025, next at 2801792805, pending count: 1
[DRAM_CYCLE_ERROR] Cycle-based error applied! address=0xbb16b8ca8 additional_latency=173500 cycles
[ERROR_CYCLE] Error added at CPU cycle 2801792805, next at 2802263784, pending count: 1
[DRAM_CYCLE_ERROR] Cycle-based error applied! address=0x1c2312e98 additional_latency=173500 cycles
[ERROR_CYCLE] Error added at CPU cycle 2802263784, next at 2805327961, pending count: 1
[DRAM_CYCLE_ERROR] Cycle-based error applied! address=0xc811cd400 additional_latency=173500 cycles
[ERROR_CYCLE] Error added at CPU cycle 2805327962, next at 2808931246, pending count: 1
[DRAM_CYCLE_ERROR] Cycle-based error applied! address=0xc52083728 additional_latency=173500 cycles
[ERROR_CYCLE] Error added at CPU cycle 2808931247, next at 2816309239, pending count: 1
[DRAM_CYCLE_ERROR] Cycle-based error applied! address=0xfaa57b9b8 additional_latency=173500 cycles
Heartbeat CPU 0 instructions: 1180000184 cycles: 2809225763 heartbeat IPC: 0.4392 cumulative IPC: 0.42 (Simulation time: 05 hr 16 min 04 sec)
[ERROR_CYCLE] Error added at CPU cycle 2816309240, next at 2826601536, pending count: 1
[DRAM_CYCLE_ERROR] Cycle-based error applied! address=0x589ed5390 additional_latency=173500 cycles
[ERROR_CYCLE] Error added at CPU cycle 2826601536, next at 2860916053, pending count: 1
[DRAM_CYCLE_ERROR] Cycle-based error applied! address=0x64a95048 additional_latency=173500 cycles
Heartbeat CPU 0 instructions: 1190000185 cycles: 2832696751 heartbeat IPC: 0.4261 cumulative IPC: 0.4201 (Simulation time: 05 hr 18 min 26 sec)
Heartbeat CPU 0 instructions: 1200000186 cycles: 2855749807 heartbeat IPC: 0.4338 cumulative IPC: 0.4202 (Simulation time: 05 hr 21 min 14 sec)
[ERROR_CYCLE] Error added at CPU cycle 2860916053, next at 2870223242, pending count: 1
[DRAM_CYCLE_ERROR] Cycle-based error applied! address=0xa29040c58 additional_latency=173500 cycles
[ERROR_CYCLE] Error added at CPU cycle 2870223243, next at 2884087618, pending count: 1
[DRAM_CYCLE_ERROR] Cycle-based error applied! address=0x893683d80 additional_latency=173500 cycles
Heartbeat CPU 0 instructions: 1210000189 cycles: 2878793241 heartbeat IPC: 0.434 cumulative IPC: 0.4203 (Simulation time: 05 hr 23 min 43 sec)
[ERROR_CYCLE] Error added at CPU cycle 2884087618, next at 2892827392, pending count: 1
[DRAM_CYCLE_ERROR] Cycle-based error applied! address=0x1a5e3a1a0 additional_latency=173500 cycles
[ERROR_CYCLE] Error added at CPU cycle 2892827392, next at 2899902752, pending count: 1
[DRAM_CYCLE_ERROR] Cycle-based error applied! address=0xf40c23530 additional_latency=173500 cycles
[ERROR_CYCLE] Error added at CPU cycle 2899902753, next at 2921677388, pending count: 1
[DRAM_CYCLE_ERROR] Cycle-based error applied! address=0x31341d4d0 additional_latency=173500 cycles
Heartbeat CPU 0 instructions: 1220000191 cycles: 2901977327 heartbeat IPC: 0.4313 cumulative IPC: 0.4204 (Simulation time: 05 hr 26 min 04 sec)
[ERROR_CYCLE] Error added at CPU cycle 2921677388, next at 2926276412, pending count: 1
[DRAM_CYCLE_ERROR] Cycle-based error applied! address=0xb9c3f9548 additional_latency=173500 cycles
Heartbeat CPU 0 instructions: 1230000191 cycles: 2925208087 heartbeat IPC: 0.4305 cumulative IPC: 0.4205 (Simulation time: 05 hr 28 min 06 sec)
[ERROR_CYCLE] Error added at CPU cycle 2926276412, next at 2942166062, pending count: 1
[DRAM_CYCLE_ERROR] Cycle-based error applied! address=0xe251e81c0 additional_latency=173500 cycles
[ERROR_CYCLE] Error added at CPU cycle 2942166063, next at 2942802865, pending count: 1
[DRAM_CYCLE_ERROR] Cycle-based error applied! address=0x48c80f850 additional_latency=173500 cycles
[ERROR_CYCLE] Error added at CPU cycle 2942802866, next at 2957660694, pending count: 1
[DRAM_CYCLE_ERROR] Cycle-based error applied! address=0xc71b50b0 additional_latency=173500 cycles
Heartbeat CPU 0 instructions: 1240000192 cycles: 2948431597 heartbeat IPC: 0.4306 cumulative IPC: 0.4206 (Simulation time: 05 hr 30 min 11 sec)
[ERROR_CYCLE] Error added at CPU cycle 2957660694, next at 2973123696, pending count: 1
[DRAM_CYCLE_ERROR] Cycle-based error applied! address=0x82a2f5bc0 additional_latency=173500 cycles
Heartbeat CPU 0 instructions: 1250000193 cycles: 2971664309 heartbeat IPC: 0.4304 cumulative IPC: 0.4206 (Simulation time: 05 hr 32 min 57 sec)
[ERROR_CYCLE] Error added at CPU cycle 2973123697, next at 2986952310, pending count: 1
[DRAM_CYCLE_ERROR] Cycle-based error applied! address=0xb14ac8620 additional_latency=173500 cycles
[ERROR_CYCLE] Error added at CPU cycle 2986952310, next at 3024457243, pending count: 1
[DRAM_CYCLE_ERROR] Cycle-based error applied! address=0xa0c4d0a40 additional_latency=173500 cycles
Heartbeat CPU 0 instructions: 1260000195 cycles: 2994750027 heartbeat IPC: 0.4332 cumulative IPC: 0.4207 (Simulation time: 05 hr 35 min 20 sec)
Heartbeat CPU 0 instructions: 1270000195 cycles: 3017778985 heartbeat IPC: 0.4342 cumulative IPC: 0.4208 (Simulation time: 05 hr 38 min 09 sec)
[ERROR_CYCLE] Error added at CPU cycle 3024457243, next at 3025131631, pending count: 1
[DRAM_CYCLE_ERROR] Cycle-based error applied! address=0x1ce6d4ed8 additional_latency=173500 cycles
[ERROR_CYCLE] Error added at CPU cycle 3025131632, next at 3039063732, pending count: 1
[DRAM_CYCLE_ERROR] Cycle-based error applied! address=0x1e6cea08 additional_latency=173500 cycles
[ERROR_CYCLE] Error added at CPU cycle 3039063732, next at 3042156612, pending count: 1
[DRAM_CYCLE_ERROR] Cycle-based error applied! address=0xa596f61a0 additional_latency=173500 cycles
Heartbeat CPU 0 instructions: 1280000195 cycles: 3040885226 heartbeat IPC: 0.4328 cumulative IPC: 0.4209 (Simulation time: 05 hr 40 min 44 sec)
[ERROR_CYCLE] Error added at CPU cycle 3042156612, next at 3049153556, pending count: 1
[DRAM_CYCLE_ERROR] Cycle-based error applied! address=0x1aafb8fc0 additional_latency=173500 cycles
[ERROR_CYCLE] Error added at CPU cycle 3049153557, next at 3071479979, pending count: 1
[DRAM_CYCLE_ERROR] Cycle-based error applied! address=0x43bfb46e0 additional_latency=173500 cycles
Heartbeat CPU 0 instructions: 1290000197 cycles: 3064335493 heartbeat IPC: 0.4264 cumulative IPC: 0.421 (Simulation time: 05 hr 43 min 34 sec)
[ERROR_CYCLE] Error added at CPU cycle 3071479979, next at 3075438839, pending count: 1
[DRAM_CYCLE_ERROR] Cycle-based error applied! address=0xf12c11628 additional_latency=173500 cycles
[ERROR_CYCLE] Error added at CPU cycle 3075438840, next at 3101604216, pending count: 1
[DRAM_CYCLE_ERROR] Cycle-based error applied! address=0x1b9ef04c4 additional_latency=173500 cycles
Heartbeat CPU 0 instructions: 1300000199 cycles: 3087424913 heartbeat IPC: 0.4331 cumulative IPC: 0.4211 (Simulation time: 05 hr 46 min 20 sec)
[ERROR_CYCLE] Error added at CPU cycle 3101604217, next at 3105234572, pending count: 1
[DRAM_CYCLE_ERROR] Cycle-based error applied! address=0xe292da2d0 additional_latency=173500 cycles
[ERROR_CYCLE] Error added at CPU cycle 3105234572, next at 3120731691, pending count: 1
[DRAM_CYCLE_ERROR] Cycle-based error applied! address=0x384525020 additional_latency=173500 cycles
Heartbeat CPU 0 instructions: 1310000199 cycles: 3110125323 heartbeat IPC: 0.4405 cumulative IPC: 0.4212 (Simulation time: 05 hr 49 min 02 sec)
[...]
[ERROR_CYCLE] Error added at CPU cycle 4184084213, next at 4184857689, pending count: 1
[DRAM_CYCLE_ERROR] Cycle-based error applied! address=0xefc31a320 additional_latency=173500 cycles
[ERROR_CYCLE] Error added at CPU cycle 4184857690, next at 4198326658, pending count: 1
[DRAM_CYCLE_ERROR] Cycle-based error applied! address=0xcf094170 additional_latency=173500 cycles
Heartbeat CPU 0 instructions: 1770000282 cycles: 4193563333 heartbeat IPC: 0.4121 cumulative IPC: 0.4221 (Simulation time: 07 hr 54 min 39 sec)
[ERROR_CYCLE] Error added at CPU cycle 4198326659, next at 4208621609, pending count: 1
[DRAM_CYCLE_ERROR] Cycle-based error applied! address=0x422395cb0 additional_latency=173500 cycles
[ERROR_CYCLE] Error added at CPU cycle 4208621609, next at 4214270375, pending count: 1
[DRAM_CYCLE_ERROR] Cycle-based error applied! address=0x3dedff230 additional_latency=173500 cycles
[ERROR_CYCLE] Error added at CPU cycle 4214270376, next at 4224744975, pending count: 1
[DRAM_CYCLE_ERROR] Cycle-based error applied! address=0x15e9d6a38 additional_latency=173500 cycles
Heartbeat CPU 0 instructions: 1780000282 cycles: 4217407409 heartbeat IPC: 0.4194 cumulative IPC: 0.4221 (Simulation time: 07 hr 57 min 30 sec)
[ERROR_CYCLE] Error added at CPU cycle 4224744975, next at 4227647614, pending count: 1
[DRAM_CYCLE_ERROR] Cycle-based error applied! address=0xe604014b0 additional_latency=173500 cycles
[ERROR_CYCLE] Error added at CPU cycle 4227647615, next at 4243056586, pending count: 1
[DRAM_CYCLE_ERROR] Cycle-based error applied! address=0xd0e2958e0 additional_latency=173500 cycles
Heartbeat CPU 0 instructions: 1790000283 cycles: 4241246069 heartbeat IPC: 0.4195 cumulative IPC: 0.422 (Simulation time: 08 hr 00 min 22 sec)
[ERROR_CYCLE] Error added at CPU cycle 4243056586, next at 4246651778, pending count: 1
[DRAM_CYCLE_ERROR] Cycle-based error applied! address=0x888d65d60 additional_latency=173500 cycles
[ERROR_CYCLE] Error added at CPU cycle 4246651778, next at 4270001959, pending count: 1
[DRAM_CYCLE_ERROR] Cycle-based error applied! address=0x5a68071d0 additional_latency=173500 cycles
Heartbeat CPU 0 instructions: 1800000284 cycles: 4265327724 heartbeat IPC: 0.4153 cumulative IPC: 0.422 (Simulation time: 08 hr 03 min 13 sec)
[ERROR_CYCLE] Error added at CPU cycle 4270001959, next at 4283808757, pending count: 1
[DRAM_CYCLE_ERROR] Cycle-based error applied! address=0xa7b974ec4 additional_latency=173500 cycles
[ERROR_CYCLE] Error added at CPU cycle 4283808758, next at 4284292687, pending count: 1
[DRAM_CYCLE_ERROR] Cycle-based error applied! address=0xbc5ae0f50 additional_latency=173500 cycles
[ERROR_CYCLE] Error added at CPU cycle 4284292688, next at 4299513190, pending count: 1
[DRAM_CYCLE_ERROR] Cycle-based error applied! address=0x6ce469078 additional_latency=173500 cycles
Heartbeat CPU 0 instructions: 1810000288 cycles: 4288992497 heartbeat IPC: 0.4226 cumulative IPC: 0.422 (Simulation time: 08 hr 05 min 33 sec)
[ERROR_CYCLE] Error added at CPU cycle 4299513191, next at 4301920808, pending count: 1
[DRAM_CYCLE_ERROR] Cycle-based error applied! address=0x6307770b0 additional_latency=173500 cycles
[ERROR_CYCLE] Error added at CPU cycle 4301920809, next at 4306624110, pending count: 1
[DRAM_CYCLE_ERROR] Cycle-based error applied! address=0x4f4a4aac8 additional_latency=173500 cycles
[ERROR_CYCLE] Error added at CPU cycle 4306624110, next at 4315655328, pending count: 1
[DRAM_CYCLE_ERROR] Cycle-based error applied! address=0xdcbdb4200 additional_latency=173500 cycles
Heartbeat CPU 0 instructions: 1820000288 cycles: 4313099568 heartbeat IPC: 0.4148 cumulative IPC: 0.422 (Simulation time: 08 hr 08 min 18 sec)
[ERROR_CYCLE] Error added at CPU cycle 4315655329, next at 4351500836, pending count: 1
[DRAM_CYCLE_ERROR] Cycle-based error applied! address=0xa17c46290 additional_latency=173500 cycles
Heartbeat CPU 0 instructions: 1830000289 cycles: 4336732716 heartbeat IPC: 0.4231 cumulative IPC: 0.422 (Simulation time: 08 hr 11 min 09 sec)
[ERROR_CYCLE] Error added at CPU cycle 4351500837, next at 4353286383, pending count: 1
[DRAM_CYCLE_ERROR] Cycle-based error applied! address=0x9e5872318 additional_latency=173500 cycles
[ERROR_CYCLE] Error added at CPU cycle 4353286384, next at 4362756485, pending count: 1
[DRAM_CYCLE_ERROR] Cycle-based error applied! address=0x469585c8 additional_latency=173500 cycles
Heartbeat CPU 0 instructions: 1840000289 cycles: 4360317221 heartbeat IPC: 0.424 cumulative IPC: 0.422 (Simulation time: 08 hr 14 min 02 sec)
[ERROR_CYCLE] Error added at CPU cycle 4362756486, next at 4378390133, pending count: 1
[DRAM_CYCLE_ERROR] Cycle-based error applied! address=0x6b862f100 additional_latency=173500 cycles
[ERROR_CYCLE] Error added at CPU cycle 4378390134, next at 4379610064, pending count: 1
[DRAM_CYCLE_ERROR] Cycle-based error applied! address=0x7d58c560 additional_latency=173500 cycles
[ERROR_CYCLE] Error added at CPU cycle 4379610064, next at 4420970530, pending count: 1
[DRAM_CYCLE_ERROR] Cycle-based error applied! address=0x4e5ba4501 additional_latency=173500 cycles
Heartbeat CPU 0 instructions: 1850000292 cycles: 4383912685 heartbeat IPC: 0.4238 cumulative IPC: 0.422 (Simulation time: 08 hr 16 min 49 sec)
Heartbeat CPU 0 instructions: 1860000292 cycles: 4407555002 heartbeat IPC: 0.423 cumulative IPC: 0.422 (Simulation time: 08 hr 19 min 42 sec)
[ERROR_CYCLE] Error added at CPU cycle 4420970531, next at 4424225388, pending count: 1
[DRAM_CYCLE_ERROR] Cycle-based error applied! address=0xb5fb0da98 additional_latency=173500 cycles
[ERROR_CYCLE] Error added at CPU cycle 4424225388, next at 4440565499, pending count: 1
[DRAM_CYCLE_ERROR] Cycle-based error applied! address=0xf49a78c20 additional_latency=173500 cycles
Heartbeat CPU 0 instructions: 1870000296 cycles: 4431339891 heartbeat IPC: 0.4204 cumulative IPC: 0.422 (Simulation time: 08 hr 22 min 22 sec)
[ERROR_CYCLE] Error added at CPU cycle 4440565499, next at 4444232708, pending count: 1
[DRAM_CYCLE_ERROR] Cycle-based error applied! address=0x8c714dfb0 additional_latency=173500 cycles
[ERROR_CYCLE] Error added at CPU cycle 4444232708, next at 4456866596, pending count: 1
[DRAM_CYCLE_ERROR] Cycle-based error applied! address=0xde5ac1130 additional_latency=173500 cycles
Heartbeat CPU 0 instructions: 1880000298 cycles: 4454996177 heartbeat IPC: 0.4227 cumulative IPC: 0.422 (Simulation time: 08 hr 24 min 52 sec)
[ERROR_CYCLE] Error added at CPU cycle 4456866597, next at 4460311958, pending count: 1
[DRAM_CYCLE_ERROR] Cycle-based error applied! address=0x2b4a03d78 additional_latency=173500 cycles
[ERROR_CYCLE] Error added at CPU cycle 4460311959, next at 4460652922, pending count: 1
[DRAM_CYCLE_ERROR] Cycle-based error applied! address=0x6ea647040 additional_latency=173500 cycles
[ERROR_CYCLE] Error added at CPU cycle 4460652922, next at 4478718755, pending count: 1
[DRAM_CYCLE_ERROR] Cycle-based error applied! address=0x4afb96590 additional_latency=173500 cycles
Heartbeat CPU 0 instructions: 1890000302 cycles: 4478479133 heartbeat IPC: 0.4258 cumulative IPC: 0.422 (Simulation time: 08 hr 27 min 44 sec)
[ERROR_CYCLE] Error added at CPU cycle 4478718756, next at 4491075333, pending count: 1
[DRAM_CYCLE_ERROR] Cycle-based error applied! address=0x1acfe5df8 additional_latency=173500 cycles
[ERROR_CYCLE] Error added at CPU cycle 4491075333, next at 4507395442, pending count: 1
[DRAM_CYCLE_ERROR] Cycle-based error applied! address=0x317b77388 additional_latency=173500 cycles
Heartbeat CPU 0 instructions: 1900000303 cycles: 4501884653 heartbeat IPC: 0.4272 cumulative IPC: 0.422 (Simulation time: 08 hr 30 min 35 sec)
[ERROR_CYCLE] Error added at CPU cycle 4507395443, next at 4511576700, pending count: 1
[DRAM_CYCLE_ERROR] Cycle-based error applied! address=0xc523fc9d0 additional_latency=173500 cycles
[ERROR_CYCLE] Error added at CPU cycle 4511576700, next at 4522315620, pending count: 1
[DRAM_CYCLE_ERROR] Cycle-based error applied! address=0x16317fdd8 additional_latency=173500 cycles
[ERROR_CYCLE] Error added at CPU cycle 4522315620, next at 4537215863, pending count: 1
[DRAM_CYCLE_ERROR] Cycle-based error applied! address=0xf22c7dda0 additional_latency=173500 cycles
Heartbeat CPU 0 instructions: 1910000303 cycles: 4525104964 heartbeat IPC: 0.4307 cumulative IPC: 0.4221 (Simulation time: 08 hr 33 min 25 sec)
[ERROR_CYCLE] Error added at CPU cycle 4537215864, next at 4537874443, pending count: 1
[DRAM_CYCLE_ERROR] Cycle-based error applied! address=0x3f1d30a56 additional_latency=173500 cycles
[ERROR_CYCLE] Error added at CPU cycle 4537874443, next at 4540944242, pending count: 1
[DRAM_CYCLE_ERROR] Cycle-based error applied! address=0xc26e1f888 additional_latency=173500 cycles
[ERROR_CYCLE] Error added at CPU cycle 4540944242, next at 4541717828, pending count: 1
[DRAM_CYCLE_ERROR] Cycle-based error applied! address=0x5ddc72108 additional_latency=173500 cycles
[ERROR_CYCLE] Error added at CPU cycle 4541717829, next at 4542776105, pending count: 1
[DRAM_CYCLE_ERROR] Cycle-based error applied! address=0x51b311516 additional_latency=173500 cycles
[ERROR_CYCLE] Error added at CPU cycle 4542776105, next at 4548997598, pending count: 1
[DRAM_CYCLE_ERROR] Cycle-based error applied! address=0x81a0d7968 additional_latency=173500 cycles
[ERROR_CYCLE] Error added at CPU cycle 4548997598, next at 4557513766, pending count: 1
[DRAM_CYCLE_ERROR] Cycle-based error applied! address=0xe90371c8 additional_latency=173500 cycles
Heartbeat CPU 0 instructions: 1920000307 cycles: 4549124311 heartbeat IPC: 0.4163 cumulative IPC: 0.4221 (Simulation time: 08 hr 36 min 20 sec)
[ERROR_CYCLE] Error added at CPU cycle 4557513767, next at 4564796480, pending count: 1
[DRAM_CYCLE_ERROR] Cycle-based error applied! address=0x748daf410 additional_latency=173500 cycles
[ERROR_CYCLE] Error added at CPU cycle 4564796481, next at 4569892836, pending count: 1
[DRAM_CYCLE_ERROR] Cycle-based error applied! address=0x2cf136c18 additional_latency=173500 cycles
[ERROR_CYCLE] Error added at CPU cycle 4569892837, next at 4585331149, pending count: 1
[DRAM_CYCLE_ERROR] Cycle-based error applied! address=0xea818ae08 additional_latency=173500 cycles
Heartbeat CPU 0 instructions: 1930000310 cycles: 4573257385 heartbeat IPC: 0.4144 cumulative IPC: 0.422 (Simulation time: 08 hr 39 min 16 sec)
[ERROR_CYCLE] Error added at CPU cycle 4585331149, next at 4591042116, pending count: 1
[DRAM_CYCLE_ERROR] Cycle-based error applied! address=0x661829298 additional_latency=173500 cycles
[ERROR_CYCLE] Error added at CPU cycle 4591042117, next at 4608324010, pending count: 1
[DRAM_CYCLE_ERROR] Cycle-based error applied! address=0x2cb9a9160 additional_latency=173500 cycles
Heartbeat CPU 0 instructions: 1940000313 cycles: 4596702726 heartbeat IPC: 0.4265 cumulative IPC: 0.422 (Simulation time: 08 hr 42 min 03 sec)
[ERROR_CYCLE] Error added at CPU cycle 4608324010, next at 4626270347, pending count: 1
[DRAM_CYCLE_ERROR] Cycle-based error applied! address=0x1e2dde838 additional_latency=173500 cycles
Heartbeat CPU 0 instructions: 1950000316 cycles: 4620352527 heartbeat IPC: 0.4228 cumulative IPC: 0.422 (Simulation time: 08 hr 44 min 38 sec)
[ERROR_CYCLE] Error added at CPU cycle 4626270348, next at 4630114912, pending count: 1
[DRAM_CYCLE_ERROR] Cycle-based error applied! address=0x2c077eb60 additional_latency=173500 cycles
[ERROR_CYCLE] Error added at CPU cycle 4630114912, next at 4634197447, pending count: 1
[DRAM_CYCLE_ERROR] Cycle-based error applied! address=0xd9682bdb0 additional_latency=173500 cycles
[ERROR_CYCLE] Error added at CPU cycle 4634197448, next at 4651127829, pending count: 1
[DRAM_CYCLE_ERROR] Cycle-based error applied! address=0xd65042371 additional_latency=173500 cycles
Heartbeat CPU 0 instructions: 1960000319 cycles: 4643803937 heartbeat IPC: 0.4264 cumulative IPC: 0.4221 (Simulation time: 08 hr 47 min 12 sec)
[ERROR_CYCLE] Error added at CPU cycle 4651127829, next at 4670635255, pending count: 1
[DRAM_CYCLE_ERROR] Cycle-based error applied! address=0x166660df0 additional_latency=173500 cycles
Heartbeat CPU 0 instructions: 1970000319 cycles: 4667237611 heartbeat IPC: 0.4267 cumulative IPC: 0.4221 (Simulation time: 08 hr 49 min 45 sec)
[ERROR_CYCLE] Error added at CPU cycle 4670635255, next at 4677468434, pending count: 1
[DRAM_CYCLE_ERROR] Cycle-based error applied! address=0x637958cc0 additional_latency=173500 cycles
[ERROR_CYCLE] Error added at CPU cycle 4677468435, next at 4717250780, pending count: 1
[DRAM_CYCLE_ERROR] Cycle-based error applied! address=0x3385bc148 additional_latency=173500 cycles
Heartbeat CPU 0 instructions: 1980000319 cycles: 4690708227 heartbeat IPC: 0.4261 cumulative IPC: 0.4221 (Simulation time: 08 hr 52 min 15 sec)
Heartbeat CPU 0 instructions: 1990000319 cycles: 4713942687 heartbeat IPC: 0.4304 cumulative IPC: 0.4222 (Simulation time: 08 hr 55 min 03 sec)
[ERROR_CYCLE] Error added at CPU cycle 4717250781, next at 4720340496, pending count: 1
[DRAM_CYCLE_ERROR] Cycle-based error applied! address=0x97ecf9e26 additional_latency=173500 cycles
[ERROR_CYCLE] Error added at CPU cycle 4720340496, next at 4737956370, pending count: 1
[DRAM_CYCLE_ERROR] Cycle-based error applied! address=0xffdf060d8 additional_latency=173500 cycles

=== ERROR PAGE STATISTICS ===
Mode: CYCLE
Error Cycle Interval: 10000000 CPU cycles
Total Error Accesses: 485
==============================
Simulation finished CPU 0 instructions: 1999999986 cycles: 4737299890 cumulative IPC: 0.4222 (Simulation time: 08 hr 57 min 51 sec)
Simulation complete CPU 0 instructions: 1999999986 cycles: 4737299890 cumulative IPC: 0.4222 (Simulation time: 08 hr 57 min 51 sec)

ChampSim completed all CPUs

=== Simulation ===
CPU 0 runs test_traces/620.omnetpp_s-141B.champsimtrace.xz

Region of Interest Statistics

CPU 0 cumulative IPC: 0.4222 instructions: 1999999986 cycles: 4737299890
CPU 0 Branch Prediction Accuracy: 92.96% MPKI: 14.8 Average ROB Occupancy at Mispredict: 41.91
Branch type MPKI
BRANCH_DIRECT_JUMP: 0.8484
BRANCH_INDIRECT: 0.3555
BRANCH_CONDITIONAL: 12.32
BRANCH_DIRECT_CALL: 0.0001295
BRANCH_INDIRECT_CALL: 0.8457
BRANCH_RETURN: 0.4309

cpu0->cpu0_STLB TOTAL        ACCESS:   44698921 HIT:   35105362 MISS:    9593559 MSHR_MERGE:          0
cpu0->cpu0_STLB LOAD         ACCESS:   44698921 HIT:   35105362 MISS:    9593559 MSHR_MERGE:          0
cpu0->cpu0_STLB RFO          ACCESS:          0 HIT:          0 MISS:          0 MSHR_MERGE:          0
cpu0->cpu0_STLB PREFETCH     ACCESS:          0 HIT:          0 MISS:          0 MSHR_MERGE:          0
cpu0->cpu0_STLB WRITE        ACCESS:          0 HIT:          0 MISS:          0 MSHR_MERGE:          0
cpu0->cpu0_STLB TRANSLATION  ACCESS:          0 HIT:          0 MISS:          0 MSHR_MERGE:          0
cpu0->cpu0_STLB PREFETCH REQUESTED:          0 ISSUED:          0 USEFUL:          0 USELESS:          0
cpu0->cpu0_STLB AVERAGE MISS LATENCY: 214.2 cycles
cpu0->cpu0_L2C TOTAL        ACCESS:   56650672 HIT:   29468669 MISS:   27182003 MSHR_MERGE:          0
cpu0->cpu0_L2C LOAD         ACCESS:   33708924 HIT:   10152945 MISS:   23555979 MSHR_MERGE:          0
cpu0->cpu0_L2C RFO          ACCESS:    4838675 HIT:    1236870 MISS:    3601805 MSHR_MERGE:          0
cpu0->cpu0_L2C PREFETCH     ACCESS:          0 HIT:          0 MISS:          0 MSHR_MERGE:          0
cpu0->cpu0_L2C WRITE        ACCESS:   18103073 HIT:   18078854 MISS:      24219 MSHR_MERGE:          0
cpu0->cpu0_L2C TRANSLATION  ACCESS:          0 HIT:          0 MISS:          0 MSHR_MERGE:          0
cpu0->cpu0_L2C PREFETCH REQUESTED:          0 ISSUED:          0 USEFUL:          0 USELESS:          0
cpu0->cpu0_L2C AVERAGE MISS LATENCY: 89.93 cycles
cpu0->cpu0_L1I TOTAL        ACCESS:  269085818 HIT:  267369794 MISS:    1716024 MSHR_MERGE:     427024
cpu0->cpu0_L1I LOAD         ACCESS:  269085818 HIT:  267369794 MISS:    1716024 MSHR_MERGE:     427024
cpu0->cpu0_L1I RFO          ACCESS:          0 HIT:          0 MISS:          0 MSHR_MERGE:          0
cpu0->cpu0_L1I PREFETCH     ACCESS:          0 HIT:          0 MISS:          0 MSHR_MERGE:          0
cpu0->cpu0_L1I WRITE        ACCESS:          0 HIT:          0 MISS:          0 MSHR_MERGE:          0
cpu0->cpu0_L1I TRANSLATION  ACCESS:          0 HIT:          0 MISS:          0 MSHR_MERGE:          0
cpu0->cpu0_L1I PREFETCH REQUESTED:          0 ISSUED:          0 USEFUL:          0 USELESS:          0
cpu0->cpu0_L1I AVERAGE MISS LATENCY: 12.04 cycles
cpu0->cpu0_L1D TOTAL        ACCESS:  807226204 HIT:  750528573 MISS:   56697631 MSHR_MERGE:   19438939
cpu0->cpu0_L1D LOAD         ACCESS:  439367850 HIT:  396764076 MISS:   42603774 MSHR_MERGE:   10183779
cpu0->cpu0_L1D RFO          ACCESS:          0 HIT:          0 MISS:          0 MSHR_MERGE:          0
cpu0->cpu0_L1D PREFETCH     ACCESS:          0 HIT:          0 MISS:          0 MSHR_MERGE:          0
cpu0->cpu0_L1D WRITE        ACCESS:  367858354 HIT:  353764497 MISS:   14093857 MSHR_MERGE:    9255160
cpu0->cpu0_L1D TRANSLATION  ACCESS:          0 HIT:          0 MISS:          0 MSHR_MERGE:          0
cpu0->cpu0_L1D PREFETCH REQUESTED:          0 ISSUED:          0 USEFUL:          0 USELESS:          0
cpu0->cpu0_L1D AVERAGE MISS LATENCY: 74.26 cycles
cpu0->cpu0_ITLB TOTAL        ACCESS:  237500129 HIT:  231441929 MISS:    6058200 MSHR_MERGE:    2946179
cpu0->cpu0_ITLB LOAD         ACCESS:  237500129 HIT:  231441929 MISS:    6058200 MSHR_MERGE:    2946179
cpu0->cpu0_ITLB RFO          ACCESS:          0 HIT:          0 MISS:          0 MSHR_MERGE:          0
cpu0->cpu0_ITLB PREFETCH     ACCESS:          0 HIT:          0 MISS:          0 MSHR_MERGE:          0
cpu0->cpu0_ITLB WRITE        ACCESS:          0 HIT:          0 MISS:          0 MSHR_MERGE:          0
cpu0->cpu0_ITLB TRANSLATION  ACCESS:          0 HIT:          0 MISS:          0 MSHR_MERGE:          0
cpu0->cpu0_ITLB PREFETCH REQUESTED:          0 ISSUED:          0 USEFUL:          0 USELESS:          0
cpu0->cpu0_ITLB AVERAGE MISS LATENCY: 7.292 cycles
cpu0->cpu0_DTLB TOTAL        ACCESS:  695418969 HIT:  647436854 MISS:   47982115 MSHR_MERGE:    6395215
cpu0->cpu0_DTLB LOAD         ACCESS:  695418969 HIT:  647436854 MISS:   47982115 MSHR_MERGE:    6395215
cpu0->cpu0_DTLB RFO          ACCESS:          0 HIT:          0 MISS:          0 MSHR_MERGE:          0
cpu0->cpu0_DTLB PREFETCH     ACCESS:          0 HIT:          0 MISS:          0 MSHR_MERGE:          0
cpu0->cpu0_DTLB WRITE        ACCESS:          0 HIT:          0 MISS:          0 MSHR_MERGE:          0
cpu0->cpu0_DTLB TRANSLATION  ACCESS:          0 HIT:          0 MISS:          0 MSHR_MERGE:          0
cpu0->cpu0_DTLB PREFETCH REQUESTED:          0 ISSUED:          0 USEFUL:          0 USELESS:          0
cpu0->cpu0_DTLB AVERAGE MISS LATENCY: 54.49 cycles
cpu0->LLC TOTAL        ACCESS:   40319723 HIT:   19746537 MISS:   20573186 MSHR_MERGE:          0
cpu0->LLC LOAD         ACCESS:   23555978 HIT:    5189927 MISS:   18366051 MSHR_MERGE:          0
cpu0->LLC RFO          ACCESS:    3601805 HIT:    1443348 MISS:    2158457 MSHR_MERGE:          0
cpu0->LLC PREFETCH     ACCESS:          0 HIT:          0 MISS:          0 MSHR_MERGE:          0
cpu0->LLC WRITE        ACCESS:   13161940 HIT:   13113262 MISS:      48678 MSHR_MERGE:          0
cpu0->LLC TRANSLATION  ACCESS:          0 HIT:          0 MISS:          0 MSHR_MERGE:          0
cpu0->LLC PREFETCH REQUESTED:          0 ISSUED:          0 USEFUL:          0 USELESS:          0
cpu0->LLC AVERAGE MISS LATENCY: 98.04 cycles

DRAM Statistics

Channel 0 RQ ROW_BUFFER_HIT:     431455
  ROW_BUFFER_MISS:   21050915
  AVG DBUS CONGESTED CYCLE: 13.5
Channel 0 WQ ROW_BUFFER_HIT:     983906
  ROW_BUFFER_MISS:    3760667
  FULL:          0
Channel 0 REFRESHES ISSUED:     394749

Channel 1 RQ ROW_BUFFER_HIT:     476620
  ROW_BUFFER_MISS:   21562185
  AVG DBUS CONGESTED CYCLE: 13.49
Channel 1 WQ ROW_BUFFER_HIT:     992689
  ROW_BUFFER_MISS:    3767027
  FULL:          0
Channel 1 REFRESHES ISSUED:     394749
