
*** ChampSim Multicore Out-of-Order Simulator ***
Warmup Instructions: 0
Simulation Instructions: 9223372036854775807
Number of CPUs: 1
Page size: 2097152

Off-chip DRAM Size: 64 GiB Channels: 2 Width: 32-bit Data Rate: 4807 MT/s
[ERROR_PAGE_MANAGER] Error latency: 1990500 
[ERROR_PAGE_MANAGER] Random seed: 54321 (fixed for preload reproducibility)
[ERROR_PAGE_MANAGER] Cycle-based error modeling enabled
[ERROR_PAGE_MANAGER] Errors per interval: 1
[ERROR_PAGE_MANAGER] Error cycle interval: 100000000 cycles

=== ERROR PAGE STATISTICS ===
Mode: CYCLE
Error Cycle Interval: 100000000 CPU cycles
Total Error Accesses: 0
==============================
Warmup finished CPU 0 instructions: 0 cycles: 1 cumulative IPC: 0 (Simulation time: 00 hr 00 min 00 sec)
Warmup complete CPU 0 instructions: 0 cycles: 1 cumulative IPC: 0 (Simulation time: 00 hr 00 min 00 sec)
Heartbeat CPU 0 instructions: 10000004 cycles: 7845553 heartbeat IPC: 1.275 cumulative IPC: 1.275 (Simulation time: 00 hr 01 min 13 sec)
Heartbeat CPU 0 instructions: 20000004 cycles: 15655282 heartbeat IPC: 1.28 cumulative IPC: 1.278 (Simulation time: 00 hr 02 min 21 sec)
Heartbeat CPU 0 instructions: 30000005 cycles: 23861547 heartbeat IPC: 1.219 cumulative IPC: 1.257 (Simulation time: 00 hr 03 min 27 sec)
Heartbeat CPU 0 instructions: 40000008 cycles: 31936214 heartbeat IPC: 1.238 cumulative IPC: 1.252 (Simulation time: 00 hr 04 min 42 sec)
Heartbeat CPU 0 instructions: 50000009 cycles: 39985625 heartbeat IPC: 1.242 cumulative IPC: 1.25 (Simulation time: 00 hr 05 min 57 sec)
Heartbeat CPU 0 instructions: 60000010 cycles: 47899830 heartbeat IPC: 1.264 cumulative IPC: 1.253 (Simulation time: 00 hr 07 min 03 sec)
Heartbeat CPU 0 instructions: 70000013 cycles: 55629305 heartbeat IPC: 1.294 cumulative IPC: 1.258 (Simulation time: 00 hr 08 min 06 sec)
Heartbeat CPU 0 instructions: 80000013 cycles: 63378154 heartbeat IPC: 1.291 cumulative IPC: 1.262 (Simulation time: 00 hr 08 min 56 sec)
Heartbeat CPU 0 instructions: 90000014 cycles: 71112435 heartbeat IPC: 1.293 cumulative IPC: 1.266 (Simulation time: 00 hr 09 min 48 sec)
[ERROR_CYCLE] Error added at CPU cycle 71278057, next at 91533063, pending count: 1
[DRAM_CYCLE_ERROR] Cycle-based error applied! address=0xab2fb03c0 additional_latency=1990500 cycles
Heartbeat CPU 0 instructions: 100000015 cycles: 78908596 heartbeat IPC: 1.283 cumulative IPC: 1.267 (Simulation time: 00 hr 10 min 43 sec)
Heartbeat CPU 0 instructions: 110000018 cycles: 87039132 heartbeat IPC: 1.23 cumulative IPC: 1.264 (Simulation time: 00 hr 11 min 44 sec)
[ERROR_CYCLE] Error added at CPU cycle 91533064, next at 256960641, pending count: 1
[DRAM_CYCLE_ERROR] Cycle-based error applied! address=0xc4553f680 additional_latency=1990500 cycles
Heartbeat CPU 0 instructions: 120000022 cycles: 95084259 heartbeat IPC: 1.243 cumulative IPC: 1.262 (Simulation time: 00 hr 12 min 42 sec)
Heartbeat CPU 0 instructions: 130000024 cycles: 103045299 heartbeat IPC: 1.256 cumulative IPC: 1.262 (Simulation time: 00 hr 13 min 49 sec)
Heartbeat CPU 0 instructions: 140000025 cycles: 111337013 heartbeat IPC: 1.206 cumulative IPC: 1.257 (Simulation time: 00 hr 15 min 04 sec)
Heartbeat CPU 0 instructions: 150000028 cycles: 119272274 heartbeat IPC: 1.26 cumulative IPC: 1.258 (Simulation time: 00 hr 16 min 08 sec)
Heartbeat CPU 0 instructions: 160000029 cycles: 127488804 heartbeat IPC: 1.217 cumulative IPC: 1.255 (Simulation time: 00 hr 17 min 22 sec)
Heartbeat CPU 0 instructions: 170000032 cycles: 135486724 heartbeat IPC: 1.25 cumulative IPC: 1.255 (Simulation time: 00 hr 18 min 23 sec)
Heartbeat CPU 0 instructions: 180000035 cycles: 143469927 heartbeat IPC: 1.253 cumulative IPC: 1.255 (Simulation time: 00 hr 19 min 25 sec)
Heartbeat CPU 0 instructions: 190000037 cycles: 151688766 heartbeat IPC: 1.217 cumulative IPC: 1.253 (Simulation time: 00 hr 20 min 41 sec)
Heartbeat CPU 0 instructions: 200000039 cycles: 159636690 heartbeat IPC: 1.258 cumulative IPC: 1.253 (Simulation time: 00 hr 21 min 56 sec)
Heartbeat CPU 0 instructions: 210000042 cycles: 167327904 heartbeat IPC: 1.3 cumulative IPC: 1.255 (Simulation time: 00 hr 23 min 08 sec)
Heartbeat CPU 0 instructions: 220000046 cycles: 175494815 heartbeat IPC: 1.224 cumulative IPC: 1.254 (Simulation time: 00 hr 24 min 08 sec)
Heartbeat CPU 0 instructions: 230000048 cycles: 183725657 heartbeat IPC: 1.215 cumulative IPC: 1.252 (Simulation time: 00 hr 25 min 07 sec)
Heartbeat CPU 0 instructions: 240000049 cycles: 191541051 heartbeat IPC: 1.28 cumulative IPC: 1.253 (Simulation time: 00 hr 26 min 09 sec)
Heartbeat CPU 0 instructions: 250000050 cycles: 199260692 heartbeat IPC: 1.295 cumulative IPC: 1.255 (Simulation time: 00 hr 27 min 23 sec)
Heartbeat CPU 0 instructions: 260000052 cycles: 207031355 heartbeat IPC: 1.287 cumulative IPC: 1.256 (Simulation time: 00 hr 28 min 23 sec)
Heartbeat CPU 0 instructions: 270000054 cycles: 214747301 heartbeat IPC: 1.296 cumulative IPC: 1.257 (Simulation time: 00 hr 29 min 26 sec)
Heartbeat CPU 0 instructions: 280000055 cycles: 222788424 heartbeat IPC: 1.244 cumulative IPC: 1.257 (Simulation time: 00 hr 30 min 27 sec)
Heartbeat CPU 0 instructions: 290000059 cycles: 230635320 heartbeat IPC: 1.274 cumulative IPC: 1.257 (Simulation time: 00 hr 31 min 24 sec)
Heartbeat CPU 0 instructions: 300000062 cycles: 238525868 heartbeat IPC: 1.267 cumulative IPC: 1.258 (Simulation time: 00 hr 32 min 15 sec)
Heartbeat CPU 0 instructions: 310000062 cycles: 246205825 heartbeat IPC: 1.302 cumulative IPC: 1.259 (Simulation time: 00 hr 33 min 16 sec)
Heartbeat CPU 0 instructions: 320000065 cycles: 253912372 heartbeat IPC: 1.298 cumulative IPC: 1.26 (Simulation time: 00 hr 34 min 12 sec)
[ERROR_CYCLE] Error added at CPU cycle 256960642, next at 534676898, pending count: 1
[DRAM_CYCLE_ERROR] Cycle-based error applied! address=0xf4a9699c0 additional_latency=1990500 cycles
Heartbeat CPU 0 instructions: 330000065 cycles: 261696827 heartbeat IPC: 1.285 cumulative IPC: 1.261 (Simulation time: 00 hr 35 min 01 sec)
Heartbeat CPU 0 instructions: 340000066 cycles: 269572795 heartbeat IPC: 1.27 cumulative IPC: 1.261 (Simulation time: 00 hr 35 min 50 sec)
Heartbeat CPU 0 instructions: 350000070 cycles: 277283086 heartbeat IPC: 1.297 cumulative IPC: 1.262 (Simulation time: 00 hr 36 min 38 sec)
Heartbeat CPU 0 instructions: 360000070 cycles: 285050861 heartbeat IPC: 1.287 cumulative IPC: 1.263 (Simulation time: 00 hr 37 min 43 sec)
Heartbeat CPU 0 instructions: 370000071 cycles: 292791495 heartbeat IPC: 1.292 cumulative IPC: 1.264 (Simulation time: 00 hr 38 min 56 sec)
Heartbeat CPU 0 instructions: 380000075 cycles: 300989165 heartbeat IPC: 1.22 cumulative IPC: 1.263 (Simulation time: 00 hr 39 min 53 sec)
Heartbeat CPU 0 instructions: 390000077 cycles: 308758581 heartbeat IPC: 1.287 cumulative IPC: 1.263 (Simulation time: 00 hr 40 min 48 sec)
Heartbeat CPU 0 instructions: 400000078 cycles: 316485466 heartbeat IPC: 1.294 cumulative IPC: 1.264 (Simulation time: 00 hr 41 min 50 sec)
Heartbeat CPU 0 instructions: 410000081 cycles: 324252464 heartbeat IPC: 1.287 cumulative IPC: 1.264 (Simulation time: 00 hr 42 min 49 sec)
Heartbeat CPU 0 instructions: 420000081 cycles: 332024791 heartbeat IPC: 1.287 cumulative IPC: 1.265 (Simulation time: 00 hr 43 min 47 sec)
Heartbeat CPU 0 instructions: 430000081 cycles: 339790846 heartbeat IPC: 1.288 cumulative IPC: 1.265 (Simulation time: 00 hr 44 min 51 sec)
Heartbeat CPU 0 instructions: 440000085 cycles: 347498248 heartbeat IPC: 1.297 cumulative IPC: 1.266 (Simulation time: 00 hr 46 min 01 sec)
Heartbeat CPU 0 instructions: 450000086 cycles: 355159326 heartbeat IPC: 1.305 cumulative IPC: 1.267 (Simulation time: 00 hr 47 min 14 sec)
Heartbeat CPU 0 instructions: 460000087 cycles: 363034379 heartbeat IPC: 1.27 cumulative IPC: 1.267 (Simulation time: 00 hr 48 min 25 sec)
Heartbeat CPU 0 instructions: 470000088 cycles: 370751470 heartbeat IPC: 1.296 cumulative IPC: 1.268 (Simulation time: 00 hr 49 min 36 sec)
Heartbeat CPU 0 instructions: 480000088 cycles: 378440736 heartbeat IPC: 1.301 cumulative IPC: 1.268 (Simulation time: 00 hr 50 min 46 sec)
Heartbeat CPU 0 instructions: 490000091 cycles: 386252068 heartbeat IPC: 1.28 cumulative IPC: 1.269 (Simulation time: 00 hr 51 min 57 sec)
Heartbeat CPU 0 instructions: 500000092 cycles: 394221761 heartbeat IPC: 1.255 cumulative IPC: 1.268 (Simulation time: 00 hr 53 min 09 sec)
Heartbeat CPU 0 instructions: 510000092 cycles: 401969893 heartbeat IPC: 1.291 cumulative IPC: 1.269 (Simulation time: 00 hr 54 min 20 sec)
Heartbeat CPU 0 instructions: 520000096 cycles: 409771531 heartbeat IPC: 1.282 cumulative IPC: 1.269 (Simulation time: 00 hr 55 min 30 sec)
Heartbeat CPU 0 instructions: 530000100 cycles: 417572170 heartbeat IPC: 1.282 cumulative IPC: 1.269 (Simulation time: 00 hr 56 min 37 sec)
Heartbeat CPU 0 instructions: 540000102 cycles: 425396630 heartbeat IPC: 1.278 cumulative IPC: 1.269 (Simulation time: 00 hr 57 min 49 sec)
Heartbeat CPU 0 instructions: 550000103 cycles: 433101948 heartbeat IPC: 1.298 cumulative IPC: 1.27 (Simulation time: 00 hr 59 min 00 sec)
Heartbeat CPU 0 instructions: 560000106 cycles: 440873351 heartbeat IPC: 1.287 cumulative IPC: 1.27 (Simulation time: 00 hr 59 min 55 sec)
Heartbeat CPU 0 instructions: 570000107 cycles: 448884449 heartbeat IPC: 1.248 cumulative IPC: 1.27 (Simulation time: 01 hr 00 min 48 sec)
Heartbeat CPU 0 instructions: 580000111 cycles: 456613766 heartbeat IPC: 1.294 cumulative IPC: 1.27 (Simulation time: 01 hr 01 min 49 sec)
Heartbeat CPU 0 instructions: 590000112 cycles: 464620125 heartbeat IPC: 1.249 cumulative IPC: 1.27 (Simulation time: 01 hr 03 min 04 sec)
Heartbeat CPU 0 instructions: 600000113 cycles: 472336072 heartbeat IPC: 1.296 cumulative IPC: 1.27 (Simulation time: 01 hr 04 min 17 sec)
Heartbeat CPU 0 instructions: 610000117 cycles: 480302663 heartbeat IPC: 1.255 cumulative IPC: 1.27 (Simulation time: 01 hr 05 min 31 sec)
Heartbeat CPU 0 instructions: 620000118 cycles: 488113559 heartbeat IPC: 1.28 cumulative IPC: 1.27 (Simulation time: 01 hr 06 min 42 sec)
Heartbeat CPU 0 instructions: 630000120 cycles: 496269050 heartbeat IPC: 1.226 cumulative IPC: 1.269 (Simulation time: 01 hr 07 min 57 sec)
Heartbeat CPU 0 instructions: 640000121 cycles: 504325156 heartbeat IPC: 1.241 cumulative IPC: 1.269 (Simulation time: 01 hr 09 min 10 sec)
Heartbeat CPU 0 instructions: 650000122 cycles: 512418515 heartbeat IPC: 1.236 cumulative IPC: 1.268 (Simulation time: 01 hr 10 min 24 sec)
Heartbeat CPU 0 instructions: 660000123 cycles: 520084835 heartbeat IPC: 1.304 cumulative IPC: 1.269 (Simulation time: 01 hr 11 min 35 sec)
Heartbeat CPU 0 instructions: 670000127 cycles: 527685747 heartbeat IPC: 1.316 cumulative IPC: 1.27 (Simulation time: 01 hr 12 min 45 sec)
[ERROR_CYCLE] Error added at CPU cycle 534676899, next at 537682250, pending count: 1
[DRAM_CYCLE_ERROR] Cycle-based error applied! address=0xc552824c0 additional_latency=1990500 cycles
Heartbeat CPU 0 instructions: 680000128 cycles: 535441647 heartbeat IPC: 1.289 cumulative IPC: 1.27 (Simulation time: 01 hr 13 min 56 sec)
[ERROR_CYCLE] Error added at CPU cycle 537682251, next at 691386421, pending count: 1
[DRAM_CYCLE_ERROR] Cycle-based error applied! address=0x365ebe100 additional_latency=1990500 cycles
Heartbeat CPU 0 instructions: 690000131 cycles: 543562619 heartbeat IPC: 1.231 cumulative IPC: 1.269 (Simulation time: 01 hr 14 min 49 sec)
Heartbeat CPU 0 instructions: 700000133 cycles: 551410343 heartbeat IPC: 1.274 cumulative IPC: 1.269 (Simulation time: 01 hr 15 min 54 sec)
Heartbeat CPU 0 instructions: 710000134 cycles: 559084981 heartbeat IPC: 1.303 cumulative IPC: 1.27 (Simulation time: 01 hr 16 min 57 sec)
Heartbeat CPU 0 instructions: 720000138 cycles: 566714106 heartbeat IPC: 1.311 cumulative IPC: 1.27 (Simulation time: 01 hr 17 min 51 sec)
Heartbeat CPU 0 instructions: 730000140 cycles: 574394812 heartbeat IPC: 1.302 cumulative IPC: 1.271 (Simulation time: 01 hr 18 min 41 sec)
Heartbeat CPU 0 instructions: 740000140 cycles: 582115268 heartbeat IPC: 1.295 cumulative IPC: 1.271 (Simulation time: 01 hr 19 min 48 sec)
Heartbeat CPU 0 instructions: 750000144 cycles: 590198527 heartbeat IPC: 1.237 cumulative IPC: 1.271 (Simulation time: 01 hr 21 min 03 sec)
Heartbeat CPU 0 instructions: 760000145 cycles: 598255906 heartbeat IPC: 1.241 cumulative IPC: 1.27 (Simulation time: 01 hr 22 min 01 sec)
Heartbeat CPU 0 instructions: 770000145 cycles: 606262462 heartbeat IPC: 1.249 cumulative IPC: 1.27 (Simulation time: 01 hr 22 min 52 sec)
Heartbeat CPU 0 instructions: 780000147 cycles: 614214331 heartbeat IPC: 1.258 cumulative IPC: 1.27 (Simulation time: 01 hr 23 min 57 sec)
Heartbeat CPU 0 instructions: 790000148 cycles: 621922839 heartbeat IPC: 1.297 cumulative IPC: 1.27 (Simulation time: 01 hr 25 min 09 sec)
Heartbeat CPU 0 instructions: 800000150 cycles: 629811199 heartbeat IPC: 1.268 cumulative IPC: 1.27 (Simulation time: 01 hr 26 min 18 sec)
Heartbeat CPU 0 instructions: 810000153 cycles: 637946423 heartbeat IPC: 1.229 cumulative IPC: 1.27 (Simulation time: 01 hr 27 min 14 sec)
Heartbeat CPU 0 instructions: 820000154 cycles: 645752617 heartbeat IPC: 1.281 cumulative IPC: 1.27 (Simulation time: 01 hr 28 min 16 sec)
Heartbeat CPU 0 instructions: 830000157 cycles: 653591353 heartbeat IPC: 1.276 cumulative IPC: 1.27 (Simulation time: 01 hr 29 min 16 sec)
Heartbeat CPU 0 instructions: 840000159 cycles: 661473791 heartbeat IPC: 1.269 cumulative IPC: 1.27 (Simulation time: 01 hr 30 min 22 sec)
Heartbeat CPU 0 instructions: 850000162 cycles: 669296399 heartbeat IPC: 1.278 cumulative IPC: 1.27 (Simulation time: 01 hr 31 min 32 sec)
Heartbeat CPU 0 instructions: 860000162 cycles: 677054733 heartbeat IPC: 1.289 cumulative IPC: 1.27 (Simulation time: 01 hr 32 min 31 sec)
Heartbeat CPU 0 instructions: 870000163 cycles: 684732483 heartbeat IPC: 1.302 cumulative IPC: 1.271 (Simulation time: 01 hr 33 min 28 sec)
[ERROR_CYCLE] Error added at CPU cycle 691386422, next at 709284434, pending count: 1
[DRAM_CYCLE_ERROR] Cycle-based error applied! address=0x5d0a1de40 additional_latency=1990500 cycles
Heartbeat CPU 0 instructions: 880000164 cycles: 692442203 heartbeat IPC: 1.297 cumulative IPC: 1.271 (Simulation time: 01 hr 34 min 33 sec)
Heartbeat CPU 0 instructions: 890000167 cycles: 700074005 heartbeat IPC: 1.31 cumulative IPC: 1.271 (Simulation time: 01 hr 35 min 40 sec)
Heartbeat CPU 0 instructions: 900000167 cycles: 707704542 heartbeat IPC: 1.311 cumulative IPC: 1.272 (Simulation time: 01 hr 36 min 47 sec)
[ERROR_CYCLE] Error added at CPU cycle 709284434, next at 766174217, pending count: 1
[DRAM_CYCLE_ERROR] Cycle-based error applied! address=0xba4bd53c0 additional_latency=1990500 cycles
Heartbeat CPU 0 instructions: 910000170 cycles: 715457061 heartbeat IPC: 1.29 cumulative IPC: 1.272 (Simulation time: 01 hr 37 min 58 sec)
Heartbeat CPU 0 instructions: 920000172 cycles: 723702138 heartbeat IPC: 1.213 cumulative IPC: 1.271 (Simulation time: 01 hr 39 min 14 sec)
Heartbeat CPU 0 instructions: 930000172 cycles: 731660664 heartbeat IPC: 1.257 cumulative IPC: 1.271 (Simulation time: 01 hr 40 min 29 sec)
Heartbeat CPU 0 instructions: 940000173 cycles: 739863833 heartbeat IPC: 1.219 cumulative IPC: 1.271 (Simulation time: 01 hr 41 min 33 sec)
Heartbeat CPU 0 instructions: 950000174 cycles: 748066972 heartbeat IPC: 1.219 cumulative IPC: 1.27 (Simulation time: 01 hr 42 min 31 sec)
Heartbeat CPU 0 instructions: 960000175 cycles: 756086392 heartbeat IPC: 1.247 cumulative IPC: 1.27 (Simulation time: 01 hr 43 min 47 sec)
Heartbeat CPU 0 instructions: 970000177 cycles: 764302248 heartbeat IPC: 1.217 cumulative IPC: 1.269 (Simulation time: 01 hr 44 min 47 sec)
[ERROR_CYCLE] Error added at CPU cycle 766174218, next at 851568605, pending count: 1
[DRAM_CYCLE_ERROR] Cycle-based error applied! address=0x5ba64e180 additional_latency=1990500 cycles
Heartbeat CPU 0 instructions: 980000178 cycles: 772566060 heartbeat IPC: 1.21 cumulative IPC: 1.269 (Simulation time: 01 hr 45 min 51 sec)
Heartbeat CPU 0 instructions: 990000178 cycles: 780464525 heartbeat IPC: 1.266 cumulative IPC: 1.268 (Simulation time: 01 hr 46 min 51 sec)
Heartbeat CPU 0 instructions: 1000000180 cycles: 788554645 heartbeat IPC: 1.236 cumulative IPC: 1.268 (Simulation time: 01 hr 47 min 41 sec)
Heartbeat CPU 0 instructions: 1010000181 cycles: 796330843 heartbeat IPC: 1.286 cumulative IPC: 1.268 (Simulation time: 01 hr 48 min 51 sec)
Heartbeat CPU 0 instructions: 1020000183 cycles: 804227451 heartbeat IPC: 1.266 cumulative IPC: 1.268 (Simulation time: 01 hr 50 min 06 sec)
Heartbeat CPU 0 instructions: 1030000184 cycles: 812615729 heartbeat IPC: 1.192 cumulative IPC: 1.268 (Simulation time: 01 hr 51 min 25 sec)
Heartbeat CPU 0 instructions: 1040000185 cycles: 820306240 heartbeat IPC: 1.3 cumulative IPC: 1.268 (Simulation time: 01 hr 52 min 38 sec)
Heartbeat CPU 0 instructions: 1050000186 cycles: 828313421 heartbeat IPC: 1.249 cumulative IPC: 1.268 (Simulation time: 01 hr 53 min 52 sec)
Heartbeat CPU 0 instructions: 1060000190 cycles: 835949216 heartbeat IPC: 1.31 cumulative IPC: 1.268 (Simulation time: 01 hr 54 min 55 sec)
Heartbeat CPU 0 instructions: 1070000194 cycles: 843633951 heartbeat IPC: 1.301 cumulative IPC: 1.268 (Simulation time: 01 hr 56 min 07 sec)
Heartbeat CPU 0 instructions: 1080000194 cycles: 851295476 heartbeat IPC: 1.305 cumulative IPC: 1.269 (Simulation time: 01 hr 57 min 17 sec)
[ERROR_CYCLE] Error added at CPU cycle 851568605, next at 876033762, pending count: 1
[DRAM_CYCLE_ERROR] Cycle-based error applied! address=0xd606030c0 additional_latency=1990500 cycles
Heartbeat CPU 0 instructions: 1090000194 cycles: 858930754 heartbeat IPC: 1.31 cumulative IPC: 1.269 (Simulation time: 01 hr 58 min 30 sec)
Heartbeat CPU 0 instructions: 1100000194 cycles: 866633173 heartbeat IPC: 1.298 cumulative IPC: 1.269 (Simulation time: 01 hr 59 min 43 sec)
Heartbeat CPU 0 instructions: 1110000198 cycles: 874330385 heartbeat IPC: 1.299 cumulative IPC: 1.27 (Simulation time: 02 hr 00 min 57 sec)
[ERROR_CYCLE] Error added at CPU cycle 876033763, next at 1053629556, pending count: 1
[DRAM_CYCLE_ERROR] Cycle-based error applied! address=0xc9035b00 additional_latency=1990500 cycles
Heartbeat CPU 0 instructions: 1120000200 cycles: 882258410 heartbeat IPC: 1.261 cumulative IPC: 1.269 (Simulation time: 02 hr 02 min 11 sec)
Heartbeat CPU 0 instructions: 1130000201 cycles: 890134020 heartbeat IPC: 1.27 cumulative IPC: 1.269 (Simulation time: 02 hr 03 min 25 sec)
Heartbeat CPU 0 instructions: 1140000204 cycles: 897871460 heartbeat IPC: 1.292 cumulative IPC: 1.27 (Simulation time: 02 hr 04 min 39 sec)
Heartbeat CPU 0 instructions: 1150000204 cycles: 905606346 heartbeat IPC: 1.293 cumulative IPC: 1.27 (Simulation time: 02 hr 05 min 52 sec)
Heartbeat CPU 0 instructions: 1160000206 cycles: 913469251 heartbeat IPC: 1.272 cumulative IPC: 1.27 (Simulation time: 02 hr 07 min 06 sec)
Heartbeat CPU 0 instructions: 1170000207 cycles: 921363250 heartbeat IPC: 1.267 cumulative IPC: 1.27 (Simulation time: 02 hr 08 min 20 sec)
Heartbeat CPU 0 instructions: 1180000209 cycles: 929038440 heartbeat IPC: 1.303 cumulative IPC: 1.27 (Simulation time: 02 hr 09 min 33 sec)
Heartbeat CPU 0 instructions: 1190000210 cycles: 936747652 heartbeat IPC: 1.297 cumulative IPC: 1.27 (Simulation time: 02 hr 10 min 46 sec)
Heartbeat CPU 0 instructions: 1200000211 cycles: 944508535 heartbeat IPC: 1.289 cumulative IPC: 1.271 (Simulation time: 02 hr 12 min 00 sec)
Heartbeat CPU 0 instructions: 1210000211 cycles: 952281120 heartbeat IPC: 1.287 cumulative IPC: 1.271 (Simulation time: 02 hr 13 min 13 sec)
Heartbeat CPU 0 instructions: 1220000214 cycles: 960257244 heartbeat IPC: 1.254 cumulative IPC: 1.27 (Simulation time: 02 hr 14 min 28 sec)
Heartbeat CPU 0 instructions: 1230000215 cycles: 968118740 heartbeat IPC: 1.272 cumulative IPC: 1.271 (Simulation time: 02 hr 15 min 43 sec)
Heartbeat CPU 0 instructions: 1240000215 cycles: 976015890 heartbeat IPC: 1.266 cumulative IPC: 1.27 (Simulation time: 02 hr 16 min 57 sec)
Heartbeat CPU 0 instructions: 1250000219 cycles: 983704440 heartbeat IPC: 1.301 cumulative IPC: 1.271 (Simulation time: 02 hr 18 min 10 sec)
Heartbeat CPU 0 instructions: 1260000220 cycles: 991649855 heartbeat IPC: 1.259 cumulative IPC: 1.271 (Simulation time: 02 hr 19 min 26 sec)
Heartbeat CPU 0 instructions: 1270000220 cycles: 999707465 heartbeat IPC: 1.241 cumulative IPC: 1.27 (Simulation time: 02 hr 20 min 42 sec)
Heartbeat CPU 0 instructions: 1280000221 cycles: 1007485998 heartbeat IPC: 1.286 cumulative IPC: 1.27 (Simulation time: 02 hr 21 min 56 sec)
Heartbeat CPU 0 instructions: 1290000222 cycles: 1015192531 heartbeat IPC: 1.298 cumulative IPC: 1.271 (Simulation time: 02 hr 23 min 09 sec)
Heartbeat CPU 0 instructions: 1300000225 cycles: 1023237076 heartbeat IPC: 1.243 cumulative IPC: 1.27 (Simulation time: 02 hr 24 min 25 sec)
Heartbeat CPU 0 instructions: 1310000229 cycles: 1031151453 heartbeat IPC: 1.264 cumulative IPC: 1.27 (Simulation time: 02 hr 25 min 39 sec)
Heartbeat CPU 0 instructions: 1320000231 cycles: 1039406974 heartbeat IPC: 1.211 cumulative IPC: 1.27 (Simulation time: 02 hr 26 min 57 sec)
Heartbeat CPU 0 instructions: 1330000231 cycles: 1047633343 heartbeat IPC: 1.216 cumulative IPC: 1.27 (Simulation time: 02 hr 28 min 14 sec)
[ERROR_CYCLE] Error added at CPU cycle 1053629556, next at 1089231385, pending count: 1
[DRAM_CYCLE_ERROR] Cycle-based error applied! address=0xa6d2ba540 additional_latency=1990500 cycles
Heartbeat CPU 0 instructions: 1340000232 cycles: 1055842221 heartbeat IPC: 1.218 cumulative IPC: 1.269 (Simulation time: 02 hr 29 min 30 sec)
Heartbeat CPU 0 instructions: 1350000236 cycles: 1064013120 heartbeat IPC: 1.224 cumulative IPC: 1.269 (Simulation time: 02 hr 30 min 47 sec)
Heartbeat CPU 0 instructions: 1360000237 cycles: 1071779553 heartbeat IPC: 1.288 cumulative IPC: 1.269 (Simulation time: 02 hr 32 min 00 sec)
Heartbeat CPU 0 instructions: 1370000241 cycles: 1079523063 heartbeat IPC: 1.291 cumulative IPC: 1.269 (Simulation time: 02 hr 33 min 00 sec)
Heartbeat CPU 0 instructions: 1380000241 cycles: 1087228916 heartbeat IPC: 1.298 cumulative IPC: 1.269 (Simulation time: 02 hr 34 min 13 sec)
[ERROR_CYCLE] Error added at CPU cycle 1089231385, next at 1133989996, pending count: 1
[DRAM_CYCLE_ERROR] Cycle-based error applied! address=0x2d6cc7e40 additional_latency=1990500 cycles
Heartbeat CPU 0 instructions: 1390000244 cycles: 1094966696 heartbeat IPC: 1.292 cumulative IPC: 1.269 (Simulation time: 02 hr 35 min 19 sec)
Heartbeat CPU 0 instructions: 1400000247 cycles: 1103099405 heartbeat IPC: 1.23 cumulative IPC: 1.269 (Simulation time: 02 hr 36 min 26 sec)
Heartbeat CPU 0 instructions: 1410000248 cycles: 1111338989 heartbeat IPC: 1.214 cumulative IPC: 1.269 (Simulation time: 02 hr 37 min 42 sec)
Heartbeat CPU 0 instructions: 1420000252 cycles: 1119210570 heartbeat IPC: 1.27 cumulative IPC: 1.269 (Simulation time: 02 hr 38 min 55 sec)
Heartbeat CPU 0 instructions: 1430000252 cycles: 1126991060 heartbeat IPC: 1.285 cumulative IPC: 1.269 (Simulation time: 02 hr 40 min 08 sec)
[ERROR_CYCLE] Error added at CPU cycle 1133989996, next at 1337518358, pending count: 1
[DRAM_CYCLE_ERROR] Cycle-based error applied! address=0xf725374c0 additional_latency=1990500 cycles
Heartbeat CPU 0 instructions: 1440000252 cycles: 1134664438 heartbeat IPC: 1.303 cumulative IPC: 1.269 (Simulation time: 02 hr 41 min 20 sec)
Heartbeat CPU 0 instructions: 1450000253 cycles: 1142331785 heartbeat IPC: 1.304 cumulative IPC: 1.269 (Simulation time: 02 hr 42 min 32 sec)
Heartbeat CPU 0 instructions: 1460000254 cycles: 1150092430 heartbeat IPC: 1.289 cumulative IPC: 1.269 (Simulation time: 02 hr 43 min 44 sec)
Heartbeat CPU 0 instructions: 1470000255 cycles: 1158024380 heartbeat IPC: 1.261 cumulative IPC: 1.269 (Simulation time: 02 hr 44 min 57 sec)
Heartbeat CPU 0 instructions: 1480000255 cycles: 1166113191 heartbeat IPC: 1.236 cumulative IPC: 1.269 (Simulation time: 02 hr 46 min 12 sec)
Heartbeat CPU 0 instructions: 1490000258 cycles: 1173925582 heartbeat IPC: 1.28 cumulative IPC: 1.269 (Simulation time: 02 hr 47 min 25 sec)
Heartbeat CPU 0 instructions: 1500000259 cycles: 1181660929 heartbeat IPC: 1.293 cumulative IPC: 1.269 (Simulation time: 02 hr 48 min 32 sec)
Heartbeat CPU 0 instructions: 1510000262 cycles: 1189658920 heartbeat IPC: 1.25 cumulative IPC: 1.269 (Simulation time: 02 hr 49 min 42 sec)
Heartbeat CPU 0 instructions: 1520000266 cycles: 1197862231 heartbeat IPC: 1.219 cumulative IPC: 1.269 (Simulation time: 02 hr 50 min 55 sec)
Heartbeat CPU 0 instructions: 1530000268 cycles: 1206020285 heartbeat IPC: 1.226 cumulative IPC: 1.269 (Simulation time: 02 hr 52 min 01 sec)
Heartbeat CPU 0 instructions: 1540000269 cycles: 1214268364 heartbeat IPC: 1.212 cumulative IPC: 1.268 (Simulation time: 02 hr 53 min 18 sec)
Heartbeat CPU 0 instructions: 1550000271 cycles: 1222403441 heartbeat IPC: 1.229 cumulative IPC: 1.268 (Simulation time: 02 hr 54 min 34 sec)
Heartbeat CPU 0 instructions: 1560000273 cycles: 1230302084 heartbeat IPC: 1.266 cumulative IPC: 1.268 (Simulation time: 02 hr 55 min 49 sec)
Heartbeat CPU 0 instructions: 1570000273 cycles: 1238262042 heartbeat IPC: 1.256 cumulative IPC: 1.268 (Simulation time: 02 hr 57 min 03 sec)
Heartbeat CPU 0 instructions: 1580000274 cycles: 1245884474 heartbeat IPC: 1.312 cumulative IPC: 1.268 (Simulation time: 02 hr 58 min 16 sec)
Heartbeat CPU 0 instructions: 1590000277 cycles: 1253686238 heartbeat IPC: 1.282 cumulative IPC: 1.268 (Simulation time: 02 hr 59 min 30 sec)
Heartbeat CPU 0 instructions: 1600000278 cycles: 1261506304 heartbeat IPC: 1.279 cumulative IPC: 1.268 (Simulation time: 03 hr 00 min 33 sec)
Heartbeat CPU 0 instructions: 1610000279 cycles: 1269227697 heartbeat IPC: 1.295 cumulative IPC: 1.268 (Simulation time: 03 hr 01 min 41 sec)
Heartbeat CPU 0 instructions: 1620000279 cycles: 1276894846 heartbeat IPC: 1.304 cumulative IPC: 1.269 (Simulation time: 03 hr 02 min 51 sec)
Heartbeat CPU 0 instructions: 1630000281 cycles: 1284936277 heartbeat IPC: 1.244 cumulative IPC: 1.269 (Simulation time: 03 hr 04 min 07 sec)
Heartbeat CPU 0 instructions: 1640000282 cycles: 1292993604 heartbeat IPC: 1.241 cumulative IPC: 1.268 (Simulation time: 03 hr 05 min 23 sec)
Heartbeat CPU 0 instructions: 1650000284 cycles: 1300736060 heartbeat IPC: 1.292 cumulative IPC: 1.269 (Simulation time: 03 hr 06 min 37 sec)
Heartbeat CPU 0 instructions: 1660000285 cycles: 1308490913 heartbeat IPC: 1.29 cumulative IPC: 1.269 (Simulation time: 03 hr 07 min 51 sec)
Heartbeat CPU 0 instructions: 1670000285 cycles: 1316459927 heartbeat IPC: 1.255 cumulative IPC: 1.269 (Simulation time: 03 hr 09 min 06 sec)
Heartbeat CPU 0 instructions: 1680000286 cycles: 1324246258 heartbeat IPC: 1.284 cumulative IPC: 1.269 (Simulation time: 03 hr 10 min 20 sec)
Heartbeat CPU 0 instructions: 1690000289 cycles: 1332133906 heartbeat IPC: 1.268 cumulative IPC: 1.269 (Simulation time: 03 hr 11 min 35 sec)
[ERROR_CYCLE] Error added at CPU cycle 1337518359, next at 1338743607, pending count: 1
[DRAM_CYCLE_ERROR] Cycle-based error applied! address=0x8acf5a880 additional_latency=1990500 cycles
[ERROR_CYCLE] Error added at CPU cycle 1338743607, next at 1451238650, pending count: 1
[DRAM_CYCLE_ERROR] Cycle-based error applied! address=0x8acf6f9c0 additional_latency=1990500 cycles
Heartbeat CPU 0 instructions: 1700000290 cycles: 1339891183 heartbeat IPC: 1.289 cumulative IPC: 1.269 (Simulation time: 03 hr 12 min 48 sec)
Heartbeat CPU 0 instructions: 1710000291 cycles: 1348120209 heartbeat IPC: 1.215 cumulative IPC: 1.268 (Simulation time: 03 hr 14 min 05 sec)
Heartbeat CPU 0 instructions: 1720000292 cycles: 1355895392 heartbeat IPC: 1.286 cumulative IPC: 1.269 (Simulation time: 03 hr 15 min 18 sec)
Heartbeat CPU 0 instructions: 1730000293 cycles: 1363833665 heartbeat IPC: 1.26 cumulative IPC: 1.268 (Simulation time: 03 hr 16 min 33 sec)
Heartbeat CPU 0 instructions: 1740000296 cycles: 1371657061 heartbeat IPC: 1.278 cumulative IPC: 1.269 (Simulation time: 03 hr 17 min 47 sec)
Heartbeat CPU 0 instructions: 1750000296 cycles: 1379678832 heartbeat IPC: 1.247 cumulative IPC: 1.268 (Simulation time: 03 hr 19 min 02 sec)
Heartbeat CPU 0 instructions: 1760000299 cycles: 1387691242 heartbeat IPC: 1.248 cumulative IPC: 1.268 (Simulation time: 03 hr 20 min 18 sec)
Heartbeat CPU 0 instructions: 1770000303 cycles: 1395926925 heartbeat IPC: 1.214 cumulative IPC: 1.268 (Simulation time: 03 hr 21 min 35 sec)
Heartbeat CPU 0 instructions: 1780000307 cycles: 1404021360 heartbeat IPC: 1.235 cumulative IPC: 1.268 (Simulation time: 03 hr 22 min 50 sec)
Heartbeat CPU 0 instructions: 1790000311 cycles: 1411922719 heartbeat IPC: 1.266 cumulative IPC: 1.268 (Simulation time: 03 hr 24 min 06 sec)
Heartbeat CPU 0 instructions: 1800000313 cycles: 1419675541 heartbeat IPC: 1.29 cumulative IPC: 1.268 (Simulation time: 03 hr 25 min 19 sec)
Heartbeat CPU 0 instructions: 1810000314 cycles: 1427425703 heartbeat IPC: 1.29 cumulative IPC: 1.268 (Simulation time: 03 hr 26 min 33 sec)
Heartbeat CPU 0 instructions: 1820000314 cycles: 1435218013 heartbeat IPC: 1.283 cumulative IPC: 1.268 (Simulation time: 03 hr 27 min 47 sec)
Heartbeat CPU 0 instructions: 1830000315 cycles: 1442958007 heartbeat IPC: 1.292 cumulative IPC: 1.268 (Simulation time: 03 hr 29 min 01 sec)
Heartbeat CPU 0 instructions: 1840000319 cycles: 1451143441 heartbeat IPC: 1.222 cumulative IPC: 1.268 (Simulation time: 03 hr 30 min 18 sec)
[ERROR_CYCLE] Error added at CPU cycle 1451238650, next at 1516871150, pending count: 1
[DRAM_CYCLE_ERROR] Cycle-based error applied! address=0x1b9cc82c0 additional_latency=1990500 cycles
Heartbeat CPU 0 instructions: 1850000320 cycles: 1458888312 heartbeat IPC: 1.291 cumulative IPC: 1.268 (Simulation time: 03 hr 31 min 31 sec)
Heartbeat CPU 0 instructions: 1860000323 cycles: 1466733082 heartbeat IPC: 1.275 cumulative IPC: 1.268 (Simulation time: 03 hr 32 min 46 sec)
Heartbeat CPU 0 instructions: 1870000324 cycles: 1474524615 heartbeat IPC: 1.283 cumulative IPC: 1.268 (Simulation time: 03 hr 33 min 59 sec)
Heartbeat CPU 0 instructions: 1880000328 cycles: 1482180487 heartbeat IPC: 1.306 cumulative IPC: 1.268 (Simulation time: 03 hr 35 min 12 sec)
Heartbeat CPU 0 instructions: 1890000329 cycles: 1489840229 heartbeat IPC: 1.306 cumulative IPC: 1.269 (Simulation time: 03 hr 36 min 25 sec)
Heartbeat CPU 0 instructions: 1900000329 cycles: 1497583127 heartbeat IPC: 1.292 cumulative IPC: 1.269 (Simulation time: 03 hr 37 min 38 sec)
Heartbeat CPU 0 instructions: 1910000332 cycles: 1505382777 heartbeat IPC: 1.282 cumulative IPC: 1.269 (Simulation time: 03 hr 38 min 52 sec)
Heartbeat CPU 0 instructions: 1920000333 cycles: 1513256848 heartbeat IPC: 1.27 cumulative IPC: 1.269 (Simulation time: 03 hr 40 min 07 sec)
[ERROR_CYCLE] Error added at CPU cycle 1516871150, next at 1895264846, pending count: 1
[DRAM_CYCLE_ERROR] Cycle-based error applied! address=0xe2906cd80 additional_latency=1990500 cycles
Heartbeat CPU 0 instructions: 1930000334 cycles: 1520926199 heartbeat IPC: 1.304 cumulative IPC: 1.269 (Simulation time: 03 hr 41 min 20 sec)
Heartbeat CPU 0 instructions: 1940000334 cycles: 1529136553 heartbeat IPC: 1.218 cumulative IPC: 1.269 (Simulation time: 03 hr 42 min 27 sec)
Heartbeat CPU 0 instructions: 1950000334 cycles: 1536871361 heartbeat IPC: 1.293 cumulative IPC: 1.269 (Simulation time: 03 hr 43 min 38 sec)
Heartbeat CPU 0 instructions: 1960000335 cycles: 1545021584 heartbeat IPC: 1.227 cumulative IPC: 1.269 (Simulation time: 03 hr 44 min 54 sec)
Heartbeat CPU 0 instructions: 1970000339 cycles: 1552955630 heartbeat IPC: 1.26 cumulative IPC: 1.269 (Simulation time: 03 hr 46 min 05 sec)
Heartbeat CPU 0 instructions: 1980000340 cycles: 1560814355 heartbeat IPC: 1.272 cumulative IPC: 1.269 (Simulation time: 03 hr 47 min 15 sec)
Heartbeat CPU 0 instructions: 1990000341 cycles: 1568628680 heartbeat IPC: 1.28 cumulative IPC: 1.269 (Simulation time: 03 hr 48 min 29 sec)

=== ERROR PAGE STATISTICS ===
Mode: CYCLE
Error Cycle Interval: 100000000 CPU cycles
Total Error Accesses: 17
==============================
Simulation finished CPU 0 instructions: 1999999656 cycles: 1576394866 cumulative IPC: 1.269 (Simulation time: 03 hr 49 min 42 sec)
Simulation complete CPU 0 instructions: 1999999656 cycles: 1576394866 cumulative IPC: 1.269 (Simulation time: 03 hr 49 min 42 sec)

ChampSim completed all CPUs

=== Simulation ===
CPU 0 runs test_traces/603.bwaves_s-2931B.champsimtrace.xz

Region of Interest Statistics

CPU 0 cumulative IPC: 1.269 instructions: 1999999656 cycles: 1576394866
CPU 0 Branch Prediction Accuracy: 80.62% MPKI: 1.636 Average ROB Occupancy at Mispredict: 300.1
Branch type MPKI
BRANCH_DIRECT_JUMP: 0
BRANCH_INDIRECT: 0
BRANCH_CONDITIONAL: 1.636
BRANCH_DIRECT_CALL: 0
BRANCH_INDIRECT_CALL: 0
BRANCH_RETURN: 0

cpu0->cpu0_STLB TOTAL        ACCESS:        759 HIT:          8 MISS:        751 MSHR_MERGE:          0
cpu0->cpu0_STLB LOAD         ACCESS:        759 HIT:          8 MISS:        751 MSHR_MERGE:          0
cpu0->cpu0_STLB RFO          ACCESS:          0 HIT:          0 MISS:          0 MSHR_MERGE:          0
cpu0->cpu0_STLB PREFETCH     ACCESS:          0 HIT:          0 MISS:          0 MSHR_MERGE:          0
cpu0->cpu0_STLB WRITE        ACCESS:          0 HIT:          0 MISS:          0 MSHR_MERGE:          0
cpu0->cpu0_STLB TRANSLATION  ACCESS:          0 HIT:          0 MISS:          0 MSHR_MERGE:          0
cpu0->cpu0_STLB PREFETCH REQUESTED:          0 ISSUED:          0 USEFUL:          0 USELESS:          0
cpu0->cpu0_STLB AVERAGE MISS LATENCY: 8771 cycles
cpu0->cpu0_L2C TOTAL        ACCESS:   46484955 HIT:   16696928 MISS:   29788027 MSHR_MERGE:          0
cpu0->cpu0_L2C LOAD         ACCESS:   20689838 HIT:    2809649 MISS:   17880189 MSHR_MERGE:          0
cpu0->cpu0_L2C RFO          ACCESS:   12820507 HIT:     912814 MISS:   11907693 MSHR_MERGE:          0
cpu0->cpu0_L2C PREFETCH     ACCESS:          0 HIT:          0 MISS:          0 MSHR_MERGE:          0
cpu0->cpu0_L2C WRITE        ACCESS:   12974610 HIT:   12974465 MISS:        145 MSHR_MERGE:          0
cpu0->cpu0_L2C TRANSLATION  ACCESS:          0 HIT:          0 MISS:          0 MSHR_MERGE:          0
cpu0->cpu0_L2C PREFETCH REQUESTED:          0 ISSUED:          0 USEFUL:          0 USELESS:          0
cpu0->cpu0_L2C AVERAGE MISS LATENCY: 119.2 cycles
cpu0->cpu0_L1I TOTAL        ACCESS:  226274729 HIT:  226274656 MISS:         73 MSHR_MERGE:         24
cpu0->cpu0_L1I LOAD         ACCESS:  226274729 HIT:  226274656 MISS:         73 MSHR_MERGE:         24
cpu0->cpu0_L1I RFO          ACCESS:          0 HIT:          0 MISS:          0 MSHR_MERGE:          0
cpu0->cpu0_L1I PREFETCH     ACCESS:          0 HIT:          0 MISS:          0 MSHR_MERGE:          0
cpu0->cpu0_L1I WRITE        ACCESS:          0 HIT:          0 MISS:          0 MSHR_MERGE:          0
cpu0->cpu0_L1I TRANSLATION  ACCESS:          0 HIT:          0 MISS:          0 MSHR_MERGE:          0
cpu0->cpu0_L1I PREFETCH REQUESTED:          0 ISSUED:          0 USEFUL:          0 USELESS:          0
cpu0->cpu0_L1I AVERAGE MISS LATENCY: 161.3 cycles
cpu0->cpu0_L1D TOTAL        ACCESS:  657111744 HIT:  605026634 MISS:   52085110 MSHR_MERGE:   18560220
cpu0->cpu0_L1D LOAD         ACCESS:  291173468 HIT:  270229424 MISS:   20944044 MSHR_MERGE:     253891
cpu0->cpu0_L1D RFO          ACCESS:          0 HIT:          0 MISS:          0 MSHR_MERGE:          0
cpu0->cpu0_L1D PREFETCH     ACCESS:          0 HIT:          0 MISS:          0 MSHR_MERGE:          0
cpu0->cpu0_L1D WRITE        ACCESS:  365938276 HIT:  334797210 MISS:   31141066 MSHR_MERGE:   18306329
cpu0->cpu0_L1D TRANSLATION  ACCESS:          0 HIT:          0 MISS:          0 MSHR_MERGE:          0
cpu0->cpu0_L1D PREFETCH REQUESTED:          0 ISSUED:          0 USEFUL:          0 USELESS:          0
cpu0->cpu0_L1D AVERAGE MISS LATENCY: 115 cycles
cpu0->cpu0_ITLB TOTAL        ACCESS:  180621800 HIT:  180621793 MISS:          7 MSHR_MERGE:          6
cpu0->cpu0_ITLB LOAD         ACCESS:  180621800 HIT:  180621793 MISS:          7 MSHR_MERGE:          6
cpu0->cpu0_ITLB RFO          ACCESS:          0 HIT:          0 MISS:          0 MSHR_MERGE:          0
cpu0->cpu0_ITLB PREFETCH     ACCESS:          0 HIT:          0 MISS:          0 MSHR_MERGE:          0
cpu0->cpu0_ITLB WRITE        ACCESS:          0 HIT:          0 MISS:          0 MSHR_MERGE:          0
cpu0->cpu0_ITLB TRANSLATION  ACCESS:          0 HIT:          0 MISS:          0 MSHR_MERGE:          0
cpu0->cpu0_ITLB PREFETCH REQUESTED:          0 ISSUED:          0 USEFUL:          0 USELESS:          0
cpu0->cpu0_ITLB AVERAGE MISS LATENCY: 1.722e+04 cycles
cpu0->cpu0_DTLB TOTAL        ACCESS:  552005603 HIT:  551999362 MISS:       6241 MSHR_MERGE:       5483
cpu0->cpu0_DTLB LOAD         ACCESS:  552005603 HIT:  551999362 MISS:       6241 MSHR_MERGE:       5483
cpu0->cpu0_DTLB RFO          ACCESS:          0 HIT:          0 MISS:          0 MSHR_MERGE:          0
cpu0->cpu0_DTLB PREFETCH     ACCESS:          0 HIT:          0 MISS:          0 MSHR_MERGE:          0
cpu0->cpu0_DTLB WRITE        ACCESS:          0 HIT:          0 MISS:          0 MSHR_MERGE:          0
cpu0->cpu0_DTLB TRANSLATION  ACCESS:          0 HIT:          0 MISS:          0 MSHR_MERGE:          0
cpu0->cpu0_DTLB PREFETCH REQUESTED:          0 ISSUED:          0 USEFUL:          0 USELESS:          0
cpu0->cpu0_DTLB AVERAGE MISS LATENCY: 8673 cycles
cpu0->LLC TOTAL        ACCESS:   41693246 HIT:   14434136 MISS:   27259110 MSHR_MERGE:          0
cpu0->LLC LOAD         ACCESS:   17880189 HIT:    2528991 MISS:   15351198 MSHR_MERGE:          0
cpu0->LLC RFO          ACCESS:   11907693 HIT:          0 MISS:   11907693 MSHR_MERGE:          0
cpu0->LLC PREFETCH     ACCESS:          0 HIT:          0 MISS:          0 MSHR_MERGE:          0
cpu0->LLC WRITE        ACCESS:   11905364 HIT:   11905145 MISS:        219 MSHR_MERGE:          0
cpu0->LLC TRANSLATION  ACCESS:          0 HIT:          0 MISS:          0 MSHR_MERGE:          0
cpu0->LLC PREFETCH REQUESTED:          0 ISSUED:          0 USEFUL:          0 USELESS:          0
cpu0->LLC AVERAGE MISS LATENCY: 112.9 cycles

DRAM Statistics

Channel 0 RQ ROW_BUFFER_HIT:     283855
  ROW_BUFFER_MISS:   13346456
  AVG DBUS CONGESTED CYCLE: 10.85
Channel 0 WQ ROW_BUFFER_HIT:    2655146
  ROW_BUFFER_MISS:    3291949
  FULL:          0
Channel 0 REFRESHES ISSUED:     131357

Channel 1 RQ ROW_BUFFER_HIT:     279099
  ROW_BUFFER_MISS:   13350990
  AVG DBUS CONGESTED CYCLE: 10.86
Channel 1 WQ ROW_BUFFER_HIT:    2658024
  ROW_BUFFER_MISS:    3289007
  FULL:          0
Channel 1 REFRESHES ISSUED:     131357
