[VMEM] WARNING: physical memory size is smaller than virtual memory size.

*** ChampSim Multicore Out-of-Order Simulator ***
Warmup Instructions: 0
Simulation Instructions: 9223372036854775807
Number of CPUs: 1
Page size: 4096

Off-chip DRAM Size: 128 GiB Channels: 2 Width: 32-bit Data Rate: 4807 MT/s
[ERROR_PAGE_MANAGER] Error latency: 173500 
[ERROR_PAGE_MANAGER] Random seed: 54321 (fixed for preload reproducibility)
[ERROR_PAGE_MANAGER] Cycle-based error modeling enabled
[ERROR_PAGE_MANAGER] Errors per interval: 1
[ERROR_PAGE_MANAGER] Error cycle interval: 8000000 cycles

=== ERROR PAGE STATISTICS ===
Mode: CYCLE
Error Cycle Interval: 8000000 CPU cycles
Total Error Accesses: 0
==============================
Warmup finished CPU 0 instructions: 0 cycles: 1 cumulative IPC: 0 (Simulation time: 00 hr 00 min 02 sec)
Warmup complete CPU 0 instructions: 0 cycles: 1 cumulative IPC: 0 (Simulation time: 00 hr 00 min 02 sec)
[ERROR_CYCLE] Error added at CPU cycle 5702245, next at 7322645, pending count: 1
[DRAM_CYCLE_ERROR] Cycle-based error applied! address=0x391dd9b00 additional_latency=173500 cycles
[ERROR_CYCLE] Error added at CPU cycle 7322646, next at 20556852, pending count: 1
[DRAM_CYCLE_ERROR] Cycle-based error applied! address=0x40f4bc580 additional_latency=173500 cycles
Heartbeat CPU 0 instructions: 10000001 cycles: 16252803 heartbeat IPC: 0.6153 cumulative IPC: 0.6153 (Simulation time: 00 hr 02 min 18 sec)
[ERROR_CYCLE] Error added at CPU cycle 20556852, next at 42774152, pending count: 1
[DRAM_CYCLE_ERROR] Cycle-based error applied! address=0xa9ad0a980 additional_latency=173500 cycles
Heartbeat CPU 0 instructions: 20000004 cycles: 32466213 heartbeat IPC: 0.6168 cumulative IPC: 0.616 (Simulation time: 00 hr 04 min 23 sec)
[ERROR_CYCLE] Error added at CPU cycle 42774153, next at 43014581, pending count: 1
[DRAM_CYCLE_ERROR] Cycle-based error applied! address=0x1f50402b40 additional_latency=173500 cycles
[ERROR_CYCLE] Error added at CPU cycle 43014581, next at 55310914, pending count: 1
[DRAM_CYCLE_ERROR] Cycle-based error applied! address=0x944aaf1c0 additional_latency=173500 cycles
Heartbeat CPU 0 instructions: 30000005 cycles: 48674176 heartbeat IPC: 0.617 cumulative IPC: 0.6163 (Simulation time: 00 hr 06 min 29 sec)
[ERROR_CYCLE] Error added at CPU cycle 55310914, next at 56742755, pending count: 1
[DRAM_CYCLE_ERROR] Cycle-based error applied! address=0x5a07b7780 additional_latency=173500 cycles
[ERROR_CYCLE] Error added at CPU cycle 56742756, next at 61293938, pending count: 1
[DRAM_CYCLE_ERROR] Cycle-based error applied! address=0xe28d07af0 additional_latency=173500 cycles
[ERROR_CYCLE] Error added at CPU cycle 61293939, next at 68125490, pending count: 1
[DRAM_CYCLE_ERROR] Cycle-based error applied! address=0x7340dc520 additional_latency=173500 cycles
Heartbeat CPU 0 instructions: 40000009 cycles: 64879003 heartbeat IPC: 0.6171 cumulative IPC: 0.6165 (Simulation time: 00 hr 08 min 51 sec)
[ERROR_CYCLE] Error added at CPU cycle 68125491, next at 70082703, pending count: 1
[DRAM_CYCLE_ERROR] Cycle-based error applied! address=0x165719c898 additional_latency=173500 cycles
[ERROR_CYCLE] Error added at CPU cycle 70082704, next at 84290367, pending count: 1
[DRAM_CYCLE_ERROR] Cycle-based error applied! address=0xb5c75740 additional_latency=173500 cycles
Heartbeat CPU 0 instructions: 50000010 cycles: 81098987 heartbeat IPC: 0.6165 cumulative IPC: 0.6165 (Simulation time: 00 hr 11 min 13 sec)
[ERROR_CYCLE] Error added at CPU cycle 84290367, next at 87138513, pending count: 1
[DRAM_CYCLE_ERROR] Cycle-based error applied! address=0x52d9577c0 additional_latency=173500 cycles
[ERROR_CYCLE] Error added at CPU cycle 87138513, next at 90719201, pending count: 1
[DRAM_CYCLE_ERROR] Cycle-based error applied! address=0x184a1223c0 additional_latency=173500 cycles
[ERROR_CYCLE] Error added at CPU cycle 90719201, next at 107001469, pending count: 1
[DRAM_CYCLE_ERROR] Cycle-based error applied! address=0x1c353b8700 additional_latency=173500 cycles
Heartbeat CPU 0 instructions: 60000010 cycles: 97297484 heartbeat IPC: 0.6173 cumulative IPC: 0.6167 (Simulation time: 00 hr 13 min 35 sec)
[ERROR_CYCLE] Error added at CPU cycle 107001469, next at 107099488, pending count: 1
[DRAM_CYCLE_ERROR] Cycle-based error applied! address=0x19c80bfd80 additional_latency=173500 cycles
[ERROR_CYCLE] Error added at CPU cycle 107099489, next at 116099092, pending count: 1
[DRAM_CYCLE_ERROR] Cycle-based error applied! address=0x1e3011fdc0 additional_latency=173500 cycles
Heartbeat CPU 0 instructions: 70000012 cycles: 113480444 heartbeat IPC: 0.6179 cumulative IPC: 0.6168 (Simulation time: 00 hr 15 min 56 sec)
[ERROR_CYCLE] Error added at CPU cycle 116099092, next at 121349692, pending count: 1
[DRAM_CYCLE_ERROR] Cycle-based error applied! address=0x181928cd40 additional_latency=173500 cycles
[ERROR_CYCLE] Error added at CPU cycle 121349692, next at 151621187, pending count: 1
[DRAM_CYCLE_ERROR] Cycle-based error applied! address=0x1d88799340 additional_latency=173500 cycles
Heartbeat CPU 0 instructions: 80000016 cycles: 129643518 heartbeat IPC: 0.6187 cumulative IPC: 0.6171 (Simulation time: 00 hr 18 min 17 sec)
Heartbeat CPU 0 instructions: 90000018 cycles: 145835815 heartbeat IPC: 0.6176 cumulative IPC: 0.6171 (Simulation time: 00 hr 20 min 39 sec)
[ERROR_CYCLE] Error added at CPU cycle 151621187, next at 153516742, pending count: 1
[DRAM_CYCLE_ERROR] Cycle-based error applied! address=0xd32d4ac0 additional_latency=173500 cycles
[ERROR_CYCLE] Error added at CPU cycle 153516742, next at 155437621, pending count: 1
[DRAM_CYCLE_ERROR] Cycle-based error applied! address=0xf3933c438 additional_latency=173500 cycles
[ERROR_CYCLE] Error added at CPU cycle 155437621, next at 178495226, pending count: 1
[DRAM_CYCLE_ERROR] Cycle-based error applied! address=0x1a3fc65a00 additional_latency=173500 cycles
Heartbeat CPU 0 instructions: 100000021 cycles: 162023263 heartbeat IPC: 0.6178 cumulative IPC: 0.6172 (Simulation time: 00 hr 22 min 46 sec)
Heartbeat CPU 0 instructions: 110000022 cycles: 178177101 heartbeat IPC: 0.619 cumulative IPC: 0.6174 (Simulation time: 00 hr 24 min 37 sec)
[ERROR_CYCLE] Error added at CPU cycle 178495226, next at 181653365, pending count: 1
[DRAM_CYCLE_ERROR] Cycle-based error applied! address=0xa61acf6c0 additional_latency=173500 cycles
[ERROR_CYCLE] Error added at CPU cycle 181653365, next at 215877191, pending count: 1
[DRAM_CYCLE_ERROR] Cycle-based error applied! address=0x19b7bfa628 additional_latency=173500 cycles
Heartbeat CPU 0 instructions: 120000025 cycles: 194353831 heartbeat IPC: 0.6182 cumulative IPC: 0.6174 (Simulation time: 00 hr 26 min 59 sec)
Heartbeat CPU 0 instructions: 130000029 cycles: 210549218 heartbeat IPC: 0.6175 cumulative IPC: 0.6174 (Simulation time: 00 hr 29 min 26 sec)
[ERROR_CYCLE] Error added at CPU cycle 215877191, next at 220477735, pending count: 1
[DRAM_CYCLE_ERROR] Cycle-based error applied! address=0x1572b7c208 additional_latency=173500 cycles
[ERROR_CYCLE] Error added at CPU cycle 220477735, next at 247385306, pending count: 1
[DRAM_CYCLE_ERROR] Cycle-based error applied! address=0x35bbedc80 additional_latency=173500 cycles
Heartbeat CPU 0 instructions: 140000029 cycles: 226716299 heartbeat IPC: 0.6185 cumulative IPC: 0.6175 (Simulation time: 00 hr 31 min 25 sec)
Heartbeat CPU 0 instructions: 150000029 cycles: 242908801 heartbeat IPC: 0.6176 cumulative IPC: 0.6175 (Simulation time: 00 hr 33 min 32 sec)
[ERROR_CYCLE] Error added at CPU cycle 247385307, next at 249771807, pending count: 1
[DRAM_CYCLE_ERROR] Cycle-based error applied! address=0x1d0af415c0 additional_latency=173500 cycles
[ERROR_CYCLE] Error added at CPU cycle 249771808, next at 261187612, pending count: 1
[DRAM_CYCLE_ERROR] Cycle-based error applied! address=0x189520d600 additional_latency=173500 cycles
Heartbeat CPU 0 instructions: 160000031 cycles: 259104190 heartbeat IPC: 0.6175 cumulative IPC: 0.6175 (Simulation time: 00 hr 35 min 49 sec)
[ERROR_CYCLE] Error added at CPU cycle 261187613, next at 262895406, pending count: 1
[DRAM_CYCLE_ERROR] Cycle-based error applied! address=0x1769743c80 additional_latency=173500 cycles
[ERROR_CYCLE] Error added at CPU cycle 262895406, next at 265556270, pending count: 1
[DRAM_CYCLE_ERROR] Cycle-based error applied! address=0x16b48e5000 additional_latency=173500 cycles
[ERROR_CYCLE] Error added at CPU cycle 265556270, next at 277297613, pending count: 1
[DRAM_CYCLE_ERROR] Cycle-based error applied! address=0xa654d1158 additional_latency=173500 cycles
Heartbeat CPU 0 instructions: 170000031 cycles: 275251438 heartbeat IPC: 0.6193 cumulative IPC: 0.6176 (Simulation time: 00 hr 38 min 04 sec)
[ERROR_CYCLE] Error added at CPU cycle 277297614, next at 277363337, pending count: 1
[DRAM_CYCLE_ERROR] Cycle-based error applied! address=0x190291ba80 additional_latency=173500 cycles
[ERROR_CYCLE] Error added at CPU cycle 277363337, next at 280844445, pending count: 1
[DRAM_CYCLE_ERROR] Cycle-based error applied! address=0x1e88efc4c0 additional_latency=173500 cycles
[ERROR_CYCLE] Error added at CPU cycle 280844445, next at 282972414, pending count: 1
[DRAM_CYCLE_ERROR] Cycle-based error applied! address=0x64e240040 additional_latency=173500 cycles
[ERROR_CYCLE] Error added at CPU cycle 282972415, next at 286862856, pending count: 1
[DRAM_CYCLE_ERROR] Cycle-based error applied! address=0x1098eb8360 additional_latency=173500 cycles
[ERROR_CYCLE] Error added at CPU cycle 286862857, next at 287787267, pending count: 1
[DRAM_CYCLE_ERROR] Cycle-based error applied! address=0x1430970000 additional_latency=173500 cycles
[ERROR_CYCLE] Error added at CPU cycle 287787267, next at 291972450, pending count: 1
[DRAM_CYCLE_ERROR] Cycle-based error applied! address=0x63a8049c0 additional_latency=173500 cycles
Heartbeat CPU 0 instructions: 180000032 cycles: 291431878 heartbeat IPC: 0.618 cumulative IPC: 0.6176 (Simulation time: 00 hr 40 min 26 sec)
[ERROR_CYCLE] Error added at CPU cycle 291972450, next at 296131102, pending count: 1
[DRAM_CYCLE_ERROR] Cycle-based error applied! address=0x12dbc16300 additional_latency=173500 cycles
[ERROR_CYCLE] Error added at CPU cycle 296131102, next at 307889350, pending count: 1
[DRAM_CYCLE_ERROR] Cycle-based error applied! address=0x702d99a38 additional_latency=173500 cycles
Heartbeat CPU 0 instructions: 190000036 cycles: 307632827 heartbeat IPC: 0.6172 cumulative IPC: 0.6176 (Simulation time: 00 hr 42 min 24 sec)
[ERROR_CYCLE] Error added at CPU cycle 307889350, next at 322644041, pending count: 1
[DRAM_CYCLE_ERROR] Cycle-based error applied! address=0x16524a3b40 additional_latency=173500 cycles
[ERROR_CYCLE] Error added at CPU cycle 322644042, next at 326639280, pending count: 1
[DRAM_CYCLE_ERROR] Cycle-based error applied! address=0x1a769752e8 additional_latency=173500 cycles
Heartbeat CPU 0 instructions: 200000036 cycles: 323796916 heartbeat IPC: 0.6187 cumulative IPC: 0.6177 (Simulation time: 00 hr 44 min 09 sec)
[ERROR_CYCLE] Error added at CPU cycle 326639281, next at 331663090, pending count: 1
[DRAM_CYCLE_ERROR] Cycle-based error applied! address=0x58b431a8 additional_latency=173500 cycles
[ERROR_CYCLE] Error added at CPU cycle 331663090, next at 332541815, pending count: 1
[DRAM_CYCLE_ERROR] Cycle-based error applied! address=0xf3eb6b260 additional_latency=173500 cycles
[ERROR_CYCLE] Error added at CPU cycle 332541815, next at 334235178, pending count: 1
[DRAM_CYCLE_ERROR] Cycle-based error applied! address=0x13fad932c0 additional_latency=173500 cycles
[ERROR_CYCLE] Error added at CPU cycle 334235178, next at 343169730, pending count: 1
[DRAM_CYCLE_ERROR] Cycle-based error applied! address=0x172d95de88 additional_latency=173500 cycles
Heartbeat CPU 0 instructions: 210000036 cycles: 340001675 heartbeat IPC: 0.6171 cumulative IPC: 0.6176 (Simulation time: 00 hr 46 min 06 sec)
[ERROR_CYCLE] Error added at CPU cycle 343169730, next at 348318977, pending count: 1
[DRAM_CYCLE_ERROR] Cycle-based error applied! address=0xfafc1bb98 additional_latency=173500 cycles
[ERROR_CYCLE] Error added at CPU cycle 348318978, next at 361256443, pending count: 1
[DRAM_CYCLE_ERROR] Cycle-based error applied! address=0x7b5622228 additional_latency=173500 cycles
Heartbeat CPU 0 instructions: 220000036 cycles: 356184232 heartbeat IPC: 0.6179 cumulative IPC: 0.6177 (Simulation time: 00 hr 48 min 33 sec)
[ERROR_CYCLE] Error added at CPU cycle 361256443, next at 363532948, pending count: 1
[DRAM_CYCLE_ERROR] Cycle-based error applied! address=0x1fb012d6f8 additional_latency=173500 cycles
[ERROR_CYCLE] Error added at CPU cycle 363532948, next at 374354625, pending count: 1
[DRAM_CYCLE_ERROR] Cycle-based error applied! address=0x129d76bfc0 additional_latency=173500 cycles
Heartbeat CPU 0 instructions: 230000039 cycles: 372370245 heartbeat IPC: 0.6178 cumulative IPC: 0.6177 (Simulation time: 00 hr 51 min 01 sec)
[ERROR_CYCLE] Error added at CPU cycle 374354626, next at 383320275, pending count: 1
[DRAM_CYCLE_ERROR] Cycle-based error applied! address=0x1f3643440 additional_latency=173500 cycles
[ERROR_CYCLE] Error added at CPU cycle 383320276, next at 391855039, pending count: 1
[DRAM_CYCLE_ERROR] Cycle-based error applied! address=0x1499d19500 additional_latency=173500 cycles
Heartbeat CPU 0 instructions: 240000039 cycles: 388571044 heartbeat IPC: 0.6173 cumulative IPC: 0.6176 (Simulation time: 00 hr 53 min 27 sec)
[ERROR_CYCLE] Error added at CPU cycle 391855040, next at 393759507, pending count: 1
[DRAM_CYCLE_ERROR] Cycle-based error applied! address=0x7b2566378 additional_latency=173500 cycles
[ERROR_CYCLE] Error added at CPU cycle 393759508, next at 400884047, pending count: 1
[DRAM_CYCLE_ERROR] Cycle-based error applied! address=0xc5ef19860 additional_latency=173500 cycles
[ERROR_CYCLE] Error added at CPU cycle 400884047, next at 413131147, pending count: 1
[DRAM_CYCLE_ERROR] Cycle-based error applied! address=0x1d2c724a00 additional_latency=173500 cycles
Heartbeat CPU 0 instructions: 250000043 cycles: 404764885 heartbeat IPC: 0.6175 cumulative IPC: 0.6176 (Simulation time: 00 hr 55 min 54 sec)
[ERROR_CYCLE] Error added at CPU cycle 413131147, next at 418606511, pending count: 1
[DRAM_CYCLE_ERROR] Cycle-based error applied! address=0x81ac329c0 additional_latency=173500 cycles
[ERROR_CYCLE] Error added at CPU cycle 418606511, next at 419456417, pending count: 1
[DRAM_CYCLE_ERROR] Cycle-based error applied! address=0x142c43d250 additional_latency=173500 cycles
[ERROR_CYCLE] Error added at CPU cycle 419456417, next at 436337035, pending count: 1
[DRAM_CYCLE_ERROR] Cycle-based error applied! address=0x1f471040e8 additional_latency=173500 cycles
Heartbeat CPU 0 instructions: 260000043 cycles: 420946319 heartbeat IPC: 0.618 cumulative IPC: 0.6177 (Simulation time: 00 hr 57 min 54 sec)
[ERROR_CYCLE] Error added at CPU cycle 436337035, next at 444009234, pending count: 1
[DRAM_CYCLE_ERROR] Cycle-based error applied! address=0x10e5a6bc40 additional_latency=173500 cycles
Heartbeat CPU 0 instructions: 270000043 cycles: 437151926 heartbeat IPC: 0.6171 cumulative IPC: 0.6176 (Simulation time: 01 hr 00 min 00 sec)
[ERROR_CYCLE] Error added at CPU cycle 444009235, next at 453365678, pending count: 1
[DRAM_CYCLE_ERROR] Cycle-based error applied! address=0x16419ba60 additional_latency=173500 cycles
[ERROR_CYCLE] Error added at CPU cycle 453365679, next at 481867585, pending count: 1
[DRAM_CYCLE_ERROR] Cycle-based error applied! address=0x82d18470 additional_latency=173500 cycles
Heartbeat CPU 0 instructions: 280000044 cycles: 469593887 heartbeat IPC: 0.3082 cumulative IPC: 0.5963 (Simulation time: 01 hr 04 min 42 sec)
[ERROR_CYCLE] Error added at CPU cycle 481867586, next at 486241351, pending count: 1
[DRAM_CYCLE_ERROR] Cycle-based error applied! address=0x1a3467b858 additional_latency=173500 cycles
[ERROR_CYCLE] Error added at CPU cycle 486241352, next at 486834828, pending count: 1
[DRAM_CYCLE_ERROR] Cycle-based error applied! address=0x1f20d83ba0 additional_latency=173500 cycles
[ERROR_CYCLE] Error added at CPU cycle 486834829, next at 488524067, pending count: 1
[DRAM_CYCLE_ERROR] Cycle-based error applied! address=0x98fb74b08 additional_latency=173500 cycles
[ERROR_CYCLE] Error added at CPU cycle 488524067, next at 490575473, pending count: 1
[DRAM_CYCLE_ERROR] Cycle-based error applied! address=0x81cd8f658 additional_latency=173500 cycles
[ERROR_CYCLE] Error added at CPU cycle 490575473, next at 490984732, pending count: 1
[DRAM_CYCLE_ERROR] Cycle-based error applied! address=0x13edbe1640 additional_latency=173500 cycles
[ERROR_CYCLE] Error added at CPU cycle 490984732, next at 492549221, pending count: 1
[DRAM_CYCLE_ERROR] Cycle-based error applied! address=0x25dbdb628 additional_latency=173500 cycles
[ERROR_CYCLE] Error added at CPU cycle 492549221, next at 499064308, pending count: 1
[DRAM_CYCLE_ERROR] Cycle-based error applied! address=0x3137fec68 additional_latency=173500 cycles
[ERROR_CYCLE] Error added at CPU cycle 499064309, next at 524403665, pending count: 1
[DRAM_CYCLE_ERROR] Cycle-based error applied! address=0x12cc4c0bc0 additional_latency=173500 cycles
Heartbeat CPU 0 instructions: 290000047 cycles: 501914648 heartbeat IPC: 0.3094 cumulative IPC: 0.5778 (Simulation time: 01 hr 08 min 37 sec)
Heartbeat CPU 0 instructions: 300000050 cycles: 518737811 heartbeat IPC: 0.5944 cumulative IPC: 0.5783 (Simulation time: 01 hr 10 min 30 sec)
[ERROR_CYCLE] Error added at CPU cycle 524403666, next at 548237136, pending count: 1
[DRAM_CYCLE_ERROR] Cycle-based error applied! address=0x8a91f8d18 additional_latency=173500 cycles
Heartbeat CPU 0 instructions: 310000054 cycles: 534820866 heartbeat IPC: 0.6218 cumulative IPC: 0.5796 (Simulation time: 01 hr 12 min 43 sec)
[ERROR_CYCLE] Error added at CPU cycle 548237136, next at 553653883, pending count: 1
[DRAM_CYCLE_ERROR] Cycle-based error applied! address=0x180a1ef740 additional_latency=173500 cycles
Heartbeat CPU 0 instructions: 320000057 cycles: 550910427 heartbeat IPC: 0.6215 cumulative IPC: 0.5809 (Simulation time: 01 hr 14 min 53 sec)
[ERROR_CYCLE] Error added at CPU cycle 553653884, next at 554848685, pending count: 1
[DRAM_CYCLE_ERROR] Cycle-based error applied! address=0x1aef4e040 additional_latency=173500 cycles
[ERROR_CYCLE] Error added at CPU cycle 554848686, next at 557254087, pending count: 1
[DRAM_CYCLE_ERROR] Cycle-based error applied! address=0x775fc5808 additional_latency=173500 cycles
[ERROR_CYCLE] Error added at CPU cycle 557254087, next at 564098204, pending count: 1
[DRAM_CYCLE_ERROR] Cycle-based error applied! address=0x1fe4f13000 additional_latency=173500 cycles
[ERROR_CYCLE] Error added at CPU cycle 564098204, next at 598036750, pending count: 1
[DRAM_CYCLE_ERROR] Cycle-based error applied! address=0x2cfd3bac8 additional_latency=173500 cycles
Heartbeat CPU 0 instructions: 330000060 cycles: 566149816 heartbeat IPC: 0.6562 cumulative IPC: 0.5829 (Simulation time: 01 hr 16 min 48 sec)
Heartbeat CPU 0 instructions: 340000061 cycles: 579483146 heartbeat IPC: 0.75 cumulative IPC: 0.5867 (Simulation time: 01 hr 18 min 44 sec)
Heartbeat CPU 0 instructions: 350000061 cycles: 592823075 heartbeat IPC: 0.7496 cumulative IPC: 0.5904 (Simulation time: 01 hr 20 min 43 sec)
[ERROR_CYCLE] Error added at CPU cycle 598036751, next at 598935337, pending count: 1
[DRAM_CYCLE_ERROR] Cycle-based error applied! address=0x1eebeecb80 additional_latency=173500 cycles
[ERROR_CYCLE] Error added at CPU cycle 598935337, next at 604015587, pending count: 1
[DRAM_CYCLE_ERROR] Cycle-based error applied! address=0x9c1e1b340 additional_latency=173500 cycles
[ERROR_CYCLE] Error added at CPU cycle 604015587, next at 604397660, pending count: 1
[DRAM_CYCLE_ERROR] Cycle-based error applied! address=0x1934246588 additional_latency=173500 cycles
[ERROR_CYCLE] Error added at CPU cycle 604397660, next at 607018469, pending count: 1
[DRAM_CYCLE_ERROR] Cycle-based error applied! address=0x16b7c3d380 additional_latency=173500 cycles
Heartbeat CPU 0 instructions: 360000061 cycles: 606174623 heartbeat IPC: 0.749 cumulative IPC: 0.5939 (Simulation time: 01 hr 22 min 41 sec)
[ERROR_CYCLE] Error added at CPU cycle 607018470, next at 614345951, pending count: 1
[DRAM_CYCLE_ERROR] Cycle-based error applied! address=0x10da888c80 additional_latency=173500 cycles
[ERROR_CYCLE] Error added at CPU cycle 614345951, next at 614441836, pending count: 1
[DRAM_CYCLE_ERROR] Cycle-based error applied! address=0x1bc7f6b9c0 additional_latency=173500 cycles
[ERROR_CYCLE] Error added at CPU cycle 614441837, next at 614480051, pending count: 1
[DRAM_CYCLE_ERROR] Cycle-based error applied! address=0xc69f977c0 additional_latency=173500 cycles
[ERROR_CYCLE] Error added at CPU cycle 614480051, next at 614611983, pending count: 1
[DRAM_CYCLE_ERROR] Cycle-based error applied! address=0x10e8777640 additional_latency=173500 cycles
[ERROR_CYCLE] Error added at CPU cycle 614611983, next at 618781457, pending count: 1
[DRAM_CYCLE_ERROR] Cycle-based error applied! address=0x1a6d05a6d8 additional_latency=173500 cycles
[ERROR_CYCLE] Error added at CPU cycle 618781458, next at 620327032, pending count: 1
[DRAM_CYCLE_ERROR] Cycle-based error applied! address=0x14635dec20 additional_latency=173500 cycles
Heartbeat CPU 0 instructions: 370000062 cycles: 619526963 heartbeat IPC: 0.7489 cumulative IPC: 0.5972 (Simulation time: 01 hr 24 min 38 sec)
[ERROR_CYCLE] Error added at CPU cycle 620327032, next at 621182048, pending count: 1
[DRAM_CYCLE_ERROR] Cycle-based error applied! address=0x12cb2cd2c8 additional_latency=173500 cycles
[ERROR_CYCLE] Error added at CPU cycle 621182049, next at 625644245, pending count: 1
[DRAM_CYCLE_ERROR] Cycle-based error applied! address=0x1c4b0bc340 additional_latency=173500 cycles
[ERROR_CYCLE] Error added at CPU cycle 625644246, next at 634692953, pending count: 1
[DRAM_CYCLE_ERROR] Cycle-based error applied! address=0x151ba04940 additional_latency=173500 cycles
Heartbeat CPU 0 instructions: 380000063 cycles: 632863833 heartbeat IPC: 0.7498 cumulative IPC: 0.6004 (Simulation time: 01 hr 26 min 39 sec)
[ERROR_CYCLE] Error added at CPU cycle 634692953, next at 640590896, pending count: 1
[DRAM_CYCLE_ERROR] Cycle-based error applied! address=0x17ab11ed40 additional_latency=173500 cycles
[ERROR_CYCLE] Error added at CPU cycle 640590897, next at 643762779, pending count: 1
[DRAM_CYCLE_ERROR] Cycle-based error applied! address=0x1e64f24dc0 additional_latency=173500 cycles
[ERROR_CYCLE] Error added at CPU cycle 643762780, next at 650107287, pending count: 1
[DRAM_CYCLE_ERROR] Cycle-based error applied! address=0x1bd4c90180 additional_latency=173500 cycles
Heartbeat CPU 0 instructions: 390000064 cycles: 646191065 heartbeat IPC: 0.7503 cumulative IPC: 0.6035 (Simulation time: 01 hr 28 min 38 sec)
[ERROR_CYCLE] Error added at CPU cycle 650107288, next at 660201622, pending count: 1
[DRAM_CYCLE_ERROR] Cycle-based error applied! address=0x1efb9db840 additional_latency=173500 cycles
Heartbeat CPU 0 instructions: 400000068 cycles: 659515002 heartbeat IPC: 0.7505 cumulative IPC: 0.6065 (Simulation time: 01 hr 30 min 17 sec)
[ERROR_CYCLE] Error added at CPU cycle 660201622, next at 664349972, pending count: 1
[DRAM_CYCLE_ERROR] Cycle-based error applied! address=0xad5877528 additional_latency=173500 cycles
[ERROR_CYCLE] Error added at CPU cycle 664349973, next at 671148112, pending count: 1
[DRAM_CYCLE_ERROR] Cycle-based error applied! address=0x1fb57d3d28 additional_latency=173500 cycles
[ERROR_CYCLE] Error added at CPU cycle 671148112, next at 689443322, pending count: 1
[DRAM_CYCLE_ERROR] Cycle-based error applied! address=0xd8d1f8b40 additional_latency=173500 cycles
Heartbeat CPU 0 instructions: 410000071 cycles: 672861174 heartbeat IPC: 0.7493 cumulative IPC: 0.6093 (Simulation time: 01 hr 32 min 06 sec)
Heartbeat CPU 0 instructions: 420000071 cycles: 686165546 heartbeat IPC: 0.7516 cumulative IPC: 0.6121 (Simulation time: 01 hr 34 min 05 sec)
[ERROR_CYCLE] Error added at CPU cycle 689443322, next at 691311391, pending count: 1
[DRAM_CYCLE_ERROR] Cycle-based error applied! address=0x1bf8140d80 additional_latency=173500 cycles
[ERROR_CYCLE] Error added at CPU cycle 691311392, next at 706435840, pending count: 1
[DRAM_CYCLE_ERROR] Cycle-based error applied! address=0x1bf1aae818 additional_latency=173500 cycles
Heartbeat CPU 0 instructions: 430000074 cycles: 699495641 heartbeat IPC: 0.7502 cumulative IPC: 0.6147 (Simulation time: 01 hr 36 min 06 sec)
[ERROR_CYCLE] Error added at CPU cycle 706435841, next at 708373709, pending count: 1
[DRAM_CYCLE_ERROR] Cycle-based error applied! address=0x8dc711980 additional_latency=173500 cycles
[ERROR_CYCLE] Error added at CPU cycle 708373709, next at 709740849, pending count: 1
[DRAM_CYCLE_ERROR] Cycle-based error applied! address=0x1e9b1795c0 additional_latency=173500 cycles
[ERROR_CYCLE] Error added at CPU cycle 709740849, next at 713146632, pending count: 1
[DRAM_CYCLE_ERROR] Cycle-based error applied! address=0x1b2dd63400 additional_latency=173500 cycles
Heartbeat CPU 0 instructions: 440000076 cycles: 712827234 heartbeat IPC: 0.7501 cumulative IPC: 0.6173 (Simulation time: 01 hr 38 min 07 sec)
[ERROR_CYCLE] Error added at CPU cycle 713146633, next at 728113647, pending count: 1
[DRAM_CYCLE_ERROR] Cycle-based error applied! address=0x1b9c3a1240 additional_latency=173500 cycles
Heartbeat CPU 0 instructions: 450000076 cycles: 726136497 heartbeat IPC: 0.7514 cumulative IPC: 0.6197 (Simulation time: 01 hr 40 min 05 sec)
[ERROR_CYCLE] Error added at CPU cycle 728113647, next at 729964738, pending count: 1
[DRAM_CYCLE_ERROR] Cycle-based error applied! address=0x6d91734c0 additional_latency=173500 cycles
[ERROR_CYCLE] Error added at CPU cycle 729964738, next at 736361994, pending count: 1
[DRAM_CYCLE_ERROR] Cycle-based error applied! address=0x6507dd258 additional_latency=173500 cycles
[ERROR_CYCLE] Error added at CPU cycle 736361994, next at 740287178, pending count: 1
[DRAM_CYCLE_ERROR] Cycle-based error applied! address=0x1377489500 additional_latency=173500 cycles
Heartbeat CPU 0 instructions: 460000080 cycles: 739462208 heartbeat IPC: 0.7504 cumulative IPC: 0.6221 (Simulation time: 01 hr 42 min 03 sec)
[ERROR_CYCLE] Error added at CPU cycle 740287179, next at 742566863, pending count: 1
[DRAM_CYCLE_ERROR] Cycle-based error applied! address=0x6c6f6e898 additional_latency=173500 cycles
[ERROR_CYCLE] Error added at CPU cycle 742566864, next at 748440995, pending count: 1
[DRAM_CYCLE_ERROR] Cycle-based error applied! address=0x7a6140540 additional_latency=173500 cycles
[ERROR_CYCLE] Error added at CPU cycle 748440995, next at 752222168, pending count: 1
[DRAM_CYCLE_ERROR] Cycle-based error applied! address=0xf43e7d940 additional_latency=173500 cycles
[ERROR_CYCLE] Error added at CPU cycle 752222169, next at 753089532, pending count: 1
[DRAM_CYCLE_ERROR] Cycle-based error applied! address=0x18178061c0 additional_latency=173500 cycles
Heartbeat CPU 0 instructions: 470000081 cycles: 752806232 heartbeat IPC: 0.7494 cumulative IPC: 0.6243 (Simulation time: 01 hr 44 min 03 sec)
[ERROR_CYCLE] Error added at CPU cycle 753089532, next at 755305368, pending count: 1
[DRAM_CYCLE_ERROR] Cycle-based error applied! address=0xfd4058da8 additional_latency=173500 cycles
[ERROR_CYCLE] Error added at CPU cycle 755305368, next at 772665000, pending count: 1
[DRAM_CYCLE_ERROR] Cycle-based error applied! address=0x5294c3580 additional_latency=173500 cycles
Heartbeat CPU 0 instructions: 480000084 cycles: 766135923 heartbeat IPC: 0.7502 cumulative IPC: 0.6265 (Simulation time: 01 hr 45 min 59 sec)
[ERROR_CYCLE] Error added at CPU cycle 772665001, next at 782584091, pending count: 1
[DRAM_CYCLE_ERROR] Cycle-based error applied! address=0x8cc15e598 additional_latency=173500 cycles
Heartbeat CPU 0 instructions: 490000086 cycles: 779468606 heartbeat IPC: 0.75 cumulative IPC: 0.6286 (Simulation time: 01 hr 47 min 52 sec)
[ERROR_CYCLE] Error added at CPU cycle 782584092, next at 796276792, pending count: 1
[DRAM_CYCLE_ERROR] Cycle-based error applied! address=0x173f1bb6c0 additional_latency=173500 cycles
Heartbeat CPU 0 instructions: 500000089 cycles: 792810536 heartbeat IPC: 0.7495 cumulative IPC: 0.6307 (Simulation time: 01 hr 49 min 53 sec)
[ERROR_CYCLE] Error added at CPU cycle 796276792, next at 801187692, pending count: 1
[DRAM_CYCLE_ERROR] Cycle-based error applied! address=0x800361200 additional_latency=173500 cycles
[ERROR_CYCLE] Error added at CPU cycle 801187692, next at 808777645, pending count: 1
[DRAM_CYCLE_ERROR] Cycle-based error applied! address=0x1310ee4bc0 additional_latency=173500 cycles
Heartbeat CPU 0 instructions: 510000093 cycles: 806142528 heartbeat IPC: 0.7501 cumulative IPC: 0.6326 (Simulation time: 01 hr 51 min 38 sec)
[ERROR_CYCLE] Error added at CPU cycle 808777645, next at 810760668, pending count: 1
[DRAM_CYCLE_ERROR] Cycle-based error applied! address=0x14da225c80 additional_latency=173500 cycles
[ERROR_CYCLE] Error added at CPU cycle 810760669, next at 822280300, pending count: 1
[DRAM_CYCLE_ERROR] Cycle-based error applied! address=0x126b3170c8 additional_latency=173500 cycles
Heartbeat CPU 0 instructions: 520000096 cycles: 819474572 heartbeat IPC: 0.7501 cumulative IPC: 0.6346 (Simulation time: 01 hr 53 min 19 sec)
[ERROR_CYCLE] Error added at CPU cycle 822280301, next at 832288151, pending count: 1
[DRAM_CYCLE_ERROR] Cycle-based error applied! address=0x101773b9c0 additional_latency=173500 cycles
[ERROR_CYCLE] Error added at CPU cycle 832288151, next at 838593573, pending count: 1
[DRAM_CYCLE_ERROR] Cycle-based error applied! address=0x7859b5200 additional_latency=173500 cycles
Heartbeat CPU 0 instructions: 530000097 cycles: 832820041 heartbeat IPC: 0.7493 cumulative IPC: 0.6364 (Simulation time: 01 hr 55 min 10 sec)
[ERROR_CYCLE] Error added at CPU cycle 838593573, next at 846086183, pending count: 1
[DRAM_CYCLE_ERROR] Cycle-based error applied! address=0x54549c3c0 additional_latency=173500 cycles
[ERROR_CYCLE] Error added at CPU cycle 846086184, next at 862431645, pending count: 1
[DRAM_CYCLE_ERROR] Cycle-based error applied! address=0x1ecdc824c0 additional_latency=173500 cycles
Heartbeat CPU 0 instructions: 540000098 cycles: 846119193 heartbeat IPC: 0.7519 cumulative IPC: 0.6382 (Simulation time: 01 hr 57 min 12 sec)
Heartbeat CPU 0 instructions: 550000100 cycles: 859455249 heartbeat IPC: 0.7498 cumulative IPC: 0.6399 (Simulation time: 01 hr 59 min 13 sec)
[ERROR_CYCLE] Error added at CPU cycle 862431646, next at 874582316, pending count: 1
[DRAM_CYCLE_ERROR] Cycle-based error applied! address=0x17df5a1ec0 additional_latency=173500 cycles
Heartbeat CPU 0 instructions: 560000101 cycles: 872789839 heartbeat IPC: 0.7499 cumulative IPC: 0.6416 (Simulation time: 02 hr 01 min 13 sec)
[ERROR_CYCLE] Error added at CPU cycle 874582317, next at 876300437, pending count: 1
[DRAM_CYCLE_ERROR] Cycle-based error applied! address=0xd62390d40 additional_latency=173500 cycles
[ERROR_CYCLE] Error added at CPU cycle 876300437, next at 881443625, pending count: 1
[DRAM_CYCLE_ERROR] Cycle-based error applied! address=0x4a769e180 additional_latency=173500 cycles
[ERROR_CYCLE] Error added at CPU cycle 881443625, next at 885663751, pending count: 1
[DRAM_CYCLE_ERROR] Cycle-based error applied! address=0x8244990f0 additional_latency=173500 cycles
[ERROR_CYCLE] Error added at CPU cycle 885663752, next at 892255045, pending count: 1
[DRAM_CYCLE_ERROR] Cycle-based error applied! address=0x15e6cce08 additional_latency=173500 cycles
Heartbeat CPU 0 instructions: 570000103 cycles: 886139724 heartbeat IPC: 0.7491 cumulative IPC: 0.6432 (Simulation time: 02 hr 03 min 11 sec)
[ERROR_CYCLE] Error added at CPU cycle 892255045, next at 908006563, pending count: 1
[DRAM_CYCLE_ERROR] Cycle-based error applied! address=0x1a143f0dc0 additional_latency=173500 cycles
Heartbeat CPU 0 instructions: 580000106 cycles: 899483775 heartbeat IPC: 0.7494 cumulative IPC: 0.6448 (Simulation time: 02 hr 05 min 01 sec)
[ERROR_CYCLE] Error added at CPU cycle 908006564, next at 912786163, pending count: 1
[DRAM_CYCLE_ERROR] Cycle-based error applied! address=0x1c621b3420 additional_latency=173500 cycles
[ERROR_CYCLE] Error added at CPU cycle 912786163, next at 923266667, pending count: 1
[DRAM_CYCLE_ERROR] Cycle-based error applied! address=0x1cda767758 additional_latency=173500 cycles
Heartbeat CPU 0 instructions: 590000109 cycles: 912818829 heartbeat IPC: 0.7499 cumulative IPC: 0.6463 (Simulation time: 02 hr 07 min 03 sec)
[ERROR_CYCLE] Error added at CPU cycle 923266667, next at 924053485, pending count: 1
[DRAM_CYCLE_ERROR] Cycle-based error applied! address=0x1339fe5580 additional_latency=173500 cycles
[ERROR_CYCLE] Error added at CPU cycle 924053485, next at 931344785, pending count: 1
[DRAM_CYCLE_ERROR] Cycle-based error applied! address=0x1ff2e6f6c0 additional_latency=173500 cycles
Heartbeat CPU 0 instructions: 600000110 cycles: 926162247 heartbeat IPC: 0.7494 cumulative IPC: 0.6478 (Simulation time: 02 hr 08 min 42 sec)
[ERROR_CYCLE] Error added at CPU cycle 931344785, next at 936042183, pending count: 1
[DRAM_CYCLE_ERROR] Cycle-based error applied! address=0x12ce48cd80 additional_latency=173500 cycles
[ERROR_CYCLE] Error added at CPU cycle 936042184, next at 960927640, pending count: 1
[DRAM_CYCLE_ERROR] Cycle-based error applied! address=0x1929e985c0 additional_latency=173500 cycles
Heartbeat CPU 0 instructions: 610000110 cycles: 939051245 heartbeat IPC: 0.7759 cumulative IPC: 0.6496 (Simulation time: 02 hr 10 min 37 sec)
Heartbeat CPU 0 instructions: 620000110 cycles: 950926700 heartbeat IPC: 0.8421 cumulative IPC: 0.652 (Simulation time: 02 hr 12 min 24 sec)
[ERROR_CYCLE] Error added at CPU cycle 960927640, next at 975843003, pending count: 1
[DRAM_CYCLE_ERROR] Cycle-based error applied! address=0x18078dd80 additional_latency=173500 cycles
Heartbeat CPU 0 instructions: 630000110 cycles: 962818075 heartbeat IPC: 0.8409 cumulative IPC: 0.6543 (Simulation time: 02 hr 14 min 10 sec)
Heartbeat CPU 0 instructions: 640000110 cycles: 974674965 heartbeat IPC: 0.8434 cumulative IPC: 0.6566 (Simulation time: 02 hr 16 min 03 sec)
[ERROR_CYCLE] Error added at CPU cycle 975843004, next at 977626043, pending count: 1
[DRAM_CYCLE_ERROR] Cycle-based error applied! address=0x7c559e480 additional_latency=173500 cycles
[ERROR_CYCLE] Error added at CPU cycle 977626043, next at 979831902, pending count: 1
[DRAM_CYCLE_ERROR] Cycle-based error applied! address=0x1e6df0bec0 additional_latency=173500 cycles
[ERROR_CYCLE] Error added at CPU cycle 979831903, next at 985183089, pending count: 1
[DRAM_CYCLE_ERROR] Cycle-based error applied! address=0xa6701440 additional_latency=173500 cycles
[ERROR_CYCLE] Error added at CPU cycle 985183089, next at 985529715, pending count: 1
[DRAM_CYCLE_ERROR] Cycle-based error applied! address=0xe6a263b00 additional_latency=173500 cycles
[ERROR_CYCLE] Error added at CPU cycle 985529715, next at 989014745, pending count: 1
[DRAM_CYCLE_ERROR] Cycle-based error applied! address=0x23bc3eb40 additional_latency=173500 cycles
Heartbeat CPU 0 instructions: 650000111 cycles: 986573110 heartbeat IPC: 0.8405 cumulative IPC: 0.6588 (Simulation time: 02 hr 17 min 52 sec)
[ERROR_CYCLE] Error added at CPU cycle 989014745, next at 1000495001, pending count: 1
[DRAM_CYCLE_ERROR] Cycle-based error applied! address=0xdc77a93c0 additional_latency=173500 cycles
Heartbeat CPU 0 instructions: 660000112 cycles: 998440719 heartbeat IPC: 0.8426 cumulative IPC: 0.661 (Simulation time: 02 hr 19 min 42 sec)
[ERROR_CYCLE] Error added at CPU cycle 1000495002, next at 1035091477, pending count: 1
[DRAM_CYCLE_ERROR] Cycle-based error applied! address=0x1583816c00 additional_latency=173500 cycles
Heartbeat CPU 0 instructions: 670000112 cycles: 1010330287 heartbeat IPC: 0.8411 cumulative IPC: 0.6631 (Simulation time: 02 hr 21 min 10 sec)
Heartbeat CPU 0 instructions: 680000115 cycles: 1022347530 heartbeat IPC: 0.8321 cumulative IPC: 0.6651 (Simulation time: 02 hr 22 min 56 sec)
Heartbeat CPU 0 instructions: 690000119 cycles: 1034620850 heartbeat IPC: 0.8148 cumulative IPC: 0.6669 (Simulation time: 02 hr 24 min 52 sec)
[ERROR_CYCLE] Error added at CPU cycle 1035091477, next at 1043904956, pending count: 1
[DRAM_CYCLE_ERROR] Cycle-based error applied! address=0x1f1eb9c4c0 additional_latency=173500 cycles
[ERROR_CYCLE] Error added at CPU cycle 1043904957, next at 1051871016, pending count: 1
[DRAM_CYCLE_ERROR] Cycle-based error applied! address=0x1001753ac0 additional_latency=173500 cycles
Heartbeat CPU 0 instructions: 700000119 cycles: 1046184074 heartbeat IPC: 0.8648 cumulative IPC: 0.6691 (Simulation time: 02 hr 26 min 44 sec)
[ERROR_CYCLE] Error added at CPU cycle 1051871017, next at 1057060815, pending count: 1
[DRAM_CYCLE_ERROR] Cycle-based error applied! address=0x198fbde480 additional_latency=173500 cycles
[ERROR_CYCLE] Error added at CPU cycle 1057060815, next at 1067823653, pending count: 1
[DRAM_CYCLE_ERROR] Cycle-based error applied! address=0x6a09b7c40 additional_latency=173500 cycles
Heartbeat CPU 0 instructions: 710000119 cycles: 1057764649 heartbeat IPC: 0.8635 cumulative IPC: 0.6712 (Simulation time: 02 hr 28 min 37 sec)
[ERROR_CYCLE] Error added at CPU cycle 1067823654, next at 1073330273, pending count: 1
[DRAM_CYCLE_ERROR] Cycle-based error applied! address=0x8f2714640 additional_latency=173500 cycles
Heartbeat CPU 0 instructions: 720000121 cycles: 1069317794 heartbeat IPC: 0.8656 cumulative IPC: 0.6733 (Simulation time: 02 hr 30 min 24 sec)
[ERROR_CYCLE] Error added at CPU cycle 1073330274, next at 1073566411, pending count: 1
[DRAM_CYCLE_ERROR] Cycle-based error applied! address=0x236ddf200 additional_latency=173500 cycles
[ERROR_CYCLE] Error added at CPU cycle 1073566411, next at 1077955936, pending count: 1
[DRAM_CYCLE_ERROR] Cycle-based error applied! address=0x1944cd7580 additional_latency=173500 cycles
[ERROR_CYCLE] Error added at CPU cycle 1077955936, next at 1079111748, pending count: 1
[DRAM_CYCLE_ERROR] Cycle-based error applied! address=0x12426dca40 additional_latency=173500 cycles
[ERROR_CYCLE] Error added at CPU cycle 1079111749, next at 1096295147, pending count: 1
[DRAM_CYCLE_ERROR] Cycle-based error applied! address=0x1c4707d800 additional_latency=173500 cycles
Heartbeat CPU 0 instructions: 730000121 cycles: 1080889264 heartbeat IPC: 0.8642 cumulative IPC: 0.6754 (Simulation time: 02 hr 32 min 02 sec)
Heartbeat CPU 0 instructions: 740000123 cycles: 1092430634 heartbeat IPC: 0.8664 cumulative IPC: 0.6774 (Simulation time: 02 hr 33 min 44 sec)
[ERROR_CYCLE] Error added at CPU cycle 1096295148, next at 1102125947, pending count: 1
[DRAM_CYCLE_ERROR] Cycle-based error applied! address=0x1b04f08a00 additional_latency=173500 cycles
[ERROR_CYCLE] Error added at CPU cycle 1102125947, next at 1134433618, pending count: 1
[DRAM_CYCLE_ERROR] Cycle-based error applied! address=0x627c17dc0 additional_latency=173500 cycles
Heartbeat CPU 0 instructions: 750000123 cycles: 1104004669 heartbeat IPC: 0.864 cumulative IPC: 0.6793 (Simulation time: 02 hr 35 min 19 sec)
Heartbeat CPU 0 instructions: 760000124 cycles: 1115586517 heartbeat IPC: 0.8634 cumulative IPC: 0.6813 (Simulation time: 02 hr 36 min 50 sec)
Heartbeat CPU 0 instructions: 770000124 cycles: 1127291260 heartbeat IPC: 0.8544 cumulative IPC: 0.6831 (Simulation time: 02 hr 38 min 22 sec)
[ERROR_CYCLE] Error added at CPU cycle 1134433619, next at 1143019798, pending count: 1
[DRAM_CYCLE_ERROR] Cycle-based error applied! address=0xee6f914c0 additional_latency=173500 cycles
Heartbeat CPU 0 instructions: 780000127 cycles: 1140270194 heartbeat IPC: 0.7705 cumulative IPC: 0.684 (Simulation time: 02 hr 40 min 12 sec)
[ERROR_CYCLE] Error added at CPU cycle 1143019799, next at 1144527713, pending count: 1
[DRAM_CYCLE_ERROR] Cycle-based error applied! address=0xf3a412780 additional_latency=173500 cycles
[ERROR_CYCLE] Error added at CPU cycle 1144527714, next at 1147844485, pending count: 1
[DRAM_CYCLE_ERROR] Cycle-based error applied! address=0xecc86e280 additional_latency=173500 cycles
[ERROR_CYCLE] Error added at CPU cycle 1147844485, next at 1151928025, pending count: 1
[DRAM_CYCLE_ERROR] Cycle-based error applied! address=0xb248f8d80 additional_latency=173500 cycles
[ERROR_CYCLE] Error added at CPU cycle 1151928026, next at 1164212405, pending count: 1
[DRAM_CYCLE_ERROR] Cycle-based error applied! address=0x1f8427d780 additional_latency=173500 cycles
Heartbeat CPU 0 instructions: 790000128 cycles: 1153235623 heartbeat IPC: 0.7713 cumulative IPC: 0.685 (Simulation time: 02 hr 42 min 06 sec)
[ERROR_CYCLE] Error added at CPU cycle 1164212406, next at 1164864924, pending count: 1
[DRAM_CYCLE_ERROR] Cycle-based error applied! address=0x16a9be0500 additional_latency=173500 cycles
[ERROR_CYCLE] Error added at CPU cycle 1164864924, next at 1167706555, pending count: 1
[DRAM_CYCLE_ERROR] Cycle-based error applied! address=0x18351d6900 additional_latency=173500 cycles
Heartbeat CPU 0 instructions: 800000129 cycles: 1166130291 heartbeat IPC: 0.7755 cumulative IPC: 0.686 (Simulation time: 02 hr 43 min 49 sec)
[ERROR_CYCLE] Error added at CPU cycle 1167706555, next at 1176468137, pending count: 1
[DRAM_CYCLE_ERROR] Cycle-based error applied! address=0xf6527c740 additional_latency=173500 cycles
[ERROR_CYCLE] Error added at CPU cycle 1176468137, next at 1178359731, pending count: 1
[DRAM_CYCLE_ERROR] Cycle-based error applied! address=0x4e4484740 additional_latency=173500 cycles
[ERROR_CYCLE] Error added at CPU cycle 1178359731, next at 1186538523, pending count: 1
[DRAM_CYCLE_ERROR] Cycle-based error applied! address=0x1c0a2d8940 additional_latency=173500 cycles
Heartbeat CPU 0 instructions: 810000131 cycles: 1179008095 heartbeat IPC: 0.7765 cumulative IPC: 0.687 (Simulation time: 02 hr 45 min 51 sec)
[ERROR_CYCLE] Error added at CPU cycle 1186538524, next at 1187608946, pending count: 1
[DRAM_CYCLE_ERROR] Cycle-based error applied! address=0x1da377f0c0 additional_latency=173500 cycles
[ERROR_CYCLE] Error added at CPU cycle 1187608947, next at 1193860883, pending count: 1
[DRAM_CYCLE_ERROR] Cycle-based error applied! address=0x26b931600 additional_latency=173500 cycles
Heartbeat CPU 0 instructions: 820000134 cycles: 1191497925 heartbeat IPC: 0.8007 cumulative IPC: 0.6882 (Simulation time: 02 hr 47 min 27 sec)
[ERROR_CYCLE] Error added at CPU cycle 1193860883, next at 1198722524, pending count: 1
[DRAM_CYCLE_ERROR] Cycle-based error applied! address=0x1804efc00 additional_latency=173500 cycles
[ERROR_CYCLE] Error added at CPU cycle 1198722525, next at 1200139371, pending count: 1
[DRAM_CYCLE_ERROR] Cycle-based error applied! address=0x1dd58ca980 additional_latency=173500 cycles
[ERROR_CYCLE] Error added at CPU cycle 1200139371, next at 1203745576, pending count: 1
[DRAM_CYCLE_ERROR] Cycle-based error applied! address=0x1871f74140 additional_latency=173500 cycles
[ERROR_CYCLE] Error added at CPU cycle 1203745577, next at 1206541145, pending count: 1
[DRAM_CYCLE_ERROR] Cycle-based error applied! address=0x74c3994c0 additional_latency=173500 cycles
Heartbeat CPU 0 instructions: 830000135 cycles: 1203906680 heartbeat IPC: 0.8059 cumulative IPC: 0.6894 (Simulation time: 02 hr 49 min 19 sec)
[ERROR_CYCLE] Error added at CPU cycle 1206541145, next at 1208784502, pending count: 1
[DRAM_CYCLE_ERROR] Cycle-based error applied! address=0x11397f9180 additional_latency=173500 cycles
[ERROR_CYCLE] Error added at CPU cycle 1208784502, next at 1232405280, pending count: 1
[DRAM_CYCLE_ERROR] Cycle-based error applied! address=0x12e047100 additional_latency=173500 cycles
Heartbeat CPU 0 instructions: 840000139 cycles: 1216298222 heartbeat IPC: 0.807 cumulative IPC: 0.6906 (Simulation time: 02 hr 51 min 14 sec)
Heartbeat CPU 0 instructions: 850000140 cycles: 1228718087 heartbeat IPC: 0.8052 cumulative IPC: 0.6918 (Simulation time: 02 hr 53 min 10 sec)
[ERROR_CYCLE] Error added at CPU cycle 1232405281, next at 1236507134, pending count: 1
[DRAM_CYCLE_ERROR] Cycle-based error applied! address=0x449163900 additional_latency=173500 cycles
[ERROR_CYCLE] Error added at CPU cycle 1236507134, next at 1244305712, pending count: 1
[DRAM_CYCLE_ERROR] Cycle-based error applied! address=0x593de9740 additional_latency=173500 cycles
Heartbeat CPU 0 instructions: 860000144 cycles: 1241375203 heartbeat IPC: 0.7901 cumulative IPC: 0.6928 (Simulation time: 02 hr 55 min 06 sec)
[ERROR_CYCLE] Error added at CPU cycle 1244305712, next at 1247503943, pending count: 1
[DRAM_CYCLE_ERROR] Cycle-based error applied! address=0xc93d97e40 additional_latency=173500 cycles
[ERROR_CYCLE] Error added at CPU cycle 1247503943, next at 1254600384, pending count: 1
[DRAM_CYCLE_ERROR] Cycle-based error applied! address=0xdcbb8f300 additional_latency=173500 cycles
Heartbeat CPU 0 instructions: 870000145 cycles: 1254249047 heartbeat IPC: 0.7768 cumulative IPC: 0.6936 (Simulation time: 02 hr 56 min 59 sec)
[ERROR_CYCLE] Error added at CPU cycle 1254600384, next at 1254717674, pending count: 1
[DRAM_CYCLE_ERROR] Cycle-based error applied! address=0x51c500600 additional_latency=173500 cycles
[ERROR_CYCLE] Error added at CPU cycle 1254717674, next at 1256963700, pending count: 1
[DRAM_CYCLE_ERROR] Cycle-based error applied! address=0x11f892c840 additional_latency=173500 cycles
[ERROR_CYCLE] Error added at CPU cycle 1256963700, next at 1257921434, pending count: 1
[DRAM_CYCLE_ERROR] Cycle-based error applied! address=0x93fd6eb00 additional_latency=173500 cycles
[ERROR_CYCLE] Error added at CPU cycle 1257921435, next at 1268455648, pending count: 1
[DRAM_CYCLE_ERROR] Cycle-based error applied! address=0x32b6a2ec0 additional_latency=173500 cycles
Heartbeat CPU 0 instructions: 880000147 cycles: 1267119153 heartbeat IPC: 0.777 cumulative IPC: 0.6945 (Simulation time: 02 hr 58 min 53 sec)
[ERROR_CYCLE] Error added at CPU cycle 1268455648, next at 1269143707, pending count: 1
[DRAM_CYCLE_ERROR] Cycle-based error applied! address=0xf7b6e65c0 additional_latency=173500 cycles
[ERROR_CYCLE] Error added at CPU cycle 1269143707, next at 1278558868, pending count: 1
[DRAM_CYCLE_ERROR] Cycle-based error applied! address=0x1653f194c0 additional_latency=173500 cycles
[ERROR_CYCLE] Error added at CPU cycle 1278558869, next at 1287946456, pending count: 1
[DRAM_CYCLE_ERROR] Cycle-based error applied! address=0x1bb756e940 additional_latency=173500 cycles
Heartbeat CPU 0 instructions: 890000147 cycles: 1279995566 heartbeat IPC: 0.7766 cumulative IPC: 0.6953 (Simulation time: 03 hr 00 min 52 sec)
[ERROR_CYCLE] Error added at CPU cycle 1287946456, next at 1300702152, pending count: 1
[DRAM_CYCLE_ERROR] Cycle-based error applied! address=0x6fc379700 additional_latency=173500 cycles
Heartbeat CPU 0 instructions: 900000150 cycles: 1292765410 heartbeat IPC: 0.7831 cumulative IPC: 0.6962 (Simulation time: 03 hr 02 min 22 sec)
[ERROR_CYCLE] Error added at CPU cycle 1300702153, next at 1309431894, pending count: 1
[DRAM_CYCLE_ERROR] Cycle-based error applied! address=0xaf717b080 additional_latency=173500 cycles
Heartbeat CPU 0 instructions: 910000151 cycles: 1305258281 heartbeat IPC: 0.8005 cumulative IPC: 0.6972 (Simulation time: 03 hr 03 min 57 sec)
[ERROR_CYCLE] Error added at CPU cycle 1309431894, next at 1315837204, pending count: 1
[DRAM_CYCLE_ERROR] Cycle-based error applied! address=0x19b55e1418 additional_latency=173500 cycles
[ERROR_CYCLE] Error added at CPU cycle 1315837204, next at 1321488363, pending count: 1
[DRAM_CYCLE_ERROR] Cycle-based error applied! address=0x1ea36a69c0 additional_latency=173500 cycles
Heartbeat CPU 0 instructions: 920000151 cycles: 1317745396 heartbeat IPC: 0.8008 cumulative IPC: 0.6982 (Simulation time: 03 hr 05 min 46 sec)
[ERROR_CYCLE] Error added at CPU cycle 1321488363, next at 1323047984, pending count: 1
[DRAM_CYCLE_ERROR] Cycle-based error applied! address=0x3723bae00 additional_latency=173500 cycles
[ERROR_CYCLE] Error added at CPU cycle 1323047984, next at 1325903536, pending count: 1
[DRAM_CYCLE_ERROR] Cycle-based error applied! address=0x1725a08740 additional_latency=173500 cycles
[ERROR_CYCLE] Error added at CPU cycle 1325903536, next at 1326611268, pending count: 1
[DRAM_CYCLE_ERROR] Cycle-based error applied! address=0x222bb9b40 additional_latency=173500 cycles
[ERROR_CYCLE] Error added at CPU cycle 1326611268, next at 1332705889, pending count: 1
[DRAM_CYCLE_ERROR] Cycle-based error applied! address=0x17bb65fb40 additional_latency=173500 cycles
Heartbeat CPU 0 instructions: 930000151 cycles: 1330135409 heartbeat IPC: 0.8071 cumulative IPC: 0.6992 (Simulation time: 03 hr 07 min 06 sec)
[ERROR_CYCLE] Error added at CPU cycle 1332705890, next at 1340847840, pending count: 1
[DRAM_CYCLE_ERROR] Cycle-based error applied! address=0x980cfc480 additional_latency=173500 cycles
[ERROR_CYCLE] Error added at CPU cycle 1340847840, next at 1345469816, pending count: 1
[DRAM_CYCLE_ERROR] Cycle-based error applied! address=0x1e8a6260c0 additional_latency=173500 cycles
Heartbeat CPU 0 instructions: 940000153 cycles: 1342527764 heartbeat IPC: 0.8069 cumulative IPC: 0.7002 (Simulation time: 03 hr 08 min 24 sec)
[ERROR_CYCLE] Error added at CPU cycle 1345469816, next at 1345959592, pending count: 1
[DRAM_CYCLE_ERROR] Cycle-based error applied! address=0x1308e48940 additional_latency=173500 cycles
[ERROR_CYCLE] Error added at CPU cycle 1345959593, next at 1347625360, pending count: 1
[DRAM_CYCLE_ERROR] Cycle-based error applied! address=0x1196813240 additional_latency=173500 cycles
[ERROR_CYCLE] Error added at CPU cycle 1347625360, next at 1351706167, pending count: 1
[DRAM_CYCLE_ERROR] Cycle-based error applied! address=0xb1ac35b40 additional_latency=173500 cycles
[ERROR_CYCLE] Error added at CPU cycle 1351706167, next at 1358933144, pending count: 1
[DRAM_CYCLE_ERROR] Cycle-based error applied! address=0x550c91880 additional_latency=173500 cycles
Heartbeat CPU 0 instructions: 950000156 cycles: 1355484898 heartbeat IPC: 0.7718 cumulative IPC: 0.7009 (Simulation time: 03 hr 10 min 23 sec)
[ERROR_CYCLE] Error added at CPU cycle 1358933144, next at 1370326360, pending count: 1
[DRAM_CYCLE_ERROR] Cycle-based error applied! address=0x381935c40 additional_latency=173500 cycles
Heartbeat CPU 0 instructions: 960000160 cycles: 1368429720 heartbeat IPC: 0.7725 cumulative IPC: 0.7015 (Simulation time: 03 hr 12 min 23 sec)
[ERROR_CYCLE] Error added at CPU cycle 1370326360, next at 1379014015, pending count: 1
[DRAM_CYCLE_ERROR] Cycle-based error applied! address=0x187d69be00 additional_latency=173500 cycles
[ERROR_CYCLE] Error added at CPU cycle 1379014016, next at 1379564513, pending count: 1
[DRAM_CYCLE_ERROR] Cycle-based error applied! address=0x3179e0bc0 additional_latency=173500 cycles
[ERROR_CYCLE] Error added at CPU cycle 1379564514, next at 1386176235, pending count: 1
[DRAM_CYCLE_ERROR] Cycle-based error applied! address=0x929660380 additional_latency=173500 cycles
Heartbeat CPU 0 instructions: 970000161 cycles: 1381323922 heartbeat IPC: 0.7755 cumulative IPC: 0.7022 (Simulation time: 03 hr 14 min 25 sec)
[ERROR_CYCLE] Error added at CPU cycle 1386176235, next at 1386297657, pending count: 1
[DRAM_CYCLE_ERROR] Cycle-based error applied! address=0xbbf8e8040 additional_latency=173500 cycles
[ERROR_CYCLE] Error added at CPU cycle 1386297657, next at 1408852266, pending count: 1
[DRAM_CYCLE_ERROR] Cycle-based error applied! address=0x76ed05040 additional_latency=173500 cycles
Heartbeat CPU 0 instructions: 980000165 cycles: 1394216567 heartbeat IPC: 0.7756 cumulative IPC: 0.7029 (Simulation time: 03 hr 16 min 27 sec)
Heartbeat CPU 0 instructions: 990000165 cycles: 1406726995 heartbeat IPC: 0.7993 cumulative IPC: 0.7038 (Simulation time: 03 hr 18 min 25 sec)
[ERROR_CYCLE] Error added at CPU cycle 1408852267, next at 1434518356, pending count: 1
[DRAM_CYCLE_ERROR] Cycle-based error applied! address=0x1074e15a40 additional_latency=173500 cycles
Heartbeat CPU 0 instructions: 1000000165 cycles: 1419163652 heartbeat IPC: 0.8041 cumulative IPC: 0.7046 (Simulation time: 03 hr 20 min 24 sec)
Heartbeat CPU 0 instructions: 1010000168 cycles: 1431610529 heartbeat IPC: 0.8034 cumulative IPC: 0.7055 (Simulation time: 03 hr 22 min 22 sec)
[ERROR_CYCLE] Error added at CPU cycle 1434518357, next at 1435050701, pending count: 1
[DRAM_CYCLE_ERROR] Cycle-based error applied! address=0xa2f95f000 additional_latency=173500 cycles
[ERROR_CYCLE] Error added at CPU cycle 1435050702, next at 1438242552, pending count: 1
[DRAM_CYCLE_ERROR] Cycle-based error applied! address=0x10ed291b80 additional_latency=173500 cycles
[ERROR_CYCLE] Error added at CPU cycle 1438242552, next at 1439973246, pending count: 1
[DRAM_CYCLE_ERROR] Cycle-based error applied! address=0x1f2ab3da40 additional_latency=173500 cycles
[ERROR_CYCLE] Error added at CPU cycle 1439973247, next at 1453079371, pending count: 1
[DRAM_CYCLE_ERROR] Cycle-based error applied! address=0x11c639c800 additional_latency=173500 cycles
Heartbeat CPU 0 instructions: 1020000172 cycles: 1444028341 heartbeat IPC: 0.8053 cumulative IPC: 0.7064 (Simulation time: 03 hr 24 min 15 sec)
[ERROR_CYCLE] Error added at CPU cycle 1453079372, next at 1460423027, pending count: 1
[DRAM_CYCLE_ERROR] Cycle-based error applied! address=0x933fc42c0 additional_latency=173500 cycles
Heartbeat CPU 0 instructions: 1030000174 cycles: 1458396128 heartbeat IPC: 0.696 cumulative IPC: 0.7063 (Simulation time: 03 hr 26 min 06 sec)
[ERROR_CYCLE] Error added at CPU cycle 1460423028, next at 1467814764, pending count: 1
[DRAM_CYCLE_ERROR] Cycle-based error applied! address=0x89bf05300 additional_latency=173500 cycles
[ERROR_CYCLE] Error added at CPU cycle 1467814764, next at 1475620213, pending count: 1
[DRAM_CYCLE_ERROR] Cycle-based error applied! address=0xcae44d508 additional_latency=173500 cycles
Heartbeat CPU 0 instructions: 1040000174 cycles: 1471333216 heartbeat IPC: 0.773 cumulative IPC: 0.7068 (Simulation time: 03 hr 28 min 05 sec)
[ERROR_CYCLE] Error added at CPU cycle 1475620214, next at 1480513243, pending count: 1
[DRAM_CYCLE_ERROR] Cycle-based error applied! address=0xc9b6c4180 additional_latency=173500 cycles
[ERROR_CYCLE] Error added at CPU cycle 1480513244, next at 1511248733, pending count: 1
[DRAM_CYCLE_ERROR] Cycle-based error applied! address=0xe46ff1840 additional_latency=173500 cycles
Heartbeat CPU 0 instructions: 1050000175 cycles: 1483862145 heartbeat IPC: 0.7982 cumulative IPC: 0.7076 (Simulation time: 03 hr 30 min 06 sec)
Heartbeat CPU 0 instructions: 1060000175 cycles: 1496419213 heartbeat IPC: 0.7964 cumulative IPC: 0.7084 (Simulation time: 03 hr 31 min 57 sec)
Heartbeat CPU 0 instructions: 1070000176 cycles: 1508986418 heartbeat IPC: 0.7957 cumulative IPC: 0.7091 (Simulation time: 03 hr 33 min 57 sec)
[ERROR_CYCLE] Error added at CPU cycle 1511248733, next at 1514446758, pending count: 1
[DRAM_CYCLE_ERROR] Cycle-based error applied! address=0xba0c85340 additional_latency=173500 cycles
[ERROR_CYCLE] Error added at CPU cycle 1514446758, next at 1515078884, pending count: 1
[DRAM_CYCLE_ERROR] Cycle-based error applied! address=0x1196d12740 additional_latency=173500 cycles
[ERROR_CYCLE] Error added at CPU cycle 1515078885, next at 1517294807, pending count: 1
[DRAM_CYCLE_ERROR] Cycle-based error applied! address=0x1b22aa0800 additional_latency=173500 cycles
[ERROR_CYCLE] Error added at CPU cycle 1517294807, next at 1519651159, pending count: 1
[DRAM_CYCLE_ERROR] Cycle-based error applied! address=0x10a3fbabc0 additional_latency=173500 cycles
[ERROR_CYCLE] Error added at CPU cycle 1519651159, next at 1533218412, pending count: 1
[DRAM_CYCLE_ERROR] Cycle-based error applied! address=0xe56b800 additional_latency=173500 cycles
Heartbeat CPU 0 instructions: 1080000176 cycles: 1521393512 heartbeat IPC: 0.806 cumulative IPC: 0.7099 (Simulation time: 03 hr 35 min 56 sec)
[ERROR_CYCLE] Error added at CPU cycle 1533218412, next at 1535994456, pending count: 1
[DRAM_CYCLE_ERROR] Cycle-based error applied! address=0x15f1ffc0c0 additional_latency=173500 cycles
Heartbeat CPU 0 instructions: 1090000179 cycles: 1533624947 heartbeat IPC: 0.8176 cumulative IPC: 0.7107 (Simulation time: 03 hr 37 min 55 sec)
[ERROR_CYCLE] Error added at CPU cycle 1535994457, next at 1562717751, pending count: 1
[DRAM_CYCLE_ERROR] Cycle-based error applied! address=0x1630032ac0 additional_latency=173500 cycles
Heartbeat CPU 0 instructions: 1100000181 cycles: 1545842966 heartbeat IPC: 0.8185 cumulative IPC: 0.7116 (Simulation time: 03 hr 39 min 54 sec)
Heartbeat CPU 0 instructions: 1110000183 cycles: 1557940754 heartbeat IPC: 0.8266 cumulative IPC: 0.7125 (Simulation time: 03 hr 41 min 51 sec)
[ERROR_CYCLE] Error added at CPU cycle 1562717751, next at 1566368072, pending count: 1
[DRAM_CYCLE_ERROR] Cycle-based error applied! address=0x11b3a7fd80 additional_latency=173500 cycles
[ERROR_CYCLE] Error added at CPU cycle 1566368073, next at 1571530525, pending count: 1
[DRAM_CYCLE_ERROR] Cycle-based error applied! address=0x18b12b4fc0 additional_latency=173500 cycles
Heartbeat CPU 0 instructions: 1120000185 cycles: 1570083209 heartbeat IPC: 0.8236 cumulative IPC: 0.7133 (Simulation time: 03 hr 43 min 50 sec)
[ERROR_CYCLE] Error added at CPU cycle 1571530526, next at 1580555846, pending count: 1
[DRAM_CYCLE_ERROR] Cycle-based error applied! address=0x12f110d900 additional_latency=173500 cycles
[ERROR_CYCLE] Error added at CPU cycle 1580555846, next at 1582872549, pending count: 1
[DRAM_CYCLE_ERROR] Cycle-based error applied! address=0x88816ea00 additional_latency=173500 cycles
Heartbeat CPU 0 instructions: 1130000189 cycles: 1582707512 heartbeat IPC: 0.7921 cumulative IPC: 0.714 (Simulation time: 03 hr 45 min 51 sec)
[ERROR_CYCLE] Error added at CPU cycle 1582872550, next at 1599922964, pending count: 1
[DRAM_CYCLE_ERROR] Cycle-based error applied! address=0x1d7bc18e40 additional_latency=173500 cycles
Heartbeat CPU 0 instructions: 1140000193 cycles: 1595326778 heartbeat IPC: 0.7924 cumulative IPC: 0.7146 (Simulation time: 03 hr 47 min 52 sec)
[ERROR_CYCLE] Error added at CPU cycle 1599922964, next at 1631974949, pending count: 1
[DRAM_CYCLE_ERROR] Cycle-based error applied! address=0x108cf7da80 additional_latency=173500 cycles
Heartbeat CPU 0 instructions: 1150000196 cycles: 1607925576 heartbeat IPC: 0.7937 cumulative IPC: 0.7152 (Simulation time: 03 hr 49 min 53 sec)
Heartbeat CPU 0 instructions: 1160000196 cycles: 1620480835 heartbeat IPC: 0.7965 cumulative IPC: 0.7158 (Simulation time: 03 hr 51 min 53 sec)
[ERROR_CYCLE] Error added at CPU cycle 1631974950, next at 1633180686, pending count: 1
[DRAM_CYCLE_ERROR] Cycle-based error applied! address=0x115192de80 additional_latency=173500 cycles
Heartbeat CPU 0 instructions: 1170000199 cycles: 1632722632 heartbeat IPC: 0.8169 cumulative IPC: 0.7166 (Simulation time: 03 hr 53 min 49 sec)
[ERROR_CYCLE] Error added at CPU cycle 1633180686, next at 1638048642, pending count: 1
[DRAM_CYCLE_ERROR] Cycle-based error applied! address=0xbab915d40 additional_latency=173500 cycles
[ERROR_CYCLE] Error added at CPU cycle 1638048642, next at 1645854556, pending count: 1
[DRAM_CYCLE_ERROR] Cycle-based error applied! address=0x1f6d5d1540 additional_latency=173500 cycles
Heartbeat CPU 0 instructions: 1180000199 cycles: 1644843029 heartbeat IPC: 0.8251 cumulative IPC: 0.7174 (Simulation time: 03 hr 55 min 48 sec)
[ERROR_CYCLE] Error added at CPU cycle 1645854557, next at 1648355040, pending count: 1
[DRAM_CYCLE_ERROR] Cycle-based error applied! address=0x1df3b08c0 additional_latency=173500 cycles
[ERROR_CYCLE] Error added at CPU cycle 1648355040, next at 1665069057, pending count: 1
[DRAM_CYCLE_ERROR] Cycle-based error applied! address=0x1c81f17d80 additional_latency=173500 cycles
Heartbeat CPU 0 instructions: 1190000203 cycles: 1656964271 heartbeat IPC: 0.825 cumulative IPC: 0.7182 (Simulation time: 03 hr 57 min 44 sec)
[ERROR_CYCLE] Error added at CPU cycle 1665069058, next at 1669208916, pending count: 1
[DRAM_CYCLE_ERROR] Cycle-based error applied! address=0x15e8cc06c0 additional_latency=173500 cycles
Heartbeat CPU 0 instructions: 1200000206 cycles: 1669078476 heartbeat IPC: 0.8255 cumulative IPC: 0.719 (Simulation time: 03 hr 59 min 40 sec)
[ERROR_CYCLE] Error added at CPU cycle 1669208917, next at 1697675054, pending count: 1
[DRAM_CYCLE_ERROR] Cycle-based error applied! address=0x17021b2400 additional_latency=173500 cycles
Heartbeat CPU 0 instructions: 1210000210 cycles: 1681349602 heartbeat IPC: 0.8149 cumulative IPC: 0.7197 (Simulation time: 04 hr 01 min 21 sec)
Heartbeat CPU 0 instructions: 1220000210 cycles: 1693883132 heartbeat IPC: 0.7979 cumulative IPC: 0.7202 (Simulation time: 04 hr 03 min 05 sec)
[ERROR_CYCLE] Error added at CPU cycle 1697675055, next at 1701675293, pending count: 1
[DRAM_CYCLE_ERROR] Cycle-based error applied! address=0x28b296bc0 additional_latency=173500 cycles
[ERROR_CYCLE] Error added at CPU cycle 1701675294, next at 1708716282, pending count: 1
[DRAM_CYCLE_ERROR] Cycle-based error applied! address=0xc91a40d40 additional_latency=173500 cycles
Heartbeat CPU 0 instructions: 1230000212 cycles: 1706425195 heartbeat IPC: 0.7973 cumulative IPC: 0.7208 (Simulation time: 04 hr 04 min 30 sec)
[ERROR_CYCLE] Error added at CPU cycle 1708716282, next at 1709439797, pending count: 1
[DRAM_CYCLE_ERROR] Cycle-based error applied! address=0x79fc855c0 additional_latency=173500 cycles
[ERROR_CYCLE] Error added at CPU cycle 1709439798, next at 1711563017, pending count: 1
[DRAM_CYCLE_ERROR] Cycle-based error applied! address=0xe2e4ae0c0 additional_latency=173500 cycles
[ERROR_CYCLE] Error added at CPU cycle 1711563017, next at 1715003487, pending count: 1
[DRAM_CYCLE_ERROR] Cycle-based error applied! address=0xaed73dc80 additional_latency=173500 cycles
[ERROR_CYCLE] Error added at CPU cycle 1715003488, next at 1715066771, pending count: 1
[DRAM_CYCLE_ERROR] Cycle-based error applied! address=0x1c42287200 additional_latency=173500 cycles
[ERROR_CYCLE] Error added at CPU cycle 1715066772, next at 1736135364, pending count: 1
[DRAM_CYCLE_ERROR] Cycle-based error applied! address=0xb88238300 additional_latency=173500 cycles
Heartbeat CPU 0 instructions: 1240000213 cycles: 1718979706 heartbeat IPC: 0.7965 cumulative IPC: 0.7214 (Simulation time: 04 hr 06 min 30 sec)
Heartbeat CPU 0 instructions: 1250000215 cycles: 1731538532 heartbeat IPC: 0.7963 cumulative IPC: 0.7219 (Simulation time: 04 hr 08 min 30 sec)
[ERROR_CYCLE] Error added at CPU cycle 1736135365, next at 1736452711, pending count: 1
[DRAM_CYCLE_ERROR] Cycle-based error applied! address=0xe437beec0 additional_latency=173500 cycles
[ERROR_CYCLE] Error added at CPU cycle 1736452711, next at 1756027423, pending count: 1
[DRAM_CYCLE_ERROR] Cycle-based error applied! address=0x6d427c80 additional_latency=173500 cycles
Heartbeat CPU 0 instructions: 1260000215 cycles: 1743805121 heartbeat IPC: 0.8152 cumulative IPC: 0.7226 (Simulation time: 04 hr 10 min 17 sec)
[ERROR_CYCLE] Error added at CPU cycle 1756027423, next at 1763549234, pending count: 1
[DRAM_CYCLE_ERROR] Cycle-based error applied! address=0x559c27040 additional_latency=173500 cycles
Heartbeat CPU 0 instructions: 1270000215 cycles: 1756045255 heartbeat IPC: 0.817 cumulative IPC: 0.7232 (Simulation time: 04 hr 12 min 16 sec)
[ERROR_CYCLE] Error added at CPU cycle 1763549234, next at 1773768970, pending count: 1
[DRAM_CYCLE_ERROR] Cycle-based error applied! address=0x1109a73d80 additional_latency=173500 cycles
Heartbeat CPU 0 instructions: 1280000219 cycles: 1768172394 heartbeat IPC: 0.8246 cumulative IPC: 0.7239 (Simulation time: 04 hr 14 min 13 sec)
[ERROR_CYCLE] Error added at CPU cycle 1773768971, next at 1778443844, pending count: 1
[DRAM_CYCLE_ERROR] Cycle-based error applied! address=0x2a2739300 additional_latency=173500 cycles
[ERROR_CYCLE] Error added at CPU cycle 1778443844, next at 1782835365, pending count: 1
[DRAM_CYCLE_ERROR] Cycle-based error applied! address=0x18c586d3c0 additional_latency=173500 cycles
Heartbeat CPU 0 instructions: 1290000222 cycles: 1780257813 heartbeat IPC: 0.8274 cumulative IPC: 0.7246 (Simulation time: 04 hr 16 min 08 sec)
[ERROR_CYCLE] Error added at CPU cycle 1782835365, next at 1785615858, pending count: 1
[DRAM_CYCLE_ERROR] Cycle-based error applied! address=0x104b538f00 additional_latency=173500 cycles
[ERROR_CYCLE] Error added at CPU cycle 1785615859, next at 1788412747, pending count: 1
[DRAM_CYCLE_ERROR] Cycle-based error applied! address=0x604d65640 additional_latency=173500 cycles
[ERROR_CYCLE] Error added at CPU cycle 1788412747, next at 1790117615, pending count: 1
[DRAM_CYCLE_ERROR] Cycle-based error applied! address=0x1fb1325150 additional_latency=173500 cycles
[ERROR_CYCLE] Error added at CPU cycle 1790117615, next at 1798464365, pending count: 1
[DRAM_CYCLE_ERROR] Cycle-based error applied! address=0x1ecce05db0 additional_latency=173500 cycles
[ERROR_CYCLE] Error added at CPU cycle 1798464365, next at 1814844775, pending count: 1
[DRAM_CYCLE_ERROR] Cycle-based error applied! address=0x21ddc94f0 additional_latency=173500 cycles
[ERROR_CYCLE] Error added at CPU cycle 1814844776, next at 1830785667, pending count: 1
[DRAM_CYCLE_ERROR] Cycle-based error applied! address=0x1cc0bb4bb0 additional_latency=173500 cycles
[ERROR_CYCLE] Error added at CPU cycle 1830785668, next at 1835439145, pending count: 1
[DRAM_CYCLE_ERROR] Cycle-based error applied! address=0x1f09ab56b0 additional_latency=173500 cycles
[ERROR_CYCLE] Error added at CPU cycle 1835439146, next at 1836059153, pending count: 1
[DRAM_CYCLE_ERROR] Cycle-based error applied! address=0x1c775d2730 additional_latency=173500 cycles
[ERROR_CYCLE] Error added at CPU cycle 1836059154, next at 1837493634, pending count: 1
[DRAM_CYCLE_ERROR] Cycle-based error applied! address=0x178a131170 additional_latency=173500 cycles
[ERROR_CYCLE] Error added at CPU cycle 1837493635, next at 1844607626, pending count: 1
[DRAM_CYCLE_ERROR] Cycle-based error applied! address=0xd23ee2f70 additional_latency=173500 cycles
Heartbeat CPU 0 instructions: 1300000224 cycles: 1841928329 heartbeat IPC: 0.1622 cumulative IPC: 0.7058 (Simulation time: 04 hr 23 min 58 sec)
[ERROR_CYCLE] Error added at CPU cycle 1844607626, next at 1854071328, pending count: 1
[DRAM_CYCLE_ERROR] Cycle-based error applied! address=0xe189fe5c0 additional_latency=173500 cycles
[ERROR_CYCLE] Error added at CPU cycle 1854071328, next at 1855472322, pending count: 1
[DRAM_CYCLE_ERROR] Cycle-based error applied! address=0x18dede3540 additional_latency=173500 cycles
Heartbeat CPU 0 instructions: 1310000224 cycles: 1855221331 heartbeat IPC: 0.7523 cumulative IPC: 0.7061 (Simulation time: 04 hr 25 min 33 sec)
[ERROR_CYCLE] Error added at CPU cycle 1855472323, next at 1857304410, pending count: 1
[DRAM_CYCLE_ERROR] Cycle-based error applied! address=0xe12d08880 additional_latency=173500 cycles
[ERROR_CYCLE] Error added at CPU cycle 1857304410, next at 1862584605, pending count: 1
[DRAM_CYCLE_ERROR] Cycle-based error applied! address=0x10d9045948 additional_latency=173500 cycles
[ERROR_CYCLE] Error added at CPU cycle 1862584605, next at 1864393960, pending count: 1
[DRAM_CYCLE_ERROR] Cycle-based error applied! address=0x1bf6134e80 additional_latency=173500 cycles
[ERROR_CYCLE] Error added at CPU cycle 1864393960, next at 1864933537, pending count: 1
[DRAM_CYCLE_ERROR] Cycle-based error applied! address=0x2f88a6ac0 additional_latency=173500 cycles
[ERROR_CYCLE] Error added at CPU cycle 1864933537, next at 1865851525, pending count: 1
[DRAM_CYCLE_ERROR] Cycle-based error applied! address=0x167fdbcb80 additional_latency=173500 cycles
[ERROR_CYCLE] Error added at CPU cycle 1865851526, next at 1867251092, pending count: 1
[DRAM_CYCLE_ERROR] Cycle-based error applied! address=0x18aa7bc380 additional_latency=173500 cycles
[ERROR_CYCLE] Error added at CPU cycle 1867251092, next at 1900500575, pending count: 1
[DRAM_CYCLE_ERROR] Cycle-based error applied! address=0xecdafc248 additional_latency=173500 cycles
Heartbeat CPU 0 instructions: 1320000224 cycles: 1867751567 heartbeat IPC: 0.7981 cumulative IPC: 0.7067 (Simulation time: 04 hr 27 min 16 sec)
Heartbeat CPU 0 instructions: 1330000224 cycles: 1880282186 heartbeat IPC: 0.798 cumulative IPC: 0.7073 (Simulation time: 04 hr 28 min 31 sec)
Heartbeat CPU 0 instructions: 1340000226 cycles: 1892801971 heartbeat IPC: 0.7987 cumulative IPC: 0.7079 (Simulation time: 04 hr 29 min 49 sec)
[ERROR_CYCLE] Error added at CPU cycle 1900500576, next at 1910563094, pending count: 1
[DRAM_CYCLE_ERROR] Cycle-based error applied! address=0x5f9f2fd08 additional_latency=173500 cycles
Heartbeat CPU 0 instructions: 1350000226 cycles: 1905357812 heartbeat IPC: 0.7964 cumulative IPC: 0.7085 (Simulation time: 04 hr 31 min 24 sec)
[ERROR_CYCLE] Error added at CPU cycle 1910563095, next at 1915408338, pending count: 1
[DRAM_CYCLE_ERROR] Cycle-based error applied! address=0x1bc973cdc0 additional_latency=173500 cycles
[ERROR_CYCLE] Error added at CPU cycle 1915408338, next at 1935312457, pending count: 1
[DRAM_CYCLE_ERROR] Cycle-based error applied! address=0x1665c41640 additional_latency=173500 cycles
Heartbeat CPU 0 instructions: 1360000227 cycles: 1917677829 heartbeat IPC: 0.8117 cumulative IPC: 0.7092 (Simulation time: 04 hr 33 min 12 sec)
Heartbeat CPU 0 instructions: 1370000227 cycles: 1929818951 heartbeat IPC: 0.8236 cumulative IPC: 0.7099 (Simulation time: 04 hr 34 min 55 sec)
[ERROR_CYCLE] Error added at CPU cycle 1935312457, next at 1939316428, pending count: 1
[DRAM_CYCLE_ERROR] Cycle-based error applied! address=0xcccc93f40 additional_latency=173500 cycles
[ERROR_CYCLE] Error added at CPU cycle 1939316429, next at 1943440983, pending count: 1
[DRAM_CYCLE_ERROR] Cycle-based error applied! address=0x1d1d47adc8 additional_latency=173500 cycles
Heartbeat CPU 0 instructions: 1380000231 cycles: 1942272605 heartbeat IPC: 0.803 cumulative IPC: 0.7105 (Simulation time: 04 hr 36 min 38 sec)
[ERROR_CYCLE] Error added at CPU cycle 1943440984, next at 1969741263, pending count: 1
[DRAM_CYCLE_ERROR] Cycle-based error applied! address=0x91b908b08 additional_latency=173500 cycles
Heartbeat CPU 0 instructions: 1390000235 cycles: 1954756405 heartbeat IPC: 0.801 cumulative IPC: 0.7111 (Simulation time: 04 hr 38 min 29 sec)
Heartbeat CPU 0 instructions: 1400000238 cycles: 1967157076 heartbeat IPC: 0.8064 cumulative IPC: 0.7117 (Simulation time: 04 hr 40 min 02 sec)
[ERROR_CYCLE] Error added at CPU cycle 1969741263, next at 1976892412, pending count: 1
[DRAM_CYCLE_ERROR] Cycle-based error applied! address=0x15f5905808 additional_latency=173500 cycles
[ERROR_CYCLE] Error added at CPU cycle 1976892413, next at 1985788570, pending count: 1
[DRAM_CYCLE_ERROR] Cycle-based error applied! address=0x1923282200 additional_latency=173500 cycles
Heartbeat CPU 0 instructions: 1410000241 cycles: 1979881095 heartbeat IPC: 0.7859 cumulative IPC: 0.7122 (Simulation time: 04 hr 41 min 55 sec)
[ERROR_CYCLE] Error added at CPU cycle 1985788571, next at 1987556565, pending count: 1
[DRAM_CYCLE_ERROR] Cycle-based error applied! address=0x46dab9840 additional_latency=173500 cycles
[ERROR_CYCLE] Error added at CPU cycle 1987556566, next at 1990261281, pending count: 1
[DRAM_CYCLE_ERROR] Cycle-based error applied! address=0x1bdfe1c140 additional_latency=173500 cycles
[ERROR_CYCLE] Error added at CPU cycle 1990261282, next at 1993701914, pending count: 1
[DRAM_CYCLE_ERROR] Cycle-based error applied! address=0x1bbe9f2e00 additional_latency=173500 cycles
Heartbeat CPU 0 instructions: 1420000242 cycles: 1992910371 heartbeat IPC: 0.7675 cumulative IPC: 0.7125 (Simulation time: 04 hr 43 min 51 sec)
[ERROR_CYCLE] Error added at CPU cycle 1993701914, next at 2004551432, pending count: 1
[DRAM_CYCLE_ERROR] Cycle-based error applied! address=0x141fd7fbc8 additional_latency=173500 cycles
[ERROR_CYCLE] Error added at CPU cycle 2004551432, next at 2012423380, pending count: 1
[DRAM_CYCLE_ERROR] Cycle-based error applied! address=0x1b6ea73680 additional_latency=173500 cycles
Heartbeat CPU 0 instructions: 1430000244 cycles: 2005797804 heartbeat IPC: 0.7759 cumulative IPC: 0.7129 (Simulation time: 04 hr 45 min 47 sec)
[ERROR_CYCLE] Error added at CPU cycle 2012423380, next at 2016554019, pending count: 1
[DRAM_CYCLE_ERROR] Cycle-based error applied! address=0x1b9b36d500 additional_latency=173500 cycles
[ERROR_CYCLE] Error added at CPU cycle 2016554019, next at 2021582144, pending count: 1
[DRAM_CYCLE_ERROR] Cycle-based error applied! address=0x4837fe588 additional_latency=173500 cycles
Heartbeat CPU 0 instructions: 1440000244 cycles: 2018593775 heartbeat IPC: 0.7815 cumulative IPC: 0.7134 (Simulation time: 04 hr 47 min 41 sec)
[ERROR_CYCLE] Error added at CPU cycle 2021582145, next at 2027830179, pending count: 1
[DRAM_CYCLE_ERROR] Cycle-based error applied! address=0x1f2dd068c8 additional_latency=173500 cycles
[ERROR_CYCLE] Error added at CPU cycle 2027830180, next at 2031708010, pending count: 1
[DRAM_CYCLE_ERROR] Cycle-based error applied! address=0x328a72d80 additional_latency=173500 cycles
Heartbeat CPU 0 instructions: 1450000248 cycles: 2031129746 heartbeat IPC: 0.7977 cumulative IPC: 0.7139 (Simulation time: 04 hr 49 min 34 sec)
[ERROR_CYCLE] Error added at CPU cycle 2031708011, next at 2033085878, pending count: 1
[DRAM_CYCLE_ERROR] Cycle-based error applied! address=0x6f1726900 additional_latency=173500 cycles
[ERROR_CYCLE] Error added at CPU cycle 2033085879, next at 2050412514, pending count: 1
[DRAM_CYCLE_ERROR] Cycle-based error applied! address=0x1e1e60a0c8 additional_latency=173500 cycles
Heartbeat CPU 0 instructions: 1460000252 cycles: 2043648277 heartbeat IPC: 0.7988 cumulative IPC: 0.7144 (Simulation time: 04 hr 51 min 27 sec)
[ERROR_CYCLE] Error added at CPU cycle 2050412514, next at 2059398746, pending count: 1
[DRAM_CYCLE_ERROR] Cycle-based error applied! address=0x16e5623840 additional_latency=173500 cycles
Heartbeat CPU 0 instructions: 1470000256 cycles: 2056145845 heartbeat IPC: 0.8002 cumulative IPC: 0.7149 (Simulation time: 04 hr 53 min 19 sec)
[ERROR_CYCLE] Error added at CPU cycle 2059398746, next at 2067629437, pending count: 1
[DRAM_CYCLE_ERROR] Cycle-based error applied! address=0x2851af7c0 additional_latency=173500 cycles
[ERROR_CYCLE] Error added at CPU cycle 2067629437, next at 2106934259, pending count: 1
[DRAM_CYCLE_ERROR] Cycle-based error applied! address=0xe63e19840 additional_latency=173500 cycles
Heartbeat CPU 0 instructions: 1480000258 cycles: 2068690774 heartbeat IPC: 0.7971 cumulative IPC: 0.7154 (Simulation time: 04 hr 55 min 01 sec)
Heartbeat CPU 0 instructions: 1490000260 cycles: 2081166957 heartbeat IPC: 0.8015 cumulative IPC: 0.7159 (Simulation time: 04 hr 56 min 51 sec)
Heartbeat CPU 0 instructions: 1500000264 cycles: 2093301513 heartbeat IPC: 0.8241 cumulative IPC: 0.7166 (Simulation time: 04 hr 58 min 30 sec)
Heartbeat CPU 0 instructions: 1510000266 cycles: 2105609912 heartbeat IPC: 0.8125 cumulative IPC: 0.7171 (Simulation time: 05 hr 00 min 10 sec)
[ERROR_CYCLE] Error added at CPU cycle 2106934259, next at 2110315627, pending count: 1
[DRAM_CYCLE_ERROR] Cycle-based error applied! address=0x174630bc0 additional_latency=173500 cycles
[ERROR_CYCLE] Error added at CPU cycle 2110315627, next at 2118569518, pending count: 1
[DRAM_CYCLE_ERROR] Cycle-based error applied! address=0x1f06f4e480 additional_latency=173500 cycles
Heartbeat CPU 0 instructions: 1520000270 cycles: 2118121512 heartbeat IPC: 0.7993 cumulative IPC: 0.7176 (Simulation time: 05 hr 02 min 02 sec)
[ERROR_CYCLE] Error added at CPU cycle 2118569518, next at 2119210001, pending count: 1
[DRAM_CYCLE_ERROR] Cycle-based error applied! address=0x14ed93c808 additional_latency=173500 cycles
[ERROR_CYCLE] Error added at CPU cycle 2119210001, next at 2124520168, pending count: 1
[DRAM_CYCLE_ERROR] Cycle-based error applied! address=0x93bd58100 additional_latency=173500 cycles
[ERROR_CYCLE] Error added at CPU cycle 2124520168, next at 2130820746, pending count: 1
[DRAM_CYCLE_ERROR] Cycle-based error applied! address=0xbb5bab900 additional_latency=173500 cycles
Heartbeat CPU 0 instructions: 1530000272 cycles: 2130549589 heartbeat IPC: 0.8046 cumulative IPC: 0.7181 (Simulation time: 05 hr 03 min 53 sec)
[ERROR_CYCLE] Error added at CPU cycle 2130820746, next at 2149422911, pending count: 1
[DRAM_CYCLE_ERROR] Cycle-based error applied! address=0x1f96c90800 additional_latency=173500 cycles
Heartbeat CPU 0 instructions: 1540000276 cycles: 2143040716 heartbeat IPC: 0.8006 cumulative IPC: 0.7186 (Simulation time: 05 hr 05 min 45 sec)
[ERROR_CYCLE] Error added at CPU cycle 2149422912, next at 2165592258, pending count: 1
[DRAM_CYCLE_ERROR] Cycle-based error applied! address=0x17508c1d08 additional_latency=173500 cycles
Heartbeat CPU 0 instructions: 1550000277 cycles: 2156074949 heartbeat IPC: 0.7672 cumulative IPC: 0.7189 (Simulation time: 05 hr 07 min 41 sec)
[ERROR_CYCLE] Error added at CPU cycle 2165592259, next at 2166000139, pending count: 1
[DRAM_CYCLE_ERROR] Cycle-based error applied! address=0x9f96cc2c0 additional_latency=173500 cycles
[ERROR_CYCLE] Error added at CPU cycle 2166000139, next at 2169428774, pending count: 1
[DRAM_CYCLE_ERROR] Cycle-based error applied! address=0x1dbe8b15c8 additional_latency=173500 cycles
Heartbeat CPU 0 instructions: 1560000278 cycles: 2169021052 heartbeat IPC: 0.7724 cumulative IPC: 0.7192 (Simulation time: 05 hr 09 min 35 sec)
[ERROR_CYCLE] Error added at CPU cycle 2169428774, next at 2177935414, pending count: 1
[DRAM_CYCLE_ERROR] Cycle-based error applied! address=0x165cae9688 additional_latency=173500 cycles
[ERROR_CYCLE] Error added at CPU cycle 2177935415, next at 2187353454, pending count: 1
[DRAM_CYCLE_ERROR] Cycle-based error applied! address=0x805e0cd08 additional_latency=173500 cycles
Heartbeat CPU 0 instructions: 1570000281 cycles: 2181882185 heartbeat IPC: 0.7775 cumulative IPC: 0.7196 (Simulation time: 05 hr 11 min 30 sec)
[ERROR_CYCLE] Error added at CPU cycle 2187353454, next at 2210064718, pending count: 1
[DRAM_CYCLE_ERROR] Cycle-based error applied! address=0x16b113d40 additional_latency=173500 cycles
Heartbeat CPU 0 instructions: 1580000281 cycles: 2194479923 heartbeat IPC: 0.7938 cumulative IPC: 0.72 (Simulation time: 05 hr 13 min 17 sec)
Heartbeat CPU 0 instructions: 1590000284 cycles: 2206994741 heartbeat IPC: 0.7991 cumulative IPC: 0.7204 (Simulation time: 05 hr 14 min 42 sec)
[ERROR_CYCLE] Error added at CPU cycle 2210064719, next at 2214888135, pending count: 1
[DRAM_CYCLE_ERROR] Cycle-based error applied! address=0x93f283a48 additional_latency=173500 cycles
[ERROR_CYCLE] Error added at CPU cycle 2214888136, next at 2227682588, pending count: 1
[DRAM_CYCLE_ERROR] Cycle-based error applied! address=0xf6c8c3480 additional_latency=173500 cycles
Heartbeat CPU 0 instructions: 1600000284 cycles: 2219510371 heartbeat IPC: 0.799 cumulative IPC: 0.7209 (Simulation time: 05 hr 16 min 33 sec)
[ERROR_CYCLE] Error added at CPU cycle 2227682589, next at 2233464834, pending count: 1
[DRAM_CYCLE_ERROR] Cycle-based error applied! address=0xa6daccb88 additional_latency=173500 cycles
Heartbeat CPU 0 instructions: 1610000288 cycles: 2232067720 heartbeat IPC: 0.7963 cumulative IPC: 0.7213 (Simulation time: 05 hr 18 min 12 sec)
[ERROR_CYCLE] Error added at CPU cycle 2233464834, next at 2241434258, pending count: 1
[DRAM_CYCLE_ERROR] Cycle-based error applied! address=0x1a39ca3b08 additional_latency=173500 cycles
[ERROR_CYCLE] Error added at CPU cycle 2241434259, next at 2241811042, pending count: 1
[DRAM_CYCLE_ERROR] Cycle-based error applied! address=0x1597d8c200 additional_latency=173500 cycles
[ERROR_CYCLE] Error added at CPU cycle 2241811042, next at 2244262384, pending count: 1
[DRAM_CYCLE_ERROR] Cycle-based error applied! address=0xb7afdbd48 additional_latency=173500 cycles
[ERROR_CYCLE] Error added at CPU cycle 2244262384, next at 2247145011, pending count: 1
[DRAM_CYCLE_ERROR] Cycle-based error applied! address=0x243ad5b80 additional_latency=173500 cycles
Heartbeat CPU 0 instructions: 1620000290 cycles: 2244623239 heartbeat IPC: 0.7965 cumulative IPC: 0.7217 (Simulation time: 05 hr 19 min 59 sec)
[...]
Heartbeat CPU 0 instructions: 1680000304 cycles: 2319259962 heartbeat IPC: 0.7763 cumulative IPC: 0.7244 (Simulation time: 05 hr 30 min 17 sec)
[ERROR_CYCLE] Error added at CPU cycle 2319922214, next at 2337341922, pending count: 1
[DRAM_CYCLE_ERROR] Cycle-based error applied! address=0x1cb9105580 additional_latency=173500 cycles
Heartbeat CPU 0 instructions: 1690000304 cycles: 2332288773 heartbeat IPC: 0.7675 cumulative IPC: 0.7246 (Simulation time: 05 hr 32 min 13 sec)
[ERROR_CYCLE] Error added at CPU cycle 2337341923, next at 2341021142, pending count: 1
[DRAM_CYCLE_ERROR] Cycle-based error applied! address=0x45de0b108 additional_latency=173500 cycles
[ERROR_CYCLE] Error added at CPU cycle 2341021143, next at 2353732863, pending count: 1
[DRAM_CYCLE_ERROR] Cycle-based error applied! address=0x1aa74ada80 additional_latency=173500 cycles
Heartbeat CPU 0 instructions: 1700000307 cycles: 2345147403 heartbeat IPC: 0.7777 cumulative IPC: 0.7249 (Simulation time: 05 hr 33 min 51 sec)
[ERROR_CYCLE] Error added at CPU cycle 2353732863, next at 2354242305, pending count: 1
[DRAM_CYCLE_ERROR] Cycle-based error applied! address=0x14a3829cc0 additional_latency=173500 cycles
[ERROR_CYCLE] Error added at CPU cycle 2354242305, next at 2366128568, pending count: 1
[DRAM_CYCLE_ERROR] Cycle-based error applied! address=0x125fcae588 additional_latency=173500 cycles
Heartbeat CPU 0 instructions: 1710000307 cycles: 2357862314 heartbeat IPC: 0.7865 cumulative IPC: 0.7252 (Simulation time: 05 hr 35 min 34 sec)
[ERROR_CYCLE] Error added at CPU cycle 2366128568, next at 2378498969, pending count: 1
[DRAM_CYCLE_ERROR] Cycle-based error applied! address=0x10538fae00 additional_latency=173500 cycles
Heartbeat CPU 0 instructions: 1720000309 cycles: 2370381112 heartbeat IPC: 0.7988 cumulative IPC: 0.7256 (Simulation time: 05 hr 37 min 18 sec)
[ERROR_CYCLE] Error added at CPU cycle 2378498969, next at 2389561859, pending count: 1
[DRAM_CYCLE_ERROR] Cycle-based error applied! address=0x1ae5272180 additional_latency=173500 cycles
Heartbeat CPU 0 instructions: 1730000309 cycles: 2382900982 heartbeat IPC: 0.7987 cumulative IPC: 0.726 (Simulation time: 05 hr 39 min 11 sec)
[ERROR_CYCLE] Error added at CPU cycle 2389561860, next at 2419565806, pending count: 1
[DRAM_CYCLE_ERROR] Cycle-based error applied! address=0x9e9cc8188 additional_latency=173500 cycles
Heartbeat CPU 0 instructions: 1740000310 cycles: 2395424886 heartbeat IPC: 0.7985 cumulative IPC: 0.7264 (Simulation time: 05 hr 41 min 04 sec)
Heartbeat CPU 0 instructions: 1750000312 cycles: 2407983408 heartbeat IPC: 0.7963 cumulative IPC: 0.7267 (Simulation time: 05 hr 42 min 57 sec)
[ERROR_CYCLE] Error added at CPU cycle 2419565807, next at 2420105318, pending count: 1
[DRAM_CYCLE_ERROR] Cycle-based error applied! address=0xbe5f1d2c8 additional_latency=173500 cycles
[ERROR_CYCLE] Error added at CPU cycle 2420105319, next at 2431250999, pending count: 1
[DRAM_CYCLE_ERROR] Cycle-based error applied! address=0x15e5b21238 additional_latency=173500 cycles
Heartbeat CPU 0 instructions: 1760000312 cycles: 2420372704 heartbeat IPC: 0.8071 cumulative IPC: 0.7272 (Simulation time: 05 hr 44 min 49 sec)
[ERROR_CYCLE] Error added at CPU cycle 2431250999, next at 2433725303, pending count: 1
[DRAM_CYCLE_ERROR] Cycle-based error applied! address=0x1e36c94048 additional_latency=173500 cycles
Heartbeat CPU 0 instructions: 1770000315 cycles: 2432502517 heartbeat IPC: 0.8244 cumulative IPC: 0.7276 (Simulation time: 05 hr 46 min 39 sec)
[ERROR_CYCLE] Error added at CPU cycle 2433725304, next at 2439322859, pending count: 1
[DRAM_CYCLE_ERROR] Cycle-based error applied! address=0xba3d7ee40 additional_latency=173500 cycles
[ERROR_CYCLE] Error added at CPU cycle 2439322860, next at 2457183998, pending count: 1
[DRAM_CYCLE_ERROR] Cycle-based error applied! address=0x91b6bd900 additional_latency=173500 cycles
Heartbeat CPU 0 instructions: 1780000319 cycles: 2444912581 heartbeat IPC: 0.8058 cumulative IPC: 0.728 (Simulation time: 05 hr 48 min 31 sec)
[ERROR_CYCLE] Error added at CPU cycle 2457183998, next at 2460351086, pending count: 1
[DRAM_CYCLE_ERROR] Cycle-based error applied! address=0x1ca4475e48 additional_latency=173500 cycles
Heartbeat CPU 0 instructions: 1790000320 cycles: 2457404959 heartbeat IPC: 0.8005 cumulative IPC: 0.7284 (Simulation time: 05 hr 50 min 20 sec)
[ERROR_CYCLE] Error added at CPU cycle 2460351086, next at 2481283387, pending count: 1
[DRAM_CYCLE_ERROR] Cycle-based error applied! address=0x1468b2e780 additional_latency=173500 cycles
Heartbeat CPU 0 instructions: 1800000323 cycles: 2469793286 heartbeat IPC: 0.8072 cumulative IPC: 0.7288 (Simulation time: 05 hr 52 min 02 sec)
[ERROR_CYCLE] Error added at CPU cycle 2481283387, next at 2484187671, pending count: 1
[DRAM_CYCLE_ERROR] Cycle-based error applied! address=0x1c4ff47108 additional_latency=173500 cycles
Heartbeat CPU 0 instructions: 1810000327 cycles: 2482428168 heartbeat IPC: 0.7915 cumulative IPC: 0.7291 (Simulation time: 05 hr 53 min 50 sec)
[ERROR_CYCLE] Error added at CPU cycle 2484187671, next at 2496585366, pending count: 1
[DRAM_CYCLE_ERROR] Cycle-based error applied! address=0x66c2f3048 additional_latency=173500 cycles
Heartbeat CPU 0 instructions: 1820000330 cycles: 2495460879 heartbeat IPC: 0.7673 cumulative IPC: 0.7293 (Simulation time: 05 hr 55 min 43 sec)
[ERROR_CYCLE] Error added at CPU cycle 2496585366, next at 2518974390, pending count: 1
[DRAM_CYCLE_ERROR] Cycle-based error applied! address=0x1f0bb12b80 additional_latency=173500 cycles
Heartbeat CPU 0 instructions: 1830000330 cycles: 2508363337 heartbeat IPC: 0.775 cumulative IPC: 0.7296 (Simulation time: 05 hr 57 min 35 sec)
[ERROR_CYCLE] Error added at CPU cycle 2518974390, next at 2519350462, pending count: 1
[DRAM_CYCLE_ERROR] Cycle-based error applied! address=0x7c2e158c0 additional_latency=173500 cycles
[ERROR_CYCLE] Error added at CPU cycle 2519350462, next at 2529791563, pending count: 1
[DRAM_CYCLE_ERROR] Cycle-based error applied! address=0x1635291148 additional_latency=173500 cycles
Heartbeat CPU 0 instructions: 1840000334 cycles: 2521186074 heartbeat IPC: 0.7799 cumulative IPC: 0.7298 (Simulation time: 05 hr 59 min 16 sec)
[ERROR_CYCLE] Error added at CPU cycle 2529791563, next at 2535624350, pending count: 1
[DRAM_CYCLE_ERROR] Cycle-based error applied! address=0x4fdf2bbc0 additional_latency=173500 cycles
Heartbeat CPU 0 instructions: 1850000337 cycles: 2533719210 heartbeat IPC: 0.7979 cumulative IPC: 0.7302 (Simulation time: 06 hr 01 min 04 sec)
[ERROR_CYCLE] Error added at CPU cycle 2535624351, next at 2537193033, pending count: 1
[DRAM_CYCLE_ERROR] Cycle-based error applied! address=0x15f28b9240 additional_latency=173500 cycles
[ERROR_CYCLE] Error added at CPU cycle 2537193033, next at 2539406753, pending count: 1
[DRAM_CYCLE_ERROR] Cycle-based error applied! address=0x8050f1c48 additional_latency=173500 cycles
[ERROR_CYCLE] Error added at CPU cycle 2539406754, next at 2545392493, pending count: 1
[DRAM_CYCLE_ERROR] Cycle-based error applied! address=0x105a6cfa88 additional_latency=173500 cycles
[ERROR_CYCLE] Error added at CPU cycle 2545392493, next at 2547873819, pending count: 1
[DRAM_CYCLE_ERROR] Cycle-based error applied! address=0x1c3a045a08 additional_latency=173500 cycles
Heartbeat CPU 0 instructions: 1860000340 cycles: 2546238113 heartbeat IPC: 0.7988 cumulative IPC: 0.7305 (Simulation time: 06 hr 02 min 57 sec)
[ERROR_CYCLE] Error added at CPU cycle 2547873820, next at 2553808031, pending count: 1
[DRAM_CYCLE_ERROR] Cycle-based error applied! address=0x1035981600 additional_latency=173500 cycles
[ERROR_CYCLE] Error added at CPU cycle 2553808032, next at 2557993327, pending count: 1
[DRAM_CYCLE_ERROR] Cycle-based error applied! address=0x6f8a34c8 additional_latency=173500 cycles
[ERROR_CYCLE] Error added at CPU cycle 2557993328, next at 2559354305, pending count: 1
[DRAM_CYCLE_ERROR] Cycle-based error applied! address=0x8bc4ad580 additional_latency=173500 cycles
Heartbeat CPU 0 instructions: 1870000340 cycles: 2558746748 heartbeat IPC: 0.7994 cumulative IPC: 0.7308 (Simulation time: 06 hr 04 min 43 sec)
[ERROR_CYCLE] Error added at CPU cycle 2559354305, next at 2565617397, pending count: 1
[DRAM_CYCLE_ERROR] Cycle-based error applied! address=0x1c83474f08 additional_latency=173500 cycles
[ERROR_CYCLE] Error added at CPU cycle 2565617398, next at 2589075952, pending count: 1
[DRAM_CYCLE_ERROR] Cycle-based error applied! address=0x1d7d88fc80 additional_latency=173500 cycles
Heartbeat CPU 0 instructions: 1880000340 cycles: 2571294787 heartbeat IPC: 0.7969 cumulative IPC: 0.7311 (Simulation time: 06 hr 06 min 30 sec)
Heartbeat CPU 0 instructions: 1890000342 cycles: 2583862571 heartbeat IPC: 0.7957 cumulative IPC: 0.7315 (Simulation time: 06 hr 08 min 22 sec)
[ERROR_CYCLE] Error added at CPU cycle 2589075953, next at 2593877875, pending count: 1
[DRAM_CYCLE_ERROR] Cycle-based error applied! address=0xe4214e5c0 additional_latency=173500 cycles
[ERROR_CYCLE] Error added at CPU cycle 2593877876, next at 2606344063, pending count: 1
[DRAM_CYCLE_ERROR] Cycle-based error applied! address=0xf72e85ec8 additional_latency=173500 cycles
Heartbeat CPU 0 instructions: 1900000342 cycles: 2596002145 heartbeat IPC: 0.8238 cumulative IPC: 0.7319 (Simulation time: 06 hr 10 min 12 sec)
[ERROR_CYCLE] Error added at CPU cycle 2606344063, next at 2610704056, pending count: 1
[DRAM_CYCLE_ERROR] Cycle-based error applied! address=0xe40e3b500 additional_latency=173500 cycles
Heartbeat CPU 0 instructions: 1910000343 cycles: 2608258251 heartbeat IPC: 0.8159 cumulative IPC: 0.7323 (Simulation time: 06 hr 12 min 05 sec)
[ERROR_CYCLE] Error added at CPU cycle 2610704056, next at 2630475245, pending count: 1
[DRAM_CYCLE_ERROR] Cycle-based error applied! address=0xe06e6f388 additional_latency=173500 cycles
Heartbeat CPU 0 instructions: 1920000347 cycles: 2620761232 heartbeat IPC: 0.7998 cumulative IPC: 0.7326 (Simulation time: 06 hr 13 min 41 sec)
[ERROR_CYCLE] Error added at CPU cycle 2630475246, next at 2640791493, pending count: 1
[DRAM_CYCLE_ERROR] Cycle-based error applied! address=0x17736aa290 additional_latency=173500 cycles
Heartbeat CPU 0 instructions: 1930000347 cycles: 2633193540 heartbeat IPC: 0.8044 cumulative IPC: 0.733 (Simulation time: 06 hr 15 min 26 sec)
[ERROR_CYCLE] Error added at CPU cycle 2640791494, next at 2644247825, pending count: 1
[DRAM_CYCLE_ERROR] Cycle-based error applied! address=0x12da00d8c0 additional_latency=173500 cycles
[ERROR_CYCLE] Error added at CPU cycle 2644247825, next at 2656939740, pending count: 1
[DRAM_CYCLE_ERROR] Cycle-based error applied! address=0xae6909b40 additional_latency=173500 cycles
Heartbeat CPU 0 instructions: 1940000351 cycles: 2645580785 heartbeat IPC: 0.8073 cumulative IPC: 0.7333 (Simulation time: 06 hr 17 min 17 sec)
[ERROR_CYCLE] Error added at CPU cycle 2656939740, next at 2661483893, pending count: 1
[DRAM_CYCLE_ERROR] Cycle-based error applied! address=0x421185b08 additional_latency=173500 cycles
Heartbeat CPU 0 instructions: 1950000355 cycles: 2658614049 heartbeat IPC: 0.7673 cumulative IPC: 0.7335 (Simulation time: 06 hr 19 min 05 sec)
[ERROR_CYCLE] Error added at CPU cycle 2661483893, next at 2674328280, pending count: 1
[DRAM_CYCLE_ERROR] Cycle-based error applied! address=0x8d5df6888 additional_latency=173500 cycles
Heartbeat CPU 0 instructions: 1960000358 cycles: 2671592360 heartbeat IPC: 0.7705 cumulative IPC: 0.7336 (Simulation time: 06 hr 21 min 01 sec)
[ERROR_CYCLE] Error added at CPU cycle 2674328280, next at 2679170229, pending count: 1
[DRAM_CYCLE_ERROR] Cycle-based error applied! address=0xe2a94f508 additional_latency=173500 cycles
[ERROR_CYCLE] Error added at CPU cycle 2679170229, next at 2680204502, pending count: 1
[DRAM_CYCLE_ERROR] Cycle-based error applied! address=0x7006275c8 additional_latency=173500 cycles
[ERROR_CYCLE] Error added at CPU cycle 2680204502, next at 2680931504, pending count: 1
[DRAM_CYCLE_ERROR] Cycle-based error applied! address=0x19beb5d80 additional_latency=173500 cycles
[ERROR_CYCLE] Error added at CPU cycle 2680931505, next at 2683649452, pending count: 1
[DRAM_CYCLE_ERROR] Cycle-based error applied! address=0x9cf7c1848 additional_latency=173500 cycles
[ERROR_CYCLE] Error added at CPU cycle 2683649453, next at 2691489675, pending count: 1
[DRAM_CYCLE_ERROR] Cycle-based error applied! address=0xc4e3a29c0 additional_latency=173500 cycles
Heartbeat CPU 0 instructions: 1970000359 cycles: 2684453916 heartbeat IPC: 0.7775 cumulative IPC: 0.7339 (Simulation time: 06 hr 22 min 46 sec)
[ERROR_CYCLE] Error added at CPU cycle 2691489675, next at 2695565770, pending count: 1
[DRAM_CYCLE_ERROR] Cycle-based error applied! address=0xb6addca00 additional_latency=173500 cycles
[ERROR_CYCLE] Error added at CPU cycle 2695565771, next at 2722764317, pending count: 1
[DRAM_CYCLE_ERROR] Cycle-based error applied! address=0x180d4e0ac0 additional_latency=173500 cycles
Heartbeat CPU 0 instructions: 1980000360 cycles: 2697094875 heartbeat IPC: 0.7911 cumulative IPC: 0.7341 (Simulation time: 06 hr 24 min 40 sec)
Heartbeat CPU 0 instructions: 1990000364 cycles: 2709634335 heartbeat IPC: 0.7975 cumulative IPC: 0.7344 (Simulation time: 06 hr 26 min 33 sec)

=== ERROR PAGE STATISTICS ===
Mode: CYCLE
Error Cycle Interval: 8000000 CPU cycles
Total Error Accesses: 353
==============================
Simulation finished CPU 0 instructions: 1999999509 cycles: 2722148594 cumulative IPC: 0.7347 (Simulation time: 06 hr 28 min 18 sec)
Simulation complete CPU 0 instructions: 1999999509 cycles: 2722148594 cumulative IPC: 0.7347 (Simulation time: 06 hr 28 min 18 sec)

ChampSim completed all CPUs

=== Simulation ===
CPU 0 runs test_traces/649.fotonik3d_s-10881B.champsimtrace.xz

Region of Interest Statistics

CPU 0 cumulative IPC: 0.7347 instructions: 1999999509 cycles: 2722148594
CPU 0 Branch Prediction Accuracy: 97.24% MPKI: 0.2738 Average ROB Occupancy at Mispredict: 264.6
Branch type MPKI
BRANCH_DIRECT_JUMP: 5.5e-06
BRANCH_INDIRECT: 0
BRANCH_CONDITIONAL: 0.2738
BRANCH_DIRECT_CALL: 5e-07
BRANCH_INDIRECT_CALL: 0
BRANCH_RETURN: 5e-07

cpu0->cpu0_STLB TOTAL        ACCESS:    6979148 HIT:    3617366 MISS:    3361782 MSHR_MERGE:          0
cpu0->cpu0_STLB LOAD         ACCESS:    6979148 HIT:    3617366 MISS:    3361782 MSHR_MERGE:          0
cpu0->cpu0_STLB RFO          ACCESS:          0 HIT:          0 MISS:          0 MSHR_MERGE:          0
cpu0->cpu0_STLB PREFETCH     ACCESS:          0 HIT:          0 MISS:          0 MSHR_MERGE:          0
cpu0->cpu0_STLB WRITE        ACCESS:          0 HIT:          0 MISS:          0 MSHR_MERGE:          0
cpu0->cpu0_STLB TRANSLATION  ACCESS:          0 HIT:          0 MISS:          0 MSHR_MERGE:          0
cpu0->cpu0_STLB PREFETCH REQUESTED:          0 ISSUED:          0 USEFUL:          0 USELESS:          0
cpu0->cpu0_STLB AVERAGE MISS LATENCY: 344.5 cycles
cpu0->cpu0_L2C TOTAL        ACCESS:   51671898 HIT:   16864726 MISS:   34807172 MSHR_MERGE:          0
cpu0->cpu0_L2C LOAD         ACCESS:   36315947 HIT:    1509332 MISS:   34806615 MSHR_MERGE:          0
cpu0->cpu0_L2C RFO          ACCESS:       2022 HIT:       1982 MISS:         40 MSHR_MERGE:          0
cpu0->cpu0_L2C PREFETCH     ACCESS:          0 HIT:          0 MISS:          0 MSHR_MERGE:          0
cpu0->cpu0_L2C WRITE        ACCESS:   15353929 HIT:   15353412 MISS:        517 MSHR_MERGE:          0
cpu0->cpu0_L2C TRANSLATION  ACCESS:          0 HIT:          0 MISS:          0 MSHR_MERGE:          0
cpu0->cpu0_L2C PREFETCH REQUESTED:          0 ISSUED:          0 USEFUL:          0 USELESS:          0
cpu0->cpu0_L2C AVERAGE MISS LATENCY: 117 cycles
cpu0->cpu0_L1I TOTAL        ACCESS:  500921383 HIT:  500920452 MISS:        931 MSHR_MERGE:        392
cpu0->cpu0_L1I LOAD         ACCESS:  500921383 HIT:  500920452 MISS:        931 MSHR_MERGE:        392
cpu0->cpu0_L1I RFO          ACCESS:          0 HIT:          0 MISS:          0 MSHR_MERGE:          0
cpu0->cpu0_L1I PREFETCH     ACCESS:          0 HIT:          0 MISS:          0 MSHR_MERGE:          0
cpu0->cpu0_L1I WRITE        ACCESS:          0 HIT:          0 MISS:          0 MSHR_MERGE:          0
cpu0->cpu0_L1I TRANSLATION  ACCESS:          0 HIT:          0 MISS:          0 MSHR_MERGE:          0
cpu0->cpu0_L1I PREFETCH REQUESTED:          0 ISSUED:          0 USEFUL:          0 USELESS:          0
cpu0->cpu0_L1I AVERAGE MISS LATENCY: 148.7 cycles
cpu0->cpu0_L1D TOTAL        ACCESS:  960402644 HIT:  915405100 MISS:   44997544 MSHR_MERGE:    8680103
cpu0->cpu0_L1D LOAD         ACCESS:  842765202 HIT:  797771233 MISS:   44993969 MSHR_MERGE:    8678560
cpu0->cpu0_L1D RFO          ACCESS:          0 HIT:          0 MISS:          0 MSHR_MERGE:          0
cpu0->cpu0_L1D PREFETCH     ACCESS:          0 HIT:          0 MISS:          0 MSHR_MERGE:          0
cpu0->cpu0_L1D WRITE        ACCESS:  117637442 HIT:  117633867 MISS:       3575 MSHR_MERGE:       1543
cpu0->cpu0_L1D TRANSLATION  ACCESS:          0 HIT:          0 MISS:          0 MSHR_MERGE:          0
cpu0->cpu0_L1D PREFETCH REQUESTED:          0 ISSUED:          0 USEFUL:          0 USELESS:          0
cpu0->cpu0_L1D AVERAGE MISS LATENCY: 121.1 cycles
cpu0->cpu0_ITLB TOTAL        ACCESS:  433922327 HIT:  433922266 MISS:         61 MSHR_MERGE:         49
cpu0->cpu0_ITLB LOAD         ACCESS:  433922327 HIT:  433922266 MISS:         61 MSHR_MERGE:         49
cpu0->cpu0_ITLB RFO          ACCESS:          0 HIT:          0 MISS:          0 MSHR_MERGE:          0
cpu0->cpu0_ITLB PREFETCH     ACCESS:          0 HIT:          0 MISS:          0 MSHR_MERGE:          0
cpu0->cpu0_ITLB WRITE        ACCESS:          0 HIT:          0 MISS:          0 MSHR_MERGE:          0
cpu0->cpu0_ITLB TRANSLATION  ACCESS:          0 HIT:          0 MISS:          0 MSHR_MERGE:          0
cpu0->cpu0_ITLB PREFETCH REQUESTED:          0 ISSUED:          0 USEFUL:          0 USELESS:          0
cpu0->cpu0_ITLB AVERAGE MISS LATENCY: 739.7 cycles
cpu0->cpu0_DTLB TOTAL        ACCESS:  901406953 HIT:  892483644 MISS:    8923309 MSHR_MERGE:    1944173
cpu0->cpu0_DTLB LOAD         ACCESS:  901406953 HIT:  892483644 MISS:    8923309 MSHR_MERGE:    1944173
cpu0->cpu0_DTLB RFO          ACCESS:          0 HIT:          0 MISS:          0 MSHR_MERGE:          0
cpu0->cpu0_DTLB PREFETCH     ACCESS:          0 HIT:          0 MISS:          0 MSHR_MERGE:          0
cpu0->cpu0_DTLB WRITE        ACCESS:          0 HIT:          0 MISS:          0 MSHR_MERGE:          0
cpu0->cpu0_DTLB TRANSLATION  ACCESS:          0 HIT:          0 MISS:          0 MSHR_MERGE:          0
cpu0->cpu0_DTLB PREFETCH REQUESTED:          0 ISSUED:          0 USEFUL:          0 USELESS:          0
cpu0->cpu0_DTLB AVERAGE MISS LATENCY: 171.4 cycles
cpu0->LLC TOTAL        ACCESS:   50154736 HIT:   17649114 MISS:   32505622 MSHR_MERGE:          0
cpu0->LLC LOAD         ACCESS:   34806615 HIT:    2301369 MISS:   32505246 MSHR_MERGE:          0
cpu0->LLC RFO          ACCESS:         40 HIT:         17 MISS:         23 MSHR_MERGE:          0
cpu0->LLC PREFETCH     ACCESS:          0 HIT:          0 MISS:          0 MSHR_MERGE:          0
cpu0->LLC WRITE        ACCESS:   15348081 HIT:   15347728 MISS:        353 MSHR_MERGE:          0
cpu0->LLC TRANSLATION  ACCESS:          0 HIT:          0 MISS:          0 MSHR_MERGE:          0
cpu0->LLC PREFETCH REQUESTED:          0 ISSUED:          0 USEFUL:          0 USELESS:          0
cpu0->LLC AVERAGE MISS LATENCY: 108.2 cycles

DRAM Statistics

Channel 0 RQ ROW_BUFFER_HIT:     404530
  ROW_BUFFER_MISS:   19132153
  AVG DBUS CONGESTED CYCLE: 10.97
Channel 0 WQ ROW_BUFFER_HIT:    1363390
  ROW_BUFFER_MISS:    6306897
  FULL:          0
Channel 0 REFRESHES ISSUED:     226831

Channel 1 RQ ROW_BUFFER_HIT:     404553
  ROW_BUFFER_MISS:   19131724
  AVG DBUS CONGESTED CYCLE: 10.97
Channel 1 WQ ROW_BUFFER_HIT:    1363205
  ROW_BUFFER_MISS:    6306349
  FULL:          0
Channel 1 REFRESHES ISSUED:     226831
