[VMEM] WARNING: physical memory size is smaller than virtual memory size.

*** ChampSim Multicore Out-of-Order Simulator ***
Warmup Instructions: 0
Simulation Instructions: 9223372036854775807
Number of CPUs: 1
Page size: 4096

Off-chip DRAM Size: 64 GiB Channels: 2 Width: 32-bit Data Rate: 4807 MT/s
[ERROR_PAGE_MANAGER] Error latency: 173500 
[ERROR_PAGE_MANAGER] Random seed: 54321 (fixed for preload reproducibility)
[ERROR_PAGE_MANAGER] Cycle-based error modeling enabled
[ERROR_PAGE_MANAGER] Errors per interval: 1
[ERROR_PAGE_MANAGER] Error cycle interval: 1000000000 cycles

=== ERROR PAGE STATISTICS ===
Mode: CYCLE
Error Cycle Interval: 1000000000 CPU cycles
Total Error Accesses: 0
==============================
Warmup finished CPU 0 instructions: 0 cycles: 1 cumulative IPC: 0 (Simulation time: 00 hr 00 min 01 sec)
Warmup complete CPU 0 instructions: 0 cycles: 1 cumulative IPC: 0 (Simulation time: 00 hr 00 min 01 sec)
Heartbeat CPU 0 instructions: 10000002 cycles: 5278447 heartbeat IPC: 1.894 cumulative IPC: 1.894 (Simulation time: 00 hr 00 min 44 sec)
Heartbeat CPU 0 instructions: 20000002 cycles: 10685910 heartbeat IPC: 1.849 cumulative IPC: 1.872 (Simulation time: 00 hr 01 min 34 sec)
Heartbeat CPU 0 instructions: 30000006 cycles: 16063120 heartbeat IPC: 1.86 cumulative IPC: 1.868 (Simulation time: 00 hr 02 min 39 sec)
Heartbeat CPU 0 instructions: 40000007 cycles: 21446213 heartbeat IPC: 1.858 cumulative IPC: 1.865 (Simulation time: 00 hr 03 min 44 sec)
Heartbeat CPU 0 instructions: 50000007 cycles: 26809429 heartbeat IPC: 1.865 cumulative IPC: 1.865 (Simulation time: 00 hr 04 min 37 sec)
Heartbeat CPU 0 instructions: 60000007 cycles: 34081372 heartbeat IPC: 1.375 cumulative IPC: 1.76 (Simulation time: 00 hr 05 min 31 sec)
Heartbeat CPU 0 instructions: 70000007 cycles: 41637030 heartbeat IPC: 1.324 cumulative IPC: 1.681 (Simulation time: 00 hr 06 min 36 sec)
Heartbeat CPU 0 instructions: 80000009 cycles: 49082579 heartbeat IPC: 1.343 cumulative IPC: 1.63 (Simulation time: 00 hr 07 min 37 sec)
Heartbeat CPU 0 instructions: 90000010 cycles: 56663328 heartbeat IPC: 1.319 cumulative IPC: 1.588 (Simulation time: 00 hr 08 min 55 sec)
Heartbeat CPU 0 instructions: 100000010 cycles: 64157709 heartbeat IPC: 1.334 cumulative IPC: 1.559 (Simulation time: 00 hr 10 min 16 sec)
Heartbeat CPU 0 instructions: 110000011 cycles: 71631591 heartbeat IPC: 1.338 cumulative IPC: 1.536 (Simulation time: 00 hr 11 min 38 sec)
Heartbeat CPU 0 instructions: 120000014 cycles: 79042644 heartbeat IPC: 1.349 cumulative IPC: 1.518 (Simulation time: 00 hr 13 min 00 sec)
Heartbeat CPU 0 instructions: 130000017 cycles: 86521115 heartbeat IPC: 1.337 cumulative IPC: 1.503 (Simulation time: 00 hr 14 min 21 sec)
Heartbeat CPU 0 instructions: 140000017 cycles: 94001133 heartbeat IPC: 1.337 cumulative IPC: 1.489 (Simulation time: 00 hr 15 min 43 sec)
Heartbeat CPU 0 instructions: 150000019 cycles: 101444944 heartbeat IPC: 1.343 cumulative IPC: 1.479 (Simulation time: 00 hr 17 min 04 sec)
Heartbeat CPU 0 instructions: 160000019 cycles: 108598501 heartbeat IPC: 1.398 cumulative IPC: 1.473 (Simulation time: 00 hr 18 min 23 sec)
Heartbeat CPU 0 instructions: 170000020 cycles: 115765671 heartbeat IPC: 1.395 cumulative IPC: 1.468 (Simulation time: 00 hr 19 min 42 sec)
Heartbeat CPU 0 instructions: 180000023 cycles: 122959126 heartbeat IPC: 1.39 cumulative IPC: 1.464 (Simulation time: 00 hr 20 min 55 sec)
Heartbeat CPU 0 instructions: 190000024 cycles: 130059716 heartbeat IPC: 1.408 cumulative IPC: 1.461 (Simulation time: 00 hr 22 min 12 sec)
Heartbeat CPU 0 instructions: 200000024 cycles: 137273141 heartbeat IPC: 1.386 cumulative IPC: 1.457 (Simulation time: 00 hr 23 min 31 sec)
Heartbeat CPU 0 instructions: 210000028 cycles: 144425662 heartbeat IPC: 1.398 cumulative IPC: 1.454 (Simulation time: 00 hr 24 min 42 sec)
Heartbeat CPU 0 instructions: 220000032 cycles: 151546337 heartbeat IPC: 1.404 cumulative IPC: 1.452 (Simulation time: 00 hr 25 min 52 sec)
Heartbeat CPU 0 instructions: 230000034 cycles: 158654242 heartbeat IPC: 1.407 cumulative IPC: 1.45 (Simulation time: 00 hr 27 min 10 sec)
Heartbeat CPU 0 instructions: 240000034 cycles: 165843814 heartbeat IPC: 1.391 cumulative IPC: 1.447 (Simulation time: 00 hr 28 min 27 sec)
Heartbeat CPU 0 instructions: 250000034 cycles: 173054361 heartbeat IPC: 1.387 cumulative IPC: 1.445 (Simulation time: 00 hr 29 min 45 sec)
Heartbeat CPU 0 instructions: 260000038 cycles: 180142991 heartbeat IPC: 1.411 cumulative IPC: 1.443 (Simulation time: 00 hr 31 min 03 sec)
Heartbeat CPU 0 instructions: 270000041 cycles: 187256230 heartbeat IPC: 1.406 cumulative IPC: 1.442 (Simulation time: 00 hr 32 min 22 sec)
Heartbeat CPU 0 instructions: 280000041 cycles: 194325784 heartbeat IPC: 1.415 cumulative IPC: 1.441 (Simulation time: 00 hr 33 min 41 sec)
Heartbeat CPU 0 instructions: 290000041 cycles: 201487476 heartbeat IPC: 1.396 cumulative IPC: 1.439 (Simulation time: 00 hr 35 min 00 sec)
Heartbeat CPU 0 instructions: 300000044 cycles: 208579269 heartbeat IPC: 1.41 cumulative IPC: 1.438 (Simulation time: 00 hr 36 min 18 sec)
Heartbeat CPU 0 instructions: 310000045 cycles: 215689432 heartbeat IPC: 1.406 cumulative IPC: 1.437 (Simulation time: 00 hr 37 min 36 sec)
Heartbeat CPU 0 instructions: 320000048 cycles: 222804866 heartbeat IPC: 1.405 cumulative IPC: 1.436 (Simulation time: 00 hr 38 min 55 sec)
Heartbeat CPU 0 instructions: 330000049 cycles: 229884478 heartbeat IPC: 1.413 cumulative IPC: 1.436 (Simulation time: 00 hr 40 min 14 sec)
Heartbeat CPU 0 instructions: 340000051 cycles: 237139369 heartbeat IPC: 1.378 cumulative IPC: 1.434 (Simulation time: 00 hr 41 min 34 sec)
Heartbeat CPU 0 instructions: 350000052 cycles: 244256230 heartbeat IPC: 1.405 cumulative IPC: 1.433 (Simulation time: 00 hr 42 min 53 sec)
Heartbeat CPU 0 instructions: 360000056 cycles: 251409421 heartbeat IPC: 1.398 cumulative IPC: 1.432 (Simulation time: 00 hr 44 min 13 sec)
Heartbeat CPU 0 instructions: 370000056 cycles: 258534904 heartbeat IPC: 1.403 cumulative IPC: 1.431 (Simulation time: 00 hr 45 min 32 sec)
Heartbeat CPU 0 instructions: 380000056 cycles: 265693405 heartbeat IPC: 1.397 cumulative IPC: 1.43 (Simulation time: 00 hr 46 min 51 sec)
Heartbeat CPU 0 instructions: 390000058 cycles: 272858832 heartbeat IPC: 1.396 cumulative IPC: 1.429 (Simulation time: 00 hr 48 min 10 sec)
Heartbeat CPU 0 instructions: 400000062 cycles: 280027016 heartbeat IPC: 1.395 cumulative IPC: 1.428 (Simulation time: 00 hr 49 min 30 sec)
Heartbeat CPU 0 instructions: 410000063 cycles: 287133090 heartbeat IPC: 1.407 cumulative IPC: 1.428 (Simulation time: 00 hr 50 min 48 sec)
Heartbeat CPU 0 instructions: 420000065 cycles: 294255667 heartbeat IPC: 1.404 cumulative IPC: 1.427 (Simulation time: 00 hr 52 min 06 sec)
Heartbeat CPU 0 instructions: 430000066 cycles: 301457861 heartbeat IPC: 1.388 cumulative IPC: 1.426 (Simulation time: 00 hr 53 min 25 sec)
Heartbeat CPU 0 instructions: 440000068 cycles: 308682122 heartbeat IPC: 1.384 cumulative IPC: 1.425 (Simulation time: 00 hr 54 min 45 sec)
Heartbeat CPU 0 instructions: 450000070 cycles: 315813355 heartbeat IPC: 1.402 cumulative IPC: 1.425 (Simulation time: 00 hr 56 min 04 sec)
Heartbeat CPU 0 instructions: 460000072 cycles: 322953330 heartbeat IPC: 1.401 cumulative IPC: 1.424 (Simulation time: 00 hr 57 min 23 sec)
Heartbeat CPU 0 instructions: 470000073 cycles: 330073826 heartbeat IPC: 1.404 cumulative IPC: 1.424 (Simulation time: 00 hr 58 min 41 sec)
Heartbeat CPU 0 instructions: 480000074 cycles: 337196218 heartbeat IPC: 1.404 cumulative IPC: 1.424 (Simulation time: 01 hr 00 min 00 sec)
Heartbeat CPU 0 instructions: 490000075 cycles: 344264600 heartbeat IPC: 1.415 cumulative IPC: 1.423 (Simulation time: 01 hr 01 min 18 sec)
Heartbeat CPU 0 instructions: 500000076 cycles: 351380848 heartbeat IPC: 1.405 cumulative IPC: 1.423 (Simulation time: 01 hr 02 min 37 sec)
Heartbeat CPU 0 instructions: 510000078 cycles: 358532039 heartbeat IPC: 1.398 cumulative IPC: 1.422 (Simulation time: 01 hr 03 min 56 sec)
Heartbeat CPU 0 instructions: 520000078 cycles: 365748269 heartbeat IPC: 1.386 cumulative IPC: 1.422 (Simulation time: 01 hr 05 min 16 sec)
Heartbeat CPU 0 instructions: 530000079 cycles: 372891745 heartbeat IPC: 1.4 cumulative IPC: 1.421 (Simulation time: 01 hr 06 min 35 sec)
Heartbeat CPU 0 instructions: 540000082 cycles: 379960116 heartbeat IPC: 1.415 cumulative IPC: 1.421 (Simulation time: 01 hr 07 min 54 sec)
Heartbeat CPU 0 instructions: 550000085 cycles: 387041239 heartbeat IPC: 1.412 cumulative IPC: 1.421 (Simulation time: 01 hr 09 min 12 sec)
Heartbeat CPU 0 instructions: 560000085 cycles: 394212236 heartbeat IPC: 1.395 cumulative IPC: 1.421 (Simulation time: 01 hr 10 min 31 sec)
Heartbeat CPU 0 instructions: 570000085 cycles: 401382503 heartbeat IPC: 1.395 cumulative IPC: 1.42 (Simulation time: 01 hr 11 min 51 sec)
Heartbeat CPU 0 instructions: 580000087 cycles: 408560551 heartbeat IPC: 1.393 cumulative IPC: 1.42 (Simulation time: 01 hr 13 min 10 sec)
Heartbeat CPU 0 instructions: 590000088 cycles: 415706747 heartbeat IPC: 1.399 cumulative IPC: 1.419 (Simulation time: 01 hr 14 min 29 sec)
Heartbeat CPU 0 instructions: 600000088 cycles: 422831268 heartbeat IPC: 1.404 cumulative IPC: 1.419 (Simulation time: 01 hr 15 min 48 sec)
Heartbeat CPU 0 instructions: 610000091 cycles: 429949665 heartbeat IPC: 1.405 cumulative IPC: 1.419 (Simulation time: 01 hr 17 min 07 sec)
Heartbeat CPU 0 instructions: 620000094 cycles: 437124846 heartbeat IPC: 1.394 cumulative IPC: 1.418 (Simulation time: 01 hr 18 min 26 sec)
Heartbeat CPU 0 instructions: 630000096 cycles: 444275613 heartbeat IPC: 1.398 cumulative IPC: 1.418 (Simulation time: 01 hr 19 min 44 sec)
Heartbeat CPU 0 instructions: 640000100 cycles: 451427815 heartbeat IPC: 1.398 cumulative IPC: 1.418 (Simulation time: 01 hr 21 min 03 sec)
Heartbeat CPU 0 instructions: 650000104 cycles: 458570403 heartbeat IPC: 1.4 cumulative IPC: 1.417 (Simulation time: 01 hr 22 min 22 sec)
Heartbeat CPU 0 instructions: 660000105 cycles: 465728555 heartbeat IPC: 1.397 cumulative IPC: 1.417 (Simulation time: 01 hr 23 min 41 sec)
Heartbeat CPU 0 instructions: 670000107 cycles: 472859254 heartbeat IPC: 1.402 cumulative IPC: 1.417 (Simulation time: 01 hr 24 min 59 sec)
Heartbeat CPU 0 instructions: 680000109 cycles: 479958589 heartbeat IPC: 1.409 cumulative IPC: 1.417 (Simulation time: 01 hr 26 min 14 sec)
Heartbeat CPU 0 instructions: 690000113 cycles: 487075529 heartbeat IPC: 1.405 cumulative IPC: 1.417 (Simulation time: 01 hr 27 min 35 sec)
Heartbeat CPU 0 instructions: 700000113 cycles: 494206442 heartbeat IPC: 1.402 cumulative IPC: 1.416 (Simulation time: 01 hr 28 min 38 sec)
Heartbeat CPU 0 instructions: 710000117 cycles: 501429761 heartbeat IPC: 1.384 cumulative IPC: 1.416 (Simulation time: 01 hr 29 min 54 sec)
Heartbeat CPU 0 instructions: 720000119 cycles: 508557694 heartbeat IPC: 1.403 cumulative IPC: 1.416 (Simulation time: 01 hr 31 min 14 sec)
Heartbeat CPU 0 instructions: 730000121 cycles: 515683806 heartbeat IPC: 1.403 cumulative IPC: 1.416 (Simulation time: 01 hr 32 min 30 sec)
Heartbeat CPU 0 instructions: 740000122 cycles: 522898783 heartbeat IPC: 1.386 cumulative IPC: 1.415 (Simulation time: 01 hr 33 min 43 sec)
Heartbeat CPU 0 instructions: 750000124 cycles: 530007805 heartbeat IPC: 1.407 cumulative IPC: 1.415 (Simulation time: 01 hr 34 min 48 sec)
Heartbeat CPU 0 instructions: 760000127 cycles: 537140833 heartbeat IPC: 1.402 cumulative IPC: 1.415 (Simulation time: 01 hr 36 min 00 sec)
Heartbeat CPU 0 instructions: 770000129 cycles: 544291102 heartbeat IPC: 1.399 cumulative IPC: 1.415 (Simulation time: 01 hr 37 min 18 sec)
Heartbeat CPU 0 instructions: 780000129 cycles: 551405312 heartbeat IPC: 1.406 cumulative IPC: 1.415 (Simulation time: 01 hr 38 min 37 sec)
Heartbeat CPU 0 instructions: 790000131 cycles: 558521346 heartbeat IPC: 1.405 cumulative IPC: 1.414 (Simulation time: 01 hr 39 min 37 sec)
Heartbeat CPU 0 instructions: 800000131 cycles: 565772398 heartbeat IPC: 1.379 cumulative IPC: 1.414 (Simulation time: 01 hr 40 min 53 sec)
Heartbeat CPU 0 instructions: 810000133 cycles: 572846520 heartbeat IPC: 1.414 cumulative IPC: 1.414 (Simulation time: 01 hr 42 min 11 sec)
Heartbeat CPU 0 instructions: 820000133 cycles: 579963891 heartbeat IPC: 1.405 cumulative IPC: 1.414 (Simulation time: 01 hr 43 min 29 sec)
Heartbeat CPU 0 instructions: 830000134 cycles: 587128961 heartbeat IPC: 1.396 cumulative IPC: 1.414 (Simulation time: 01 hr 44 min 47 sec)
Heartbeat CPU 0 instructions: 840000134 cycles: 594263750 heartbeat IPC: 1.402 cumulative IPC: 1.414 (Simulation time: 01 hr 46 min 02 sec)
Heartbeat CPU 0 instructions: 850000134 cycles: 601397670 heartbeat IPC: 1.402 cumulative IPC: 1.413 (Simulation time: 01 hr 47 min 14 sec)
Heartbeat CPU 0 instructions: 860000138 cycles: 608514917 heartbeat IPC: 1.405 cumulative IPC: 1.413 (Simulation time: 01 hr 48 min 30 sec)
Heartbeat CPU 0 instructions: 870000140 cycles: 615640748 heartbeat IPC: 1.403 cumulative IPC: 1.413 (Simulation time: 01 hr 49 min 36 sec)
Heartbeat CPU 0 instructions: 880000140 cycles: 622732132 heartbeat IPC: 1.41 cumulative IPC: 1.413 (Simulation time: 01 hr 50 min 35 sec)
Heartbeat CPU 0 instructions: 890000143 cycles: 629849759 heartbeat IPC: 1.405 cumulative IPC: 1.413 (Simulation time: 01 hr 51 min 39 sec)
Heartbeat CPU 0 instructions: 900000143 cycles: 637090270 heartbeat IPC: 1.381 cumulative IPC: 1.413 (Simulation time: 01 hr 52 min 43 sec)
Heartbeat CPU 0 instructions: 910000143 cycles: 644207098 heartbeat IPC: 1.405 cumulative IPC: 1.413 (Simulation time: 01 hr 53 min 48 sec)
Heartbeat CPU 0 instructions: 920000146 cycles: 651318490 heartbeat IPC: 1.406 cumulative IPC: 1.413 (Simulation time: 01 hr 55 min 01 sec)
Heartbeat CPU 0 instructions: 930000148 cycles: 658468960 heartbeat IPC: 1.399 cumulative IPC: 1.412 (Simulation time: 01 hr 56 min 19 sec)
Heartbeat CPU 0 instructions: 940000150 cycles: 665604981 heartbeat IPC: 1.401 cumulative IPC: 1.412 (Simulation time: 01 hr 57 min 38 sec)
Heartbeat CPU 0 instructions: 950000152 cycles: 672706892 heartbeat IPC: 1.408 cumulative IPC: 1.412 (Simulation time: 01 hr 58 min 56 sec)
Heartbeat CPU 0 instructions: 960000154 cycles: 679852240 heartbeat IPC: 1.4 cumulative IPC: 1.412 (Simulation time: 02 hr 00 min 15 sec)
Heartbeat CPU 0 instructions: 970000157 cycles: 686973329 heartbeat IPC: 1.404 cumulative IPC: 1.412 (Simulation time: 02 hr 01 min 34 sec)
Heartbeat CPU 0 instructions: 980000159 cycles: 694081444 heartbeat IPC: 1.407 cumulative IPC: 1.412 (Simulation time: 02 hr 02 min 53 sec)
Heartbeat CPU 0 instructions: 990000163 cycles: 701324744 heartbeat IPC: 1.381 cumulative IPC: 1.412 (Simulation time: 02 hr 04 min 12 sec)
Heartbeat CPU 0 instructions: 1000000165 cycles: 708456074 heartbeat IPC: 1.402 cumulative IPC: 1.412 (Simulation time: 02 hr 05 min 30 sec)
[ERROR_CYCLE] Error added at CPU cycle 712780568, next at 915330628, pending count: 1
[DRAM_CYCLE_ERROR] Cycle-based error applied! address=0xfd312b5c0 additional_latency=173500 cycles
Heartbeat CPU 0 instructions: 1010000165 cycles: 715576252 heartbeat IPC: 1.404 cumulative IPC: 1.411 (Simulation time: 02 hr 06 min 44 sec)
Heartbeat CPU 0 instructions: 1020000165 cycles: 722722916 heartbeat IPC: 1.399 cumulative IPC: 1.411 (Simulation time: 02 hr 07 min 41 sec)
Heartbeat CPU 0 instructions: 1030000168 cycles: 729882094 heartbeat IPC: 1.397 cumulative IPC: 1.411 (Simulation time: 02 hr 08 min 41 sec)
Heartbeat CPU 0 instructions: 1040000170 cycles: 736959342 heartbeat IPC: 1.413 cumulative IPC: 1.411 (Simulation time: 02 hr 09 min 49 sec)
Heartbeat CPU 0 instructions: 1050000170 cycles: 744056600 heartbeat IPC: 1.409 cumulative IPC: 1.411 (Simulation time: 02 hr 10 min 59 sec)
Heartbeat CPU 0 instructions: 1060000172 cycles: 751162940 heartbeat IPC: 1.407 cumulative IPC: 1.411 (Simulation time: 02 hr 12 min 15 sec)
Heartbeat CPU 0 instructions: 1070000172 cycles: 758300688 heartbeat IPC: 1.401 cumulative IPC: 1.411 (Simulation time: 02 hr 13 min 24 sec)
Heartbeat CPU 0 instructions: 1080000174 cycles: 765555989 heartbeat IPC: 1.378 cumulative IPC: 1.411 (Simulation time: 02 hr 14 min 38 sec)
Heartbeat CPU 0 instructions: 1090000174 cycles: 772632812 heartbeat IPC: 1.413 cumulative IPC: 1.411 (Simulation time: 02 hr 15 min 49 sec)
Heartbeat CPU 0 instructions: 1100000174 cycles: 779715741 heartbeat IPC: 1.412 cumulative IPC: 1.411 (Simulation time: 02 hr 17 min 05 sec)
Heartbeat CPU 0 instructions: 1110000176 cycles: 786843737 heartbeat IPC: 1.403 cumulative IPC: 1.411 (Simulation time: 02 hr 18 min 22 sec)
Heartbeat CPU 0 instructions: 1120000177 cycles: 794002457 heartbeat IPC: 1.397 cumulative IPC: 1.411 (Simulation time: 02 hr 19 min 39 sec)
Heartbeat CPU 0 instructions: 1130000181 cycles: 801106093 heartbeat IPC: 1.408 cumulative IPC: 1.411 (Simulation time: 02 hr 20 min 55 sec)
Heartbeat CPU 0 instructions: 1140000185 cycles: 808213075 heartbeat IPC: 1.407 cumulative IPC: 1.411 (Simulation time: 02 hr 22 min 03 sec)
Heartbeat CPU 0 instructions: 1150000189 cycles: 815368691 heartbeat IPC: 1.398 cumulative IPC: 1.41 (Simulation time: 02 hr 23 min 08 sec)
Heartbeat CPU 0 instructions: 1160000190 cycles: 822538579 heartbeat IPC: 1.395 cumulative IPC: 1.41 (Simulation time: 02 hr 24 min 07 sec)
Heartbeat CPU 0 instructions: 1170000194 cycles: 829696047 heartbeat IPC: 1.397 cumulative IPC: 1.41 (Simulation time: 02 hr 25 min 22 sec)
Heartbeat CPU 0 instructions: 1180000194 cycles: 836942903 heartbeat IPC: 1.38 cumulative IPC: 1.41 (Simulation time: 02 hr 26 min 41 sec)
Heartbeat CPU 0 instructions: 1190000194 cycles: 844088679 heartbeat IPC: 1.399 cumulative IPC: 1.41 (Simulation time: 02 hr 27 min 57 sec)
Heartbeat CPU 0 instructions: 1200000195 cycles: 851160453 heartbeat IPC: 1.414 cumulative IPC: 1.41 (Simulation time: 02 hr 29 min 16 sec)
Heartbeat CPU 0 instructions: 1210000195 cycles: 858299116 heartbeat IPC: 1.401 cumulative IPC: 1.41 (Simulation time: 02 hr 30 min 36 sec)
Heartbeat CPU 0 instructions: 1220000198 cycles: 865405065 heartbeat IPC: 1.407 cumulative IPC: 1.41 (Simulation time: 02 hr 31 min 43 sec)
Heartbeat CPU 0 instructions: 1230000198 cycles: 872541717 heartbeat IPC: 1.401 cumulative IPC: 1.41 (Simulation time: 02 hr 32 min 35 sec)
Heartbeat CPU 0 instructions: 1240000199 cycles: 879650943 heartbeat IPC: 1.407 cumulative IPC: 1.41 (Simulation time: 02 hr 33 min 51 sec)
Heartbeat CPU 0 instructions: 1250000202 cycles: 886767906 heartbeat IPC: 1.405 cumulative IPC: 1.41 (Simulation time: 02 hr 35 min 06 sec)
Heartbeat CPU 0 instructions: 1260000204 cycles: 893885320 heartbeat IPC: 1.405 cumulative IPC: 1.41 (Simulation time: 02 hr 36 min 25 sec)
Heartbeat CPU 0 instructions: 1270000205 cycles: 901113328 heartbeat IPC: 1.384 cumulative IPC: 1.409 (Simulation time: 02 hr 37 min 46 sec)
Heartbeat CPU 0 instructions: 1280000208 cycles: 908254586 heartbeat IPC: 1.4 cumulative IPC: 1.409 (Simulation time: 02 hr 39 min 06 sec)
[ERROR_CYCLE] Error added at CPU cycle 915330628, next at 2569606398, pending count: 1
[DRAM_CYCLE_ERROR] Cycle-based error applied! address=0x90491ce40 additional_latency=173500 cycles
Heartbeat CPU 0 instructions: 1290000212 cycles: 915395300 heartbeat IPC: 1.4 cumulative IPC: 1.409 (Simulation time: 02 hr 40 min 09 sec)
Heartbeat CPU 0 instructions: 1300000215 cycles: 922535766 heartbeat IPC: 1.4 cumulative IPC: 1.409 (Simulation time: 02 hr 41 min 18 sec)
Heartbeat CPU 0 instructions: 1310000216 cycles: 929684577 heartbeat IPC: 1.399 cumulative IPC: 1.409 (Simulation time: 02 hr 42 min 27 sec)
Heartbeat CPU 0 instructions: 1320000216 cycles: 936766491 heartbeat IPC: 1.412 cumulative IPC: 1.409 (Simulation time: 02 hr 43 min 33 sec)
Heartbeat CPU 0 instructions: 1330000219 cycles: 943864222 heartbeat IPC: 1.409 cumulative IPC: 1.409 (Simulation time: 02 hr 44 min 47 sec)
Heartbeat CPU 0 instructions: 1340000223 cycles: 950956371 heartbeat IPC: 1.41 cumulative IPC: 1.409 (Simulation time: 02 hr 45 min 58 sec)
Heartbeat CPU 0 instructions: 1350000224 cycles: 958088891 heartbeat IPC: 1.402 cumulative IPC: 1.409 (Simulation time: 02 hr 47 min 17 sec)
Heartbeat CPU 0 instructions: 1360000226 cycles: 965317452 heartbeat IPC: 1.383 cumulative IPC: 1.409 (Simulation time: 02 hr 48 min 35 sec)
Heartbeat CPU 0 instructions: 1370000227 cycles: 972419456 heartbeat IPC: 1.408 cumulative IPC: 1.409 (Simulation time: 02 hr 49 min 53 sec)
Heartbeat CPU 0 instructions: 1380000230 cycles: 979530959 heartbeat IPC: 1.406 cumulative IPC: 1.409 (Simulation time: 02 hr 51 min 12 sec)
Heartbeat CPU 0 instructions: 1390000234 cycles: 986656466 heartbeat IPC: 1.403 cumulative IPC: 1.409 (Simulation time: 02 hr 52 min 30 sec)
Heartbeat CPU 0 instructions: 1400000236 cycles: 993849367 heartbeat IPC: 1.39 cumulative IPC: 1.409 (Simulation time: 02 hr 53 min 30 sec)
Heartbeat CPU 0 instructions: 1410000237 cycles: 1000929603 heartbeat IPC: 1.412 cumulative IPC: 1.409 (Simulation time: 02 hr 54 min 33 sec)
Heartbeat CPU 0 instructions: 1420000237 cycles: 1008040989 heartbeat IPC: 1.406 cumulative IPC: 1.409 (Simulation time: 02 hr 55 min 50 sec)
Heartbeat CPU 0 instructions: 1430000238 cycles: 1015138704 heartbeat IPC: 1.409 cumulative IPC: 1.409 (Simulation time: 02 hr 57 min 08 sec)
Heartbeat CPU 0 instructions: 1440000238 cycles: 1022283287 heartbeat IPC: 1.4 cumulative IPC: 1.409 (Simulation time: 02 hr 58 min 26 sec)
Heartbeat CPU 0 instructions: 1450000239 cycles: 1029383251 heartbeat IPC: 1.408 cumulative IPC: 1.409 (Simulation time: 02 hr 59 min 28 sec)
Heartbeat CPU 0 instructions: 1460000239 cycles: 1036626266 heartbeat IPC: 1.381 cumulative IPC: 1.408 (Simulation time: 03 hr 00 min 35 sec)
Heartbeat CPU 0 instructions: 1470000243 cycles: 1043778398 heartbeat IPC: 1.398 cumulative IPC: 1.408 (Simulation time: 03 hr 01 min 49 sec)
Heartbeat CPU 0 instructions: 1480000244 cycles: 1050879823 heartbeat IPC: 1.408 cumulative IPC: 1.408 (Simulation time: 03 hr 03 min 06 sec)
Heartbeat CPU 0 instructions: 1490000247 cycles: 1058007603 heartbeat IPC: 1.403 cumulative IPC: 1.408 (Simulation time: 03 hr 04 min 23 sec)
Heartbeat CPU 0 instructions: 1500000248 cycles: 1065068877 heartbeat IPC: 1.416 cumulative IPC: 1.408 (Simulation time: 03 hr 05 min 40 sec)
Heartbeat CPU 0 instructions: 1510000250 cycles: 1072198408 heartbeat IPC: 1.403 cumulative IPC: 1.408 (Simulation time: 03 hr 06 min 57 sec)
Heartbeat CPU 0 instructions: 1520000252 cycles: 1079395865 heartbeat IPC: 1.389 cumulative IPC: 1.408 (Simulation time: 03 hr 08 min 15 sec)
Heartbeat CPU 0 instructions: 1530000252 cycles: 1086563967 heartbeat IPC: 1.395 cumulative IPC: 1.408 (Simulation time: 03 hr 09 min 22 sec)
Heartbeat CPU 0 instructions: 1540000255 cycles: 1093696080 heartbeat IPC: 1.402 cumulative IPC: 1.408 (Simulation time: 03 hr 10 min 31 sec)
Heartbeat CPU 0 instructions: 1550000259 cycles: 1100926938 heartbeat IPC: 1.383 cumulative IPC: 1.408 (Simulation time: 03 hr 11 min 47 sec)
Heartbeat CPU 0 instructions: 1560000261 cycles: 1108045996 heartbeat IPC: 1.405 cumulative IPC: 1.408 (Simulation time: 03 hr 13 min 03 sec)
Heartbeat CPU 0 instructions: 1570000261 cycles: 1115181956 heartbeat IPC: 1.401 cumulative IPC: 1.408 (Simulation time: 03 hr 14 min 13 sec)
Heartbeat CPU 0 instructions: 1580000264 cycles: 1122259916 heartbeat IPC: 1.413 cumulative IPC: 1.408 (Simulation time: 03 hr 15 min 20 sec)
Heartbeat CPU 0 instructions: 1590000264 cycles: 1129382911 heartbeat IPC: 1.404 cumulative IPC: 1.408 (Simulation time: 03 hr 16 min 38 sec)
Heartbeat CPU 0 instructions: 1600000264 cycles: 1136521453 heartbeat IPC: 1.401 cumulative IPC: 1.408 (Simulation time: 03 hr 17 min 37 sec)
Heartbeat CPU 0 instructions: 1610000267 cycles: 1143710495 heartbeat IPC: 1.391 cumulative IPC: 1.408 (Simulation time: 03 hr 18 min 57 sec)
Heartbeat CPU 0 instructions: 1620000268 cycles: 1150820453 heartbeat IPC: 1.406 cumulative IPC: 1.408 (Simulation time: 03 hr 20 min 10 sec)
Heartbeat CPU 0 instructions: 1630000270 cycles: 1157962602 heartbeat IPC: 1.4 cumulative IPC: 1.408 (Simulation time: 03 hr 21 min 28 sec)
Heartbeat CPU 0 instructions: 1640000270 cycles: 1165198796 heartbeat IPC: 1.382 cumulative IPC: 1.407 (Simulation time: 03 hr 22 min 40 sec)
Heartbeat CPU 0 instructions: 1650000273 cycles: 1172344668 heartbeat IPC: 1.399 cumulative IPC: 1.407 (Simulation time: 03 hr 23 min 58 sec)
Heartbeat CPU 0 instructions: 1660000277 cycles: 1179426315 heartbeat IPC: 1.412 cumulative IPC: 1.407 (Simulation time: 03 hr 25 min 15 sec)
Heartbeat CPU 0 instructions: 1670000281 cycles: 1186497866 heartbeat IPC: 1.414 cumulative IPC: 1.408 (Simulation time: 03 hr 26 min 19 sec)
Heartbeat CPU 0 instructions: 1680000285 cycles: 1193749606 heartbeat IPC: 1.379 cumulative IPC: 1.407 (Simulation time: 03 hr 27 min 22 sec)
Heartbeat CPU 0 instructions: 1690000287 cycles: 1200867498 heartbeat IPC: 1.405 cumulative IPC: 1.407 (Simulation time: 03 hr 28 min 25 sec)
Heartbeat CPU 0 instructions: 1700000290 cycles: 1208014797 heartbeat IPC: 1.399 cumulative IPC: 1.407 (Simulation time: 03 hr 29 min 34 sec)
Heartbeat CPU 0 instructions: 1710000290 cycles: 1215144061 heartbeat IPC: 1.403 cumulative IPC: 1.407 (Simulation time: 03 hr 30 min 52 sec)
Heartbeat CPU 0 instructions: 1720000290 cycles: 1222283339 heartbeat IPC: 1.401 cumulative IPC: 1.407 (Simulation time: 03 hr 32 min 09 sec)
Heartbeat CPU 0 instructions: 1730000292 cycles: 1229400646 heartbeat IPC: 1.405 cumulative IPC: 1.407 (Simulation time: 03 hr 33 min 27 sec)
Heartbeat CPU 0 instructions: 1740000296 cycles: 1236660032 heartbeat IPC: 1.378 cumulative IPC: 1.407 (Simulation time: 03 hr 34 min 46 sec)
Heartbeat CPU 0 instructions: 1750000296 cycles: 1243752139 heartbeat IPC: 1.41 cumulative IPC: 1.407 (Simulation time: 03 hr 36 min 05 sec)
Heartbeat CPU 0 instructions: 1760000296 cycles: 1250890749 heartbeat IPC: 1.401 cumulative IPC: 1.407 (Simulation time: 03 hr 37 min 11 sec)
Heartbeat CPU 0 instructions: 1770000297 cycles: 1257966514 heartbeat IPC: 1.413 cumulative IPC: 1.407 (Simulation time: 03 hr 38 min 08 sec)
Heartbeat CPU 0 instructions: 1780000299 cycles: 1265061914 heartbeat IPC: 1.409 cumulative IPC: 1.407 (Simulation time: 03 hr 39 min 18 sec)
Heartbeat CPU 0 instructions: 1790000301 cycles: 1272190146 heartbeat IPC: 1.403 cumulative IPC: 1.407 (Simulation time: 03 hr 40 min 31 sec)
Heartbeat CPU 0 instructions: 1800000304 cycles: 1279315657 heartbeat IPC: 1.403 cumulative IPC: 1.407 (Simulation time: 03 hr 41 min 49 sec)
Heartbeat CPU 0 instructions: 1810000304 cycles: 1286527820 heartbeat IPC: 1.387 cumulative IPC: 1.407 (Simulation time: 03 hr 43 min 08 sec)
Heartbeat CPU 0 instructions: 1820000306 cycles: 1293783099 heartbeat IPC: 1.378 cumulative IPC: 1.407 (Simulation time: 03 hr 44 min 15 sec)
Heartbeat CPU 0 instructions: 1830000306 cycles: 1301001773 heartbeat IPC: 1.385 cumulative IPC: 1.407 (Simulation time: 03 hr 45 min 25 sec)
Heartbeat CPU 0 instructions: 1840000308 cycles: 1308081539 heartbeat IPC: 1.412 cumulative IPC: 1.407 (Simulation time: 03 hr 46 min 44 sec)
Heartbeat CPU 0 instructions: 1850000311 cycles: 1315176705 heartbeat IPC: 1.409 cumulative IPC: 1.407 (Simulation time: 03 hr 47 min 57 sec)
Heartbeat CPU 0 instructions: 1860000312 cycles: 1322311949 heartbeat IPC: 1.401 cumulative IPC: 1.407 (Simulation time: 03 hr 49 min 15 sec)
Heartbeat CPU 0 instructions: 1870000314 cycles: 1329414578 heartbeat IPC: 1.408 cumulative IPC: 1.407 (Simulation time: 03 hr 50 min 34 sec)
Heartbeat CPU 0 instructions: 1880000314 cycles: 1336551519 heartbeat IPC: 1.401 cumulative IPC: 1.407 (Simulation time: 03 hr 51 min 40 sec)
Heartbeat CPU 0 instructions: 1890000314 cycles: 1343696852 heartbeat IPC: 1.4 cumulative IPC: 1.407 (Simulation time: 03 hr 52 min 53 sec)
Heartbeat CPU 0 instructions: 1900000314 cycles: 1350774222 heartbeat IPC: 1.413 cumulative IPC: 1.407 (Simulation time: 03 hr 54 min 11 sec)
Heartbeat CPU 0 instructions: 1910000315 cycles: 1357855838 heartbeat IPC: 1.412 cumulative IPC: 1.407 (Simulation time: 03 hr 55 min 29 sec)
Heartbeat CPU 0 instructions: 1920000315 cycles: 1365071097 heartbeat IPC: 1.386 cumulative IPC: 1.407 (Simulation time: 03 hr 56 min 48 sec)
Heartbeat CPU 0 instructions: 1930000318 cycles: 1372184134 heartbeat IPC: 1.406 cumulative IPC: 1.407 (Simulation time: 03 hr 58 min 05 sec)
Heartbeat CPU 0 instructions: 1940000318 cycles: 1379332451 heartbeat IPC: 1.399 cumulative IPC: 1.406 (Simulation time: 03 hr 58 min 59 sec)
Heartbeat CPU 0 instructions: 1950000318 cycles: 1386467665 heartbeat IPC: 1.401 cumulative IPC: 1.406 (Simulation time: 03 hr 59 min 51 sec)
Heartbeat CPU 0 instructions: 1960000319 cycles: 1393584279 heartbeat IPC: 1.405 cumulative IPC: 1.406 (Simulation time: 04 hr 00 min 52 sec)
Heartbeat CPU 0 instructions: 1970000323 cycles: 1400719856 heartbeat IPC: 1.401 cumulative IPC: 1.406 (Simulation time: 04 hr 01 min 56 sec)
Heartbeat CPU 0 instructions: 1980000327 cycles: 1407833184 heartbeat IPC: 1.406 cumulative IPC: 1.406 (Simulation time: 04 hr 03 min 04 sec)
Heartbeat CPU 0 instructions: 1990000328 cycles: 1414977378 heartbeat IPC: 1.4 cumulative IPC: 1.406 (Simulation time: 04 hr 04 min 16 sec)

=== ERROR PAGE STATISTICS ===
Mode: CYCLE
Error Cycle Interval: 1000000000 CPU cycles
Total Error Accesses: 2
==============================
Simulation finished CPU 0 instructions: 1999999507 cycles: 1422133026 cumulative IPC: 1.406 (Simulation time: 04 hr 05 min 25 sec)
Simulation complete CPU 0 instructions: 1999999507 cycles: 1422133026 cumulative IPC: 1.406 (Simulation time: 04 hr 05 min 25 sec)

ChampSim completed all CPUs

=== Simulation ===
CPU 0 runs test_traces/607.cactuBSSN_s-2421B.champsimtrace.xz

Region of Interest Statistics

CPU 0 cumulative IPC: 1.406 instructions: 1999999507 cycles: 1422133026
CPU 0 Branch Prediction Accuracy: 98.41% MPKI: 0.0223 Average ROB Occupancy at Mispredict: 325.7
Branch type MPKI
BRANCH_DIRECT_JUMP: 3.4e-05
BRANCH_INDIRECT: 4.45e-05
BRANCH_CONDITIONAL: 0.0122
BRANCH_DIRECT_CALL: 0.000332
BRANCH_INDIRECT_CALL: 1.5e-06
BRANCH_RETURN: 0.009687

cpu0->cpu0_STLB TOTAL        ACCESS:  148903108 HIT:  148663057 MISS:     240051 MSHR_MERGE:          0
cpu0->cpu0_STLB LOAD         ACCESS:  148903108 HIT:  148663057 MISS:     240051 MSHR_MERGE:          0
cpu0->cpu0_STLB RFO          ACCESS:          0 HIT:          0 MISS:          0 MSHR_MERGE:          0
cpu0->cpu0_STLB PREFETCH     ACCESS:          0 HIT:          0 MISS:          0 MSHR_MERGE:          0
cpu0->cpu0_STLB WRITE        ACCESS:          0 HIT:          0 MISS:          0 MSHR_MERGE:          0
cpu0->cpu0_STLB TRANSLATION  ACCESS:          0 HIT:          0 MISS:          0 MSHR_MERGE:          0
cpu0->cpu0_STLB PREFETCH REQUESTED:          0 ISSUED:          0 USEFUL:          0 USELESS:          0
cpu0->cpu0_STLB AVERAGE MISS LATENCY: 363 cycles
cpu0->cpu0_L2C TOTAL        ACCESS:  251278003 HIT:  226076797 MISS:   25201206 MSHR_MERGE:          0
cpu0->cpu0_L2C LOAD         ACCESS:  217197997 HIT:  192860054 MISS:   24337943 MSHR_MERGE:          0
cpu0->cpu0_L2C RFO          ACCESS:   16162273 HIT:   15299075 MISS:     863198 MSHR_MERGE:          0
cpu0->cpu0_L2C PREFETCH     ACCESS:          0 HIT:          0 MISS:          0 MSHR_MERGE:          0
cpu0->cpu0_L2C WRITE        ACCESS:   17917733 HIT:   17917668 MISS:         65 MSHR_MERGE:          0
cpu0->cpu0_L2C TRANSLATION  ACCESS:          0 HIT:          0 MISS:          0 MSHR_MERGE:          0
cpu0->cpu0_L2C PREFETCH REQUESTED:          0 ISSUED:          0 USEFUL:          0 USELESS:          0
cpu0->cpu0_L2C AVERAGE MISS LATENCY: 82.33 cycles
cpu0->cpu0_L1I TOTAL        ACCESS:  406699202 HIT:  404052127 MISS:    2647075 MSHR_MERGE:    1296932
cpu0->cpu0_L1I LOAD         ACCESS:  406699202 HIT:  404052127 MISS:    2647075 MSHR_MERGE:    1296932
cpu0->cpu0_L1I RFO          ACCESS:          0 HIT:          0 MISS:          0 MSHR_MERGE:          0
cpu0->cpu0_L1I PREFETCH     ACCESS:          0 HIT:          0 MISS:          0 MSHR_MERGE:          0
cpu0->cpu0_L1I WRITE        ACCESS:          0 HIT:          0 MISS:          0 MSHR_MERGE:          0
cpu0->cpu0_L1I TRANSLATION  ACCESS:          0 HIT:          0 MISS:          0 MSHR_MERGE:          0
cpu0->cpu0_L1I PREFETCH REQUESTED:          0 ISSUED:          0 USEFUL:          0 USELESS:          0
cpu0->cpu0_L1I AVERAGE MISS LATENCY: 7.258 cycles
cpu0->cpu0_L1D TOTAL        ACCESS:  640946611 HIT:  369612912 MISS:  271333699 MSHR_MERGE:   38766375
cpu0->cpu0_L1D LOAD         ACCESS:  414196097 HIT:  160571735 MISS:  253624362 MSHR_MERGE:   37226657
cpu0->cpu0_L1D RFO          ACCESS:          0 HIT:          0 MISS:          0 MSHR_MERGE:          0
cpu0->cpu0_L1D PREFETCH     ACCESS:          0 HIT:          0 MISS:          0 MSHR_MERGE:          0
cpu0->cpu0_L1D WRITE        ACCESS:  226750514 HIT:  209041177 MISS:   17709337 MSHR_MERGE:    1539718
cpu0->cpu0_L1D TRANSLATION  ACCESS:          0 HIT:          0 MISS:          0 MSHR_MERGE:          0
cpu0->cpu0_L1D PREFETCH REQUESTED:          0 ISSUED:          0 USEFUL:          0 USELESS:          0
cpu0->cpu0_L1D AVERAGE MISS LATENCY: 17.69 cycles
cpu0->cpu0_ITLB TOTAL        ACCESS:  334922499 HIT:  334922291 MISS:        208 MSHR_MERGE:        132
cpu0->cpu0_ITLB LOAD         ACCESS:  334922499 HIT:  334922291 MISS:        208 MSHR_MERGE:        132
cpu0->cpu0_ITLB RFO          ACCESS:          0 HIT:          0 MISS:          0 MSHR_MERGE:          0
cpu0->cpu0_ITLB PREFETCH     ACCESS:          0 HIT:          0 MISS:          0 MSHR_MERGE:          0
cpu0->cpu0_ITLB WRITE        ACCESS:          0 HIT:          0 MISS:          0 MSHR_MERGE:          0
cpu0->cpu0_ITLB TRANSLATION  ACCESS:          0 HIT:          0 MISS:          0 MSHR_MERGE:          0
cpu0->cpu0_ITLB PREFETCH REQUESTED:          0 ISSUED:          0 USEFUL:          0 USELESS:          0
cpu0->cpu0_ITLB AVERAGE MISS LATENCY: 602.8 cycles
cpu0->cpu0_DTLB TOTAL        ACCESS:  541464699 HIT:  342433183 MISS:  199031516 MSHR_MERGE:   50128483
cpu0->cpu0_DTLB LOAD         ACCESS:  541464699 HIT:  342433183 MISS:  199031516 MSHR_MERGE:   50128483
cpu0->cpu0_DTLB RFO          ACCESS:          0 HIT:          0 MISS:          0 MSHR_MERGE:          0
cpu0->cpu0_DTLB PREFETCH     ACCESS:          0 HIT:          0 MISS:          0 MSHR_MERGE:          0
cpu0->cpu0_DTLB WRITE        ACCESS:          0 HIT:          0 MISS:          0 MSHR_MERGE:          0
cpu0->cpu0_DTLB TRANSLATION  ACCESS:          0 HIT:          0 MISS:          0 MSHR_MERGE:          0
cpu0->cpu0_DTLB PREFETCH REQUESTED:          0 ISSUED:          0 USEFUL:          0 USELESS:          0
cpu0->cpu0_DTLB AVERAGE MISS LATENCY: 5.714 cycles
cpu0->LLC TOTAL        ACCESS:   27696937 HIT:   12575061 MISS:   15121876 MSHR_MERGE:          0
cpu0->LLC LOAD         ACCESS:   24337932 HIT:    9248242 MISS:   15089690 MSHR_MERGE:          0
cpu0->LLC RFO          ACCESS:     856874 HIT:     826257 MISS:      30617 MSHR_MERGE:          0
cpu0->LLC PREFETCH     ACCESS:          0 HIT:          0 MISS:          0 MSHR_MERGE:          0
cpu0->LLC WRITE        ACCESS:    2502131 HIT:    2500562 MISS:       1569 MSHR_MERGE:          0
cpu0->LLC TRANSLATION  ACCESS:          0 HIT:          0 MISS:          0 MSHR_MERGE:          0
cpu0->LLC PREFETCH REQUESTED:          0 ISSUED:          0 USEFUL:          0 USELESS:          0
cpu0->LLC AVERAGE MISS LATENCY: 111.2 cycles

DRAM Statistics

Channel 0 RQ ROW_BUFFER_HIT:       1371
  ROW_BUFFER_MISS:    7862038
  AVG DBUS CONGESTED CYCLE: 9.343
Channel 0 WQ ROW_BUFFER_HIT:     208704
  ROW_BUFFER_MISS:     736237
  FULL:          0
Channel 0 REFRESHES ISSUED:     118503

Channel 1 RQ ROW_BUFFER_HIT:       1362
  ROW_BUFFER_MISS:    7867442
  AVG DBUS CONGESTED CYCLE: 9.347
Channel 1 WQ ROW_BUFFER_HIT:     209228
  ROW_BUFFER_MISS:     735817
  FULL:          0
Channel 1 REFRESHES ISSUED:     118503
