[VMEM] WARNING: physical memory size is smaller than virtual memory size.

*** ChampSim Multicore Out-of-Order Simulator ***
Warmup Instructions: 0
Simulation Instructions: 9223372036854775807
Number of CPUs: 1
Page size: 4096

Off-chip DRAM Size: 128 GiB Channels: 2 Width: 32-bit Data Rate: 4807 MT/s
[ERROR_PAGE_MANAGER] Error latency: 173500 
[ERROR_PAGE_MANAGER] Random seed: 54321 (fixed for preload reproducibility)
[ERROR_PAGE_MANAGER] Cycle-based error modeling enabled
[ERROR_PAGE_MANAGER] Errors per interval: 1
[ERROR_PAGE_MANAGER] Error cycle interval: 80000000 cycles

=== ERROR PAGE STATISTICS ===
Mode: CYCLE
Error Cycle Interval: 80000000 CPU cycles
Total Error Accesses: 0
==============================
Warmup finished CPU 0 instructions: 0 cycles: 1 cumulative IPC: 0 (Simulation time: 00 hr 00 min 02 sec)
Warmup complete CPU 0 instructions: 0 cycles: 1 cumulative IPC: 0 (Simulation time: 00 hr 00 min 02 sec)
Heartbeat CPU 0 instructions: 10000003 cycles: 31650387 heartbeat IPC: 0.316 cumulative IPC: 0.316 (Simulation time: 00 hr 03 min 10 sec)
[ERROR_CYCLE] Error added at CPU cycle 57022446, next at 73226450, pending count: 1
[DRAM_CYCLE_ERROR] Cycle-based error applied! address=0x6b25ad518 additional_latency=173500 cycles
Heartbeat CPU 0 instructions: 20000007 cycles: 59884546 heartbeat IPC: 0.3542 cumulative IPC: 0.334 (Simulation time: 00 hr 06 min 19 sec)
[ERROR_CYCLE] Error added at CPU cycle 73226451, next at 205568512, pending count: 1
[DRAM_CYCLE_ERROR] Cycle-based error applied! address=0x62d12d30 additional_latency=173500 cycles
Heartbeat CPU 0 instructions: 30000008 cycles: 86171223 heartbeat IPC: 0.3804 cumulative IPC: 0.3481 (Simulation time: 00 hr 09 min 16 sec)
Heartbeat CPU 0 instructions: 40000008 cycles: 112671117 heartbeat IPC: 0.3774 cumulative IPC: 0.355 (Simulation time: 00 hr 12 min 15 sec)
Heartbeat CPU 0 instructions: 50000008 cycles: 138652010 heartbeat IPC: 0.3849 cumulative IPC: 0.3606 (Simulation time: 00 hr 14 min 43 sec)
Heartbeat CPU 0 instructions: 60000011 cycles: 163321840 heartbeat IPC: 0.4054 cumulative IPC: 0.3674 (Simulation time: 00 hr 17 min 09 sec)
Heartbeat CPU 0 instructions: 70000011 cycles: 188283194 heartbeat IPC: 0.4006 cumulative IPC: 0.3718 (Simulation time: 00 hr 19 min 18 sec)
[ERROR_CYCLE] Error added at CPU cycle 205568513, next at 427741518, pending count: 1
[DRAM_CYCLE_ERROR] Cycle-based error applied! address=0x693ef1990 additional_latency=173500 cycles
Heartbeat CPU 0 instructions: 80000012 cycles: 212919689 heartbeat IPC: 0.4059 cumulative IPC: 0.3757 (Simulation time: 00 hr 22 min 06 sec)
Heartbeat CPU 0 instructions: 90000013 cycles: 237262152 heartbeat IPC: 0.4108 cumulative IPC: 0.3793 (Simulation time: 00 hr 24 min 51 sec)
Heartbeat CPU 0 instructions: 100000016 cycles: 261356839 heartbeat IPC: 0.415 cumulative IPC: 0.3826 (Simulation time: 00 hr 27 min 35 sec)
Heartbeat CPU 0 instructions: 110000018 cycles: 285434836 heartbeat IPC: 0.4153 cumulative IPC: 0.3854 (Simulation time: 00 hr 30 min 18 sec)
Heartbeat CPU 0 instructions: 120000018 cycles: 309410296 heartbeat IPC: 0.4171 cumulative IPC: 0.3878 (Simulation time: 00 hr 32 min 41 sec)
Heartbeat CPU 0 instructions: 130000018 cycles: 334060692 heartbeat IPC: 0.4057 cumulative IPC: 0.3892 (Simulation time: 00 hr 34 min 58 sec)
Heartbeat CPU 0 instructions: 140000020 cycles: 358227235 heartbeat IPC: 0.4138 cumulative IPC: 0.3908 (Simulation time: 00 hr 37 min 42 sec)
Heartbeat CPU 0 instructions: 150000021 cycles: 382771789 heartbeat IPC: 0.4074 cumulative IPC: 0.3919 (Simulation time: 00 hr 40 min 24 sec)
Heartbeat CPU 0 instructions: 160000021 cycles: 406987057 heartbeat IPC: 0.413 cumulative IPC: 0.3931 (Simulation time: 00 hr 43 min 03 sec)
[ERROR_CYCLE] Error added at CPU cycle 427741518, next at 430145799, pending count: 1
[DRAM_CYCLE_ERROR] Cycle-based error applied! address=0x137f1b0b50 additional_latency=173500 cycles
[ERROR_CYCLE] Error added at CPU cycle 430145800, next at 553109136, pending count: 1
[DRAM_CYCLE_ERROR] Cycle-based error applied! address=0x56a1e9181 additional_latency=173500 cycles
Heartbeat CPU 0 instructions: 170000021 cycles: 431014719 heartbeat IPC: 0.4162 cumulative IPC: 0.3944 (Simulation time: 00 hr 45 min 41 sec)
Heartbeat CPU 0 instructions: 180000024 cycles: 455023622 heartbeat IPC: 0.4165 cumulative IPC: 0.3956 (Simulation time: 00 hr 48 min 23 sec)
Heartbeat CPU 0 instructions: 190000028 cycles: 478878740 heartbeat IPC: 0.4192 cumulative IPC: 0.3968 (Simulation time: 00 hr 51 min 04 sec)
Heartbeat CPU 0 instructions: 200000029 cycles: 503637830 heartbeat IPC: 0.4039 cumulative IPC: 0.3971 (Simulation time: 00 hr 53 min 52 sec)
Heartbeat CPU 0 instructions: 210000033 cycles: 528031648 heartbeat IPC: 0.4099 cumulative IPC: 0.3977 (Simulation time: 00 hr 56 min 37 sec)
Heartbeat CPU 0 instructions: 220000035 cycles: 552305777 heartbeat IPC: 0.412 cumulative IPC: 0.3983 (Simulation time: 00 hr 59 min 07 sec)
[ERROR_CYCLE] Error added at CPU cycle 553109137, next at 567427547, pending count: 1
[DRAM_CYCLE_ERROR] Cycle-based error applied! address=0xd48847368 additional_latency=173500 cycles
[ERROR_CYCLE] Error added at CPU cycle 567427547, next at 612939373, pending count: 1
[DRAM_CYCLE_ERROR] Cycle-based error applied! address=0x1dad049000 additional_latency=173500 cycles
Heartbeat CPU 0 instructions: 230000036 cycles: 576826132 heartbeat IPC: 0.4078 cumulative IPC: 0.3987 (Simulation time: 01 hr 01 min 27 sec)
Heartbeat CPU 0 instructions: 240000036 cycles: 601375263 heartbeat IPC: 0.4073 cumulative IPC: 0.3991 (Simulation time: 01 hr 04 min 16 sec)
[ERROR_CYCLE] Error added at CPU cycle 612939373, next at 681254883, pending count: 1
[DRAM_CYCLE_ERROR] Cycle-based error applied! address=0xc892b0988 additional_latency=173500 cycles
Heartbeat CPU 0 instructions: 250000038 cycles: 624687510 heartbeat IPC: 0.429 cumulative IPC: 0.4002 (Simulation time: 01 hr 06 min 56 sec)
Heartbeat CPU 0 instructions: 260000038 cycles: 648342740 heartbeat IPC: 0.4227 cumulative IPC: 0.401 (Simulation time: 01 hr 09 min 26 sec)
Heartbeat CPU 0 instructions: 270000038 cycles: 672438633 heartbeat IPC: 0.415 cumulative IPC: 0.4015 (Simulation time: 01 hr 11 min 57 sec)
[ERROR_CYCLE] Error added at CPU cycle 681254883, next at 700827009, pending count: 1
[DRAM_CYCLE_ERROR] Cycle-based error applied! address=0x1b83dcded0 additional_latency=173500 cycles
Heartbeat CPU 0 instructions: 280000041 cycles: 697654408 heartbeat IPC: 0.3966 cumulative IPC: 0.4013 (Simulation time: 01 hr 14 min 48 sec)
[ERROR_CYCLE] Error added at CPU cycle 700827009, next at 842903644, pending count: 1
[DRAM_CYCLE_ERROR] Cycle-based error applied! address=0x6466dcf88 additional_latency=173500 cycles
Heartbeat CPU 0 instructions: 290000043 cycles: 722185918 heartbeat IPC: 0.4076 cumulative IPC: 0.4016 (Simulation time: 01 hr 17 min 14 sec)
Heartbeat CPU 0 instructions: 300000044 cycles: 745651042 heartbeat IPC: 0.4262 cumulative IPC: 0.4023 (Simulation time: 01 hr 19 min 48 sec)
Heartbeat CPU 0 instructions: 310000044 cycles: 770362762 heartbeat IPC: 0.4047 cumulative IPC: 0.4024 (Simulation time: 01 hr 22 min 35 sec)
Heartbeat CPU 0 instructions: 320000046 cycles: 794645348 heartbeat IPC: 0.4118 cumulative IPC: 0.4027 (Simulation time: 01 hr 25 min 21 sec)
Heartbeat CPU 0 instructions: 330000046 cycles: 818697175 heartbeat IPC: 0.4158 cumulative IPC: 0.4031 (Simulation time: 01 hr 28 min 07 sec)
Heartbeat CPU 0 instructions: 340000050 cycles: 841163654 heartbeat IPC: 0.4451 cumulative IPC: 0.4042 (Simulation time: 01 hr 30 min 43 sec)
[ERROR_CYCLE] Error added at CPU cycle 842903644, next at 871385107, pending count: 1
[DRAM_CYCLE_ERROR] Cycle-based error applied! address=0xaa2d8b510 additional_latency=173500 cycles
Heartbeat CPU 0 instructions: 350000050 cycles: 865126165 heartbeat IPC: 0.4173 cumulative IPC: 0.4046 (Simulation time: 01 hr 33 min 27 sec)
[ERROR_CYCLE] Error added at CPU cycle 871385107, next at 907191996, pending count: 1
[DRAM_CYCLE_ERROR] Cycle-based error applied! address=0x188e4907b0 additional_latency=173500 cycles
Heartbeat CPU 0 instructions: 360000051 cycles: 888515110 heartbeat IPC: 0.4276 cumulative IPC: 0.4052 (Simulation time: 01 hr 36 min 06 sec)
[ERROR_CYCLE] Error added at CPU cycle 907191996, next at 1070014685, pending count: 1
[DRAM_CYCLE_ERROR] Cycle-based error applied! address=0x1b1ef66d8 additional_latency=173500 cycles
Heartbeat CPU 0 instructions: 370000052 cycles: 912195930 heartbeat IPC: 0.4223 cumulative IPC: 0.4056 (Simulation time: 01 hr 38 min 15 sec)
Heartbeat CPU 0 instructions: 380000054 cycles: 935668116 heartbeat IPC: 0.426 cumulative IPC: 0.4061 (Simulation time: 01 hr 40 min 42 sec)
Heartbeat CPU 0 instructions: 390000058 cycles: 959136258 heartbeat IPC: 0.4261 cumulative IPC: 0.4066 (Simulation time: 01 hr 43 min 18 sec)
Heartbeat CPU 0 instructions: 400000059 cycles: 982656573 heartbeat IPC: 0.4252 cumulative IPC: 0.4071 (Simulation time: 01 hr 45 min 55 sec)
Heartbeat CPU 0 instructions: 410000059 cycles: 1006097491 heartbeat IPC: 0.4266 cumulative IPC: 0.4075 (Simulation time: 01 hr 48 min 31 sec)
Heartbeat CPU 0 instructions: 420000062 cycles: 1030071206 heartbeat IPC: 0.4171 cumulative IPC: 0.4077 (Simulation time: 01 hr 51 min 14 sec)
Heartbeat CPU 0 instructions: 430000065 cycles: 1053987490 heartbeat IPC: 0.4181 cumulative IPC: 0.408 (Simulation time: 01 hr 53 min 58 sec)
[ERROR_CYCLE] Error added at CPU cycle 1070014686, next at 1070994884, pending count: 1
[DRAM_CYCLE_ERROR] Cycle-based error applied! address=0xb46f118f8 additional_latency=173500 cycles
[ERROR_CYCLE] Error added at CPU cycle 1070994885, next at 1160990919, pending count: 1
[DRAM_CYCLE_ERROR] Cycle-based error applied! address=0xc965f2002 additional_latency=173500 cycles
Heartbeat CPU 0 instructions: 440000068 cycles: 1078166856 heartbeat IPC: 0.4136 cumulative IPC: 0.4081 (Simulation time: 01 hr 56 min 44 sec)
Heartbeat CPU 0 instructions: 450000068 cycles: 1102350226 heartbeat IPC: 0.4135 cumulative IPC: 0.4082 (Simulation time: 01 hr 59 min 27 sec)
Heartbeat CPU 0 instructions: 460000068 cycles: 1126148643 heartbeat IPC: 0.4202 cumulative IPC: 0.4085 (Simulation time: 02 hr 02 min 12 sec)
Heartbeat CPU 0 instructions: 470000068 cycles: 1150008656 heartbeat IPC: 0.4191 cumulative IPC: 0.4087 (Simulation time: 02 hr 04 min 19 sec)
[ERROR_CYCLE] Error added at CPU cycle 1160990919, next at 1213496919, pending count: 1
[DRAM_CYCLE_ERROR] Cycle-based error applied! address=0xbd84e88d8 additional_latency=173500 cycles
Heartbeat CPU 0 instructions: 480000068 cycles: 1173903056 heartbeat IPC: 0.4185 cumulative IPC: 0.4089 (Simulation time: 02 hr 06 min 29 sec)
Heartbeat CPU 0 instructions: 490000071 cycles: 1199304288 heartbeat IPC: 0.3937 cumulative IPC: 0.4086 (Simulation time: 02 hr 08 min 46 sec)
[ERROR_CYCLE] Error added at CPU cycle 1213496920, next at 1516211877, pending count: 1
[DRAM_CYCLE_ERROR] Cycle-based error applied! address=0xa50e06f70 additional_latency=173500 cycles
Heartbeat CPU 0 instructions: 500000071 cycles: 1222981599 heartbeat IPC: 0.4223 cumulative IPC: 0.4088 (Simulation time: 02 hr 11 min 00 sec)
Heartbeat CPU 0 instructions: 510000075 cycles: 1247495221 heartbeat IPC: 0.4079 cumulative IPC: 0.4088 (Simulation time: 02 hr 13 min 48 sec)
Heartbeat CPU 0 instructions: 520000078 cycles: 1271676391 heartbeat IPC: 0.4135 cumulative IPC: 0.4089 (Simulation time: 02 hr 16 min 25 sec)
Heartbeat CPU 0 instructions: 530000080 cycles: 1295575737 heartbeat IPC: 0.4184 cumulative IPC: 0.4091 (Simulation time: 02 hr 19 min 11 sec)
Heartbeat CPU 0 instructions: 540000080 cycles: 1320446598 heartbeat IPC: 0.4021 cumulative IPC: 0.409 (Simulation time: 02 hr 22 min 02 sec)
Heartbeat CPU 0 instructions: 550000081 cycles: 1345008802 heartbeat IPC: 0.4071 cumulative IPC: 0.4089 (Simulation time: 02 hr 24 min 50 sec)
Heartbeat CPU 0 instructions: 560000082 cycles: 1369197461 heartbeat IPC: 0.4134 cumulative IPC: 0.409 (Simulation time: 02 hr 27 min 02 sec)
Heartbeat CPU 0 instructions: 570000082 cycles: 1393876062 heartbeat IPC: 0.4052 cumulative IPC: 0.4089 (Simulation time: 02 hr 29 min 32 sec)
Heartbeat CPU 0 instructions: 580000083 cycles: 1417970975 heartbeat IPC: 0.415 cumulative IPC: 0.409 (Simulation time: 02 hr 31 min 39 sec)
Heartbeat CPU 0 instructions: 590000085 cycles: 1442607825 heartbeat IPC: 0.4059 cumulative IPC: 0.409 (Simulation time: 02 hr 34 min 03 sec)
Heartbeat CPU 0 instructions: 600000086 cycles: 1466480155 heartbeat IPC: 0.4189 cumulative IPC: 0.4091 (Simulation time: 02 hr 36 min 24 sec)
Heartbeat CPU 0 instructions: 610000086 cycles: 1490636812 heartbeat IPC: 0.414 cumulative IPC: 0.4092 (Simulation time: 02 hr 38 min 39 sec)
Heartbeat CPU 0 instructions: 620000090 cycles: 1515383764 heartbeat IPC: 0.4041 cumulative IPC: 0.4091 (Simulation time: 02 hr 41 min 02 sec)
[ERROR_CYCLE] Error added at CPU cycle 1516211878, next at 1535167431, pending count: 1
[DRAM_CYCLE_ERROR] Cycle-based error applied! address=0x1e2592af8 additional_latency=173500 cycles
[ERROR_CYCLE] Error added at CPU cycle 1535167432, next at 1554376223, pending count: 1
[DRAM_CYCLE_ERROR] Cycle-based error applied! address=0xc7eb99f38 additional_latency=173500 cycles
Heartbeat CPU 0 instructions: 630000093 cycles: 1539721533 heartbeat IPC: 0.4109 cumulative IPC: 0.4092 (Simulation time: 02 hr 43 min 47 sec)
[ERROR_CYCLE] Error added at CPU cycle 1554376224, next at 1784952274, pending count: 1
[DRAM_CYCLE_ERROR] Cycle-based error applied! address=0x138b73b110 additional_latency=173500 cycles
Heartbeat CPU 0 instructions: 640000095 cycles: 1564574217 heartbeat IPC: 0.4024 cumulative IPC: 0.4091 (Simulation time: 02 hr 46 min 20 sec)
Heartbeat CPU 0 instructions: 650000098 cycles: 1589102165 heartbeat IPC: 0.4077 cumulative IPC: 0.409 (Simulation time: 02 hr 49 min 06 sec)
Heartbeat CPU 0 instructions: 660000100 cycles: 1613366262 heartbeat IPC: 0.4121 cumulative IPC: 0.4091 (Simulation time: 02 hr 51 min 34 sec)
Heartbeat CPU 0 instructions: 670000101 cycles: 1637268290 heartbeat IPC: 0.4184 cumulative IPC: 0.4092 (Simulation time: 02 hr 53 min 48 sec)
Heartbeat CPU 0 instructions: 680000104 cycles: 1661268499 heartbeat IPC: 0.4167 cumulative IPC: 0.4093 (Simulation time: 02 hr 56 min 33 sec)
Heartbeat CPU 0 instructions: 690000108 cycles: 1685367224 heartbeat IPC: 0.415 cumulative IPC: 0.4094 (Simulation time: 02 hr 59 min 15 sec)
Heartbeat CPU 0 instructions: 700000111 cycles: 1709321245 heartbeat IPC: 0.4175 cumulative IPC: 0.4095 (Simulation time: 03 hr 01 min 53 sec)
Heartbeat CPU 0 instructions: 710000111 cycles: 1733629785 heartbeat IPC: 0.4114 cumulative IPC: 0.4095 (Simulation time: 03 hr 04 min 32 sec)
Heartbeat CPU 0 instructions: 720000111 cycles: 1758118421 heartbeat IPC: 0.4084 cumulative IPC: 0.4095 (Simulation time: 03 hr 07 min 14 sec)
Heartbeat CPU 0 instructions: 730000112 cycles: 1781920085 heartbeat IPC: 0.4201 cumulative IPC: 0.4097 (Simulation time: 03 hr 09 min 56 sec)
[ERROR_CYCLE] Error added at CPU cycle 1784952274, next at 1816533671, pending count: 1
[DRAM_CYCLE_ERROR] Cycle-based error applied! address=0x13d794b0d0 additional_latency=173500 cycles
Heartbeat CPU 0 instructions: 740000114 cycles: 1806050455 heartbeat IPC: 0.4144 cumulative IPC: 0.4097 (Simulation time: 03 hr 12 min 15 sec)
[ERROR_CYCLE] Error added at CPU cycle 1816533671, next at 2158771940, pending count: 1
[DRAM_CYCLE_ERROR] Cycle-based error applied! address=0xdc7b4fc78 additional_latency=173500 cycles
Heartbeat CPU 0 instructions: 750000114 cycles: 1829984381 heartbeat IPC: 0.4178 cumulative IPC: 0.4098 (Simulation time: 03 hr 14 min 34 sec)
Heartbeat CPU 0 instructions: 760000117 cycles: 1854017246 heartbeat IPC: 0.4161 cumulative IPC: 0.4099 (Simulation time: 03 hr 17 min 06 sec)
Heartbeat CPU 0 instructions: 770000119 cycles: 1877339225 heartbeat IPC: 0.4288 cumulative IPC: 0.4102 (Simulation time: 03 hr 19 min 20 sec)
Heartbeat CPU 0 instructions: 780000119 cycles: 1901065041 heartbeat IPC: 0.4215 cumulative IPC: 0.4103 (Simulation time: 03 hr 21 min 40 sec)
Heartbeat CPU 0 instructions: 790000119 cycles: 1925251485 heartbeat IPC: 0.4135 cumulative IPC: 0.4103 (Simulation time: 03 hr 24 min 26 sec)
Heartbeat CPU 0 instructions: 800000121 cycles: 1948720108 heartbeat IPC: 0.4261 cumulative IPC: 0.4105 (Simulation time: 03 hr 26 min 53 sec)
Heartbeat CPU 0 instructions: 810000124 cycles: 1972989372 heartbeat IPC: 0.412 cumulative IPC: 0.4105 (Simulation time: 03 hr 29 min 33 sec)
Heartbeat CPU 0 instructions: 820000124 cycles: 1996997254 heartbeat IPC: 0.4165 cumulative IPC: 0.4106 (Simulation time: 03 hr 32 min 07 sec)
Heartbeat CPU 0 instructions: 830000127 cycles: 2020772752 heartbeat IPC: 0.4206 cumulative IPC: 0.4107 (Simulation time: 03 hr 34 min 23 sec)
Heartbeat CPU 0 instructions: 840000131 cycles: 2044642992 heartbeat IPC: 0.4189 cumulative IPC: 0.4108 (Simulation time: 03 hr 37 min 08 sec)
Heartbeat CPU 0 instructions: 850000134 cycles: 2068835994 heartbeat IPC: 0.4133 cumulative IPC: 0.4109 (Simulation time: 03 hr 39 min 33 sec)
Heartbeat CPU 0 instructions: 860000138 cycles: 2092683339 heartbeat IPC: 0.4193 cumulative IPC: 0.411 (Simulation time: 03 hr 41 min 45 sec)
Heartbeat CPU 0 instructions: 870000139 cycles: 2116528931 heartbeat IPC: 0.4194 cumulative IPC: 0.4111 (Simulation time: 03 hr 44 min 22 sec)
Heartbeat CPU 0 instructions: 880000143 cycles: 2140654175 heartbeat IPC: 0.4145 cumulative IPC: 0.4111 (Simulation time: 03 hr 46 min 38 sec)
[ERROR_CYCLE] Error added at CPU cycle 2158771941, next at 2204777382, pending count: 1
[DRAM_CYCLE_ERROR] Cycle-based error applied! address=0x13e1a9a090 additional_latency=173500 cycles
Heartbeat CPU 0 instructions: 890000144 cycles: 2164348153 heartbeat IPC: 0.422 cumulative IPC: 0.4112 (Simulation time: 03 hr 49 min 09 sec)
Heartbeat CPU 0 instructions: 900000146 cycles: 2187457095 heartbeat IPC: 0.4327 cumulative IPC: 0.4114 (Simulation time: 03 hr 51 min 25 sec)
[ERROR_CYCLE] Error added at CPU cycle 2204777382, next at 2473853101, pending count: 1
[DRAM_CYCLE_ERROR] Cycle-based error applied! address=0x18bb214598 additional_latency=173500 cycles
Heartbeat CPU 0 instructions: 910000147 cycles: 2211207840 heartbeat IPC: 0.421 cumulative IPC: 0.4115 (Simulation time: 03 hr 54 min 06 sec)
Heartbeat CPU 0 instructions: 920000148 cycles: 2235188788 heartbeat IPC: 0.417 cumulative IPC: 0.4116 (Simulation time: 03 hr 56 min 51 sec)
Heartbeat CPU 0 instructions: 930000148 cycles: 2258434404 heartbeat IPC: 0.4302 cumulative IPC: 0.4118 (Simulation time: 03 hr 59 min 24 sec)
Heartbeat CPU 0 instructions: 940000148 cycles: 2281746203 heartbeat IPC: 0.429 cumulative IPC: 0.412 (Simulation time: 04 hr 02 min 02 sec)
Heartbeat CPU 0 instructions: 950000151 cycles: 2305658829 heartbeat IPC: 0.4182 cumulative IPC: 0.412 (Simulation time: 04 hr 04 min 45 sec)
Heartbeat CPU 0 instructions: 960000153 cycles: 2329322724 heartbeat IPC: 0.4226 cumulative IPC: 0.4121 (Simulation time: 04 hr 07 min 25 sec)
Heartbeat CPU 0 instructions: 970000153 cycles: 2353211826 heartbeat IPC: 0.4186 cumulative IPC: 0.4122 (Simulation time: 04 hr 10 min 01 sec)
Heartbeat CPU 0 instructions: 980000156 cycles: 2376645555 heartbeat IPC: 0.4267 cumulative IPC: 0.4123 (Simulation time: 04 hr 12 min 25 sec)
Heartbeat CPU 0 instructions: 990000157 cycles: 2400635448 heartbeat IPC: 0.4168 cumulative IPC: 0.4124 (Simulation time: 04 hr 15 min 01 sec)
Heartbeat CPU 0 instructions: 1000000158 cycles: 2424578596 heartbeat IPC: 0.4177 cumulative IPC: 0.4124 (Simulation time: 04 hr 17 min 44 sec)
Heartbeat CPU 0 instructions: 1010000158 cycles: 2448321256 heartbeat IPC: 0.4212 cumulative IPC: 0.4125 (Simulation time: 04 hr 20 min 03 sec)
Heartbeat CPU 0 instructions: 1020000158 cycles: 2472269937 heartbeat IPC: 0.4176 cumulative IPC: 0.4126 (Simulation time: 04 hr 22 min 47 sec)
[ERROR_CYCLE] Error added at CPU cycle 2473853101, next at 2497718103, pending count: 1
[DRAM_CYCLE_ERROR] Cycle-based error applied! address=0x596b77760 additional_latency=173500 cycles
Heartbeat CPU 0 instructions: 1030000159 cycles: 2496046378 heartbeat IPC: 0.4206 cumulative IPC: 0.4127 (Simulation time: 04 hr 25 min 30 sec)
[ERROR_CYCLE] Error added at CPU cycle 2497718103, next at 2611876149, pending count: 1
[DRAM_CYCLE_ERROR] Cycle-based error applied! address=0x1ed6c937a8 additional_latency=173500 cycles
Heartbeat CPU 0 instructions: 1040000159 cycles: 2519560663 heartbeat IPC: 0.4253 cumulative IPC: 0.4128 (Simulation time: 04 hr 27 min 49 sec)
Heartbeat CPU 0 instructions: 1050000161 cycles: 2542939595 heartbeat IPC: 0.4277 cumulative IPC: 0.4129 (Simulation time: 04 hr 30 min 25 sec)
Heartbeat CPU 0 instructions: 1060000161 cycles: 2565835889 heartbeat IPC: 0.4368 cumulative IPC: 0.4131 (Simulation time: 04 hr 32 min 53 sec)
Heartbeat CPU 0 instructions: 1070000165 cycles: 2589225654 heartbeat IPC: 0.4275 cumulative IPC: 0.4133 (Simulation time: 04 hr 35 min 01 sec)
[ERROR_CYCLE] Error added at CPU cycle 2611876149, next at 2628954084, pending count: 1
[DRAM_CYCLE_ERROR] Cycle-based error applied! address=0x269239e40 additional_latency=173500 cycles
Heartbeat CPU 0 instructions: 1080000166 cycles: 2613065135 heartbeat IPC: 0.4195 cumulative IPC: 0.4133 (Simulation time: 04 hr 37 min 42 sec)
[ERROR_CYCLE] Error added at CPU cycle 2628954084, next at 2655562730, pending count: 1
[DRAM_CYCLE_ERROR] Cycle-based error applied! address=0x19fa147688 additional_latency=173500 cycles
Heartbeat CPU 0 instructions: 1090000166 cycles: 2636690653 heartbeat IPC: 0.4233 cumulative IPC: 0.4134 (Simulation time: 04 hr 39 min 55 sec)
[ERROR_CYCLE] Error added at CPU cycle 2655562730, next at 2772976160, pending count: 1
[DRAM_CYCLE_ERROR] Cycle-based error applied! address=0x159618d9c8 additional_latency=173500 cycles
Heartbeat CPU 0 instructions: 1100000166 cycles: 2659681569 heartbeat IPC: 0.435 cumulative IPC: 0.4136 (Simulation time: 04 hr 42 min 13 sec)
Heartbeat CPU 0 instructions: 1110000166 cycles: 2683435243 heartbeat IPC: 0.421 cumulative IPC: 0.4136 (Simulation time: 04 hr 44 min 40 sec)
Heartbeat CPU 0 instructions: 1120000168 cycles: 2706757559 heartbeat IPC: 0.4288 cumulative IPC: 0.4138 (Simulation time: 04 hr 47 min 14 sec)
Heartbeat CPU 0 instructions: 1130000172 cycles: 2730530066 heartbeat IPC: 0.4207 cumulative IPC: 0.4138 (Simulation time: 04 hr 49 min 56 sec)
Heartbeat CPU 0 instructions: 1140000176 cycles: 2753781216 heartbeat IPC: 0.4301 cumulative IPC: 0.414 (Simulation time: 04 hr 52 min 37 sec)
[ERROR_CYCLE] Error added at CPU cycle 2772976161, next at 2773633393, pending count: 1
[DRAM_CYCLE_ERROR] Cycle-based error applied! address=0x1bb79161b0 additional_latency=173500 cycles
[ERROR_CYCLE] Error added at CPU cycle 2773633393, next at 2808444482, pending count: 1
[DRAM_CYCLE_ERROR] Cycle-based error applied! address=0x67acb94e0 additional_latency=173500 cycles
Heartbeat CPU 0 instructions: 1150000177 cycles: 2776823248 heartbeat IPC: 0.434 cumulative IPC: 0.4141 (Simulation time: 04 hr 54 min 52 sec)
Heartbeat CPU 0 instructions: 1160000181 cycles: 2800047272 heartbeat IPC: 0.4306 cumulative IPC: 0.4143 (Simulation time: 04 hr 56 min 43 sec)
[ERROR_CYCLE] Error added at CPU cycle 2808444482, next at 2829724174, pending count: 1
[DRAM_CYCLE_ERROR] Cycle-based error applied! address=0x8e59a4978 additional_latency=173500 cycles
Heartbeat CPU 0 instructions: 1170000183 cycles: 2823707632 heartbeat IPC: 0.4226 cumulative IPC: 0.4143 (Simulation time: 04 hr 58 min 31 sec)
[ERROR_CYCLE] Error added at CPU cycle 2829724175, next at 2868628587, pending count: 1
[DRAM_CYCLE_ERROR] Cycle-based error applied! address=0x10d78c2ea8 additional_latency=173500 cycles
Heartbeat CPU 0 instructions: 1180000184 cycles: 2846801078 heartbeat IPC: 0.433 cumulative IPC: 0.4145 (Simulation time: 05 hr 00 min 47 sec)
[ERROR_CYCLE] Error added at CPU cycle 2868628587, next at 2877872688, pending count: 1
[DRAM_CYCLE_ERROR] Cycle-based error applied! address=0x445b0c748 additional_latency=173500 cycles
Heartbeat CPU 0 instructions: 1190000185 cycles: 2870584883 heartbeat IPC: 0.4205 cumulative IPC: 0.4145 (Simulation time: 05 hr 03 min 26 sec)
[ERROR_CYCLE] Error added at CPU cycle 2877872689, next at 2919724526, pending count: 1
[DRAM_CYCLE_ERROR] Cycle-based error applied! address=0x8356ef408 additional_latency=173500 cycles
Heartbeat CPU 0 instructions: 1200000186 cycles: 2893933299 heartbeat IPC: 0.4283 cumulative IPC: 0.4147 (Simulation time: 05 hr 05 min 59 sec)
Heartbeat CPU 0 instructions: 1210000189 cycles: 2917292036 heartbeat IPC: 0.4281 cumulative IPC: 0.4148 (Simulation time: 05 hr 08 min 39 sec)
[ERROR_CYCLE] Error added at CPU cycle 2919724527, next at 2961311055, pending count: 1
[DRAM_CYCLE_ERROR] Cycle-based error applied! address=0x698f43268 additional_latency=173500 cycles
Heartbeat CPU 0 instructions: 1220000191 cycles: 2940796310 heartbeat IPC: 0.4255 cumulative IPC: 0.4149 (Simulation time: 05 hr 11 min 20 sec)
[ERROR_CYCLE] Error added at CPU cycle 2961311055, next at 3078893542, pending count: 1
[DRAM_CYCLE_ERROR] Cycle-based error applied! address=0x1fde969200 additional_latency=173500 cycles
Heartbeat CPU 0 instructions: 1230000191 cycles: 2964332580 heartbeat IPC: 0.4249 cumulative IPC: 0.4149 (Simulation time: 05 hr 14 min 00 sec)
Heartbeat CPU 0 instructions: 1240000192 cycles: 2987870168 heartbeat IPC: 0.4249 cumulative IPC: 0.415 (Simulation time: 05 hr 16 min 42 sec)
Heartbeat CPU 0 instructions: 1250000193 cycles: 3011415492 heartbeat IPC: 0.4247 cumulative IPC: 0.4151 (Simulation time: 05 hr 19 min 22 sec)
Heartbeat CPU 0 instructions: 1260000195 cycles: 3034815467 heartbeat IPC: 0.4274 cumulative IPC: 0.4152 (Simulation time: 05 hr 21 min 41 sec)
Heartbeat CPU 0 instructions: 1270000195 cycles: 3058166858 heartbeat IPC: 0.4282 cumulative IPC: 0.4153 (Simulation time: 05 hr 24 min 01 sec)
[ERROR_CYCLE] Error added at CPU cycle 3078893542, next at 3226440461, pending count: 1
[DRAM_CYCLE_ERROR] Cycle-based error applied! address=0x28d9025e0 additional_latency=173500 cycles
Heartbeat CPU 0 instructions: 1280000195 cycles: 3081571106 heartbeat IPC: 0.4273 cumulative IPC: 0.4154 (Simulation time: 05 hr 26 min 23 sec)
Heartbeat CPU 0 instructions: 1290000197 cycles: 3105333281 heartbeat IPC: 0.4208 cumulative IPC: 0.4154 (Simulation time: 05 hr 29 min 03 sec)
Heartbeat CPU 0 instructions: 1300000199 cycles: 3128703280 heartbeat IPC: 0.4279 cumulative IPC: 0.4155 (Simulation time: 05 hr 31 min 44 sec)
Heartbeat CPU 0 instructions: 1310000199 cycles: 3151693492 heartbeat IPC: 0.435 cumulative IPC: 0.4156 (Simulation time: 05 hr 34 min 22 sec)
Heartbeat CPU 0 instructions: 1320000200 cycles: 3175384931 heartbeat IPC: 0.4221 cumulative IPC: 0.4157 (Simulation time: 05 hr 36 min 38 sec)
Heartbeat CPU 0 instructions: 1330000200 cycles: 3198786769 heartbeat IPC: 0.4273 cumulative IPC: 0.4158 (Simulation time: 05 hr 39 min 06 sec)
Heartbeat CPU 0 instructions: 1340000202 cycles: 3221993528 heartbeat IPC: 0.4309 cumulative IPC: 0.4159 (Simulation time: 05 hr 41 min 46 sec)
[ERROR_CYCLE] Error added at CPU cycle 3226440462, next at 3266392849, pending count: 1
[DRAM_CYCLE_ERROR] Cycle-based error applied! address=0xda5f2a470 additional_latency=173500 cycles
Heartbeat CPU 0 instructions: 1350000205 cycles: 3245662989 heartbeat IPC: 0.4225 cumulative IPC: 0.4159 (Simulation time: 05 hr 44 min 27 sec)
[ERROR_CYCLE] Error added at CPU cycle 3266392849, next at 3316630947, pending count: 1
[DRAM_CYCLE_ERROR] Cycle-based error applied! address=0x2e8750250 additional_latency=173500 cycles
Heartbeat CPU 0 instructions: 1360000205 cycles: 3268683490 heartbeat IPC: 0.4344 cumulative IPC: 0.4161 (Simulation time: 05 hr 47 min 00 sec)
Heartbeat CPU 0 instructions: 1370000207 cycles: 3292391296 heartbeat IPC: 0.4218 cumulative IPC: 0.4161 (Simulation time: 05 hr 49 min 27 sec)
Heartbeat CPU 0 instructions: 1380000207 cycles: 3316144850 heartbeat IPC: 0.421 cumulative IPC: 0.4161 (Simulation time: 05 hr 52 min 10 sec)
[ERROR_CYCLE] Error added at CPU cycle 3316630947, next at 3325418205, pending count: 1
[DRAM_CYCLE_ERROR] Cycle-based error applied! address=0xd37f32178 additional_latency=173500 cycles
[ERROR_CYCLE] Error added at CPU cycle 3325418205, next at 3342351842, pending count: 1
[DRAM_CYCLE_ERROR] Cycle-based error applied! address=0xeaeedc890 additional_latency=173500 cycles
Heartbeat CPU 0 instructions: 1390000207 cycles: 3339880732 heartbeat IPC: 0.4213 cumulative IPC: 0.4162 (Simulation time: 05 hr 54 min 52 sec)
[ERROR_CYCLE] Error added at CPU cycle 3342351843, next at 3431697372, pending count: 1
[DRAM_CYCLE_ERROR] Cycle-based error applied! address=0x18b76860f0 additional_latency=173500 cycles
Heartbeat CPU 0 instructions: 1400000207 cycles: 3363342458 heartbeat IPC: 0.4262 cumulative IPC: 0.4163 (Simulation time: 05 hr 57 min 34 sec)
Heartbeat CPU 0 instructions: 1410000207 cycles: 3387130934 heartbeat IPC: 0.4204 cumulative IPC: 0.4163 (Simulation time: 06 hr 00 min 17 sec)
Heartbeat CPU 0 instructions: 1420000207 cycles: 3411005872 heartbeat IPC: 0.4188 cumulative IPC: 0.4163 (Simulation time: 06 hr 02 min 59 sec)
[ERROR_CYCLE] Error added at CPU cycle 3431697373, next at 3483189846, pending count: 1
[DRAM_CYCLE_ERROR] Cycle-based error applied! address=0x172e0c0118 additional_latency=173500 cycles
Heartbeat CPU 0 instructions: 1430000211 cycles: 3434758908 heartbeat IPC: 0.421 cumulative IPC: 0.4163 (Simulation time: 06 hr 05 min 38 sec)
Heartbeat CPU 0 instructions: 1440000213 cycles: 3458727744 heartbeat IPC: 0.4172 cumulative IPC: 0.4163 (Simulation time: 06 hr 08 min 22 sec)
Heartbeat CPU 0 instructions: 1450000215 cycles: 3481594903 heartbeat IPC: 0.4373 cumulative IPC: 0.4165 (Simulation time: 06 hr 11 min 00 sec)
[ERROR_CYCLE] Error added at CPU cycle 3483189846, next at 3612564501, pending count: 1
[DRAM_CYCLE_ERROR] Cycle-based error applied! address=0x18b3499280 additional_latency=173500 cycles
Heartbeat CPU 0 instructions: 1460000218 cycles: 3505225463 heartbeat IPC: 0.4232 cumulative IPC: 0.4165 (Simulation time: 06 hr 13 min 39 sec)
Heartbeat CPU 0 instructions: 1470000218 cycles: 3528600546 heartbeat IPC: 0.4278 cumulative IPC: 0.4166 (Simulation time: 06 hr 15 min 49 sec)
Heartbeat CPU 0 instructions: 1480000218 cycles: 3552225239 heartbeat IPC: 0.4233 cumulative IPC: 0.4166 (Simulation time: 06 hr 18 min 22 sec)
Heartbeat CPU 0 instructions: 1490000222 cycles: 3575767674 heartbeat IPC: 0.4248 cumulative IPC: 0.4167 (Simulation time: 06 hr 21 min 04 sec)
Heartbeat CPU 0 instructions: 1500000226 cycles: 3599563300 heartbeat IPC: 0.4202 cumulative IPC: 0.4167 (Simulation time: 06 hr 23 min 41 sec)
[ERROR_CYCLE] Error added at CPU cycle 3612564502, next at 3635329558, pending count: 1
[DRAM_CYCLE_ERROR] Cycle-based error applied! address=0x22c03ed60 additional_latency=173500 cycles
Heartbeat CPU 0 instructions: 1510000228 cycles: 3623457124 heartbeat IPC: 0.4185 cumulative IPC: 0.4167 (Simulation time: 06 hr 26 min 21 sec)
[ERROR_CYCLE] Error added at CPU cycle 3635329558, next at 3743546336, pending count: 1
[DRAM_CYCLE_ERROR] Cycle-based error applied! address=0x1e9ebbc5a4 additional_latency=173500 cycles
Heartbeat CPU 0 instructions: 1520000228 cycles: 3647376403 heartbeat IPC: 0.4181 cumulative IPC: 0.4167 (Simulation time: 06 hr 29 min 04 sec)
Heartbeat CPU 0 instructions: 1530000229 cycles: 3671566578 heartbeat IPC: 0.4134 cumulative IPC: 0.4167 (Simulation time: 06 hr 31 min 52 sec)
Heartbeat CPU 0 instructions: 1540000230 cycles: 3695396924 heartbeat IPC: 0.4196 cumulative IPC: 0.4167 (Simulation time: 06 hr 34 min 34 sec)
Heartbeat CPU 0 instructions: 1550000233 cycles: 3719631816 heartbeat IPC: 0.4126 cumulative IPC: 0.4167 (Simulation time: 06 hr 37 min 01 sec)
[ERROR_CYCLE] Error added at CPU cycle 3743546337, next at 3833202836, pending count: 1
[DRAM_CYCLE_ERROR] Cycle-based error applied! address=0x7fd5a4c78 additional_latency=173500 cycles
Heartbeat CPU 0 instructions: 1560000236 cycles: 3743738285 heartbeat IPC: 0.4148 cumulative IPC: 0.4167 (Simulation time: 06 hr 39 min 19 sec)
Heartbeat CPU 0 instructions: 1570000239 cycles: 3767777670 heartbeat IPC: 0.416 cumulative IPC: 0.4167 (Simulation time: 06 hr 41 min 49 sec)
Heartbeat CPU 0 instructions: 1580000242 cycles: 3792041271 heartbeat IPC: 0.4121 cumulative IPC: 0.4167 (Simulation time: 06 hr 44 min 29 sec)
Heartbeat CPU 0 instructions: 1590000245 cycles: 3816175909 heartbeat IPC: 0.4143 cumulative IPC: 0.4166 (Simulation time: 06 hr 47 min 09 sec)
[ERROR_CYCLE] Error added at CPU cycle 3833202836, next at 3918550474, pending count: 1
[DRAM_CYCLE_ERROR] Cycle-based error applied! address=0x500a2ebb8 additional_latency=173500 cycles
Heartbeat CPU 0 instructions: 1600000249 cycles: 3840183510 heartbeat IPC: 0.4165 cumulative IPC: 0.4166 (Simulation time: 06 hr 49 min 27 sec)
Heartbeat CPU 0 instructions: 1610000250 cycles: 3864350777 heartbeat IPC: 0.4138 cumulative IPC: 0.4166 (Simulation time: 06 hr 51 min 46 sec)
Heartbeat CPU 0 instructions: 1620000253 cycles: 3888205122 heartbeat IPC: 0.4192 cumulative IPC: 0.4166 (Simulation time: 06 hr 54 min 20 sec)
Heartbeat CPU 0 instructions: 1630000253 cycles: 3912239409 heartbeat IPC: 0.4161 cumulative IPC: 0.4166 (Simulation time: 06 hr 56 min 57 sec)
[ERROR_CYCLE] Error added at CPU cycle 3918550475, next at 3937595151, pending count: 1
[DRAM_CYCLE_ERROR] Cycle-based error applied! address=0x18fc741208 additional_latency=173500 cycles
Heartbeat CPU 0 instructions: 1640000255 cycles: 3936047315 heartbeat IPC: 0.42 cumulative IPC: 0.4167 (Simulation time: 06 hr 59 min 41 sec)
[ERROR_CYCLE] Error added at CPU cycle 3937595151, next at 4008840545, pending count: 1
[DRAM_CYCLE_ERROR] Cycle-based error applied! address=0xffdf06080 additional_latency=173500 cycles
Heartbeat CPU 0 instructions: 1650000258 cycles: 3959874516 heartbeat IPC: 0.4197 cumulative IPC: 0.4167 (Simulation time: 07 hr 02 min 24 sec)
Heartbeat CPU 0 instructions: 1660000261 cycles: 3984046085 heartbeat IPC: 0.4137 cumulative IPC: 0.4167 (Simulation time: 07 hr 05 min 11 sec)
Heartbeat CPU 0 instructions: 1670000263 cycles: 4007855708 heartbeat IPC: 0.42 cumulative IPC: 0.4167 (Simulation time: 07 hr 07 min 54 sec)
[ERROR_CYCLE] Error added at CPU cycle 4008840546, next at 4131311547, pending count: 1
[DRAM_CYCLE_ERROR] Cycle-based error applied! address=0x175e295af0 additional_latency=173500 cycles
Heartbeat CPU 0 instructions: 1680000266 cycles: 4032066774 heartbeat IPC: 0.413 cumulative IPC: 0.4167 (Simulation time: 07 hr 10 min 41 sec)
Heartbeat CPU 0 instructions: 1690000270 cycles: 4055948523 heartbeat IPC: 0.4187 cumulative IPC: 0.4167 (Simulation time: 07 hr 13 min 25 sec)
Heartbeat CPU 0 instructions: 1700000270 cycles: 4080116326 heartbeat IPC: 0.4138 cumulative IPC: 0.4167 (Simulation time: 07 hr 16 min 11 sec)
Heartbeat CPU 0 instructions: 1710000271 cycles: 4103880110 heartbeat IPC: 0.4208 cumulative IPC: 0.4167 (Simulation time: 07 hr 18 min 43 sec)
Heartbeat CPU 0 instructions: 1720000274 cycles: 4128009219 heartbeat IPC: 0.4144 cumulative IPC: 0.4167 (Simulation time: 07 hr 21 min 29 sec)
[ERROR_CYCLE] Error added at CPU cycle 4131311548, next at 4186065189, pending count: 1
[DRAM_CYCLE_ERROR] Cycle-based error applied! address=0x37bd7ea58 additional_latency=173500 cycles
Heartbeat CPU 0 instructions: 1730000275 cycles: 4152590687 heartbeat IPC: 0.4068 cumulative IPC: 0.4166 (Simulation time: 07 hr 24 min 11 sec)
Heartbeat CPU 0 instructions: 1740000278 cycles: 4176125161 heartbeat IPC: 0.4249 cumulative IPC: 0.4167 (Simulation time: 07 hr 26 min 46 sec)
[ERROR_CYCLE] Error added at CPU cycle 4186065190, next at 4194564255, pending count: 1
[DRAM_CYCLE_ERROR] Cycle-based error applied! address=0xf6d9501d8 additional_latency=173500 cycles
[ERROR_CYCLE] Error added at CPU cycle 4194564255, next at 4363370435, pending count: 1
[DRAM_CYCLE_ERROR] Cycle-based error applied! address=0x14b1dab010 additional_latency=173500 cycles
Heartbeat CPU 0 instructions: 1750000280 cycles: 4200051320 heartbeat IPC: 0.418 cumulative IPC: 0.4167 (Simulation time: 07 hr 29 min 31 sec)
Heartbeat CPU 0 instructions: 1760000284 cycles: 4224921452 heartbeat IPC: 0.4021 cumulative IPC: 0.4166 (Simulation time: 07 hr 32 min 21 sec)
Heartbeat CPU 0 instructions: 1770000287 cycles: 4249527866 heartbeat IPC: 0.4064 cumulative IPC: 0.4165 (Simulation time: 07 hr 35 min 06 sec)
Heartbeat CPU 0 instructions: 1780000287 cycles: 4273679613 heartbeat IPC: 0.414 cumulative IPC: 0.4165 (Simulation time: 07 hr 37 min 48 sec)
Heartbeat CPU 0 instructions: 1790000288 cycles: 4297826504 heartbeat IPC: 0.4141 cumulative IPC: 0.4165 (Simulation time: 07 hr 40 min 19 sec)
Heartbeat CPU 0 instructions: 1800000289 cycles: 4322226503 heartbeat IPC: 0.4098 cumulative IPC: 0.4165 (Simulation time: 07 hr 43 min 02 sec)
Heartbeat CPU 0 instructions: 1810000291 cycles: 4346195856 heartbeat IPC: 0.4172 cumulative IPC: 0.4165 (Simulation time: 07 hr 45 min 47 sec)
[ERROR_CYCLE] Error added at CPU cycle 4363370435, next at 4440092432, pending count: 1
[DRAM_CYCLE_ERROR] Cycle-based error applied! address=0xa90641770 additional_latency=173500 cycles
Heartbeat CPU 0 instructions: 1820000291 cycles: 4370610395 heartbeat IPC: 0.4096 cumulative IPC: 0.4164 (Simulation time: 07 hr 48 min 22 sec)
Heartbeat CPU 0 instructions: 1830000294 cycles: 4394582237 heartbeat IPC: 0.4172 cumulative IPC: 0.4164 (Simulation time: 07 hr 50 min 37 sec)
Heartbeat CPU 0 instructions: 1840000297 cycles: 4418496242 heartbeat IPC: 0.4182 cumulative IPC: 0.4164 (Simulation time: 07 hr 53 min 15 sec)
[ERROR_CYCLE] Error added at CPU cycle 4440092432, next at 4533656869, pending count: 1
[DRAM_CYCLE_ERROR] Cycle-based error applied! address=0x12eb9d67b8 additional_latency=173500 cycles
Heartbeat CPU 0 instructions: 1850000297 cycles: 4442402178 heartbeat IPC: 0.4183 cumulative IPC: 0.4164 (Simulation time: 07 hr 56 min 01 sec)
Heartbeat CPU 0 instructions: 1860000301 cycles: 4466368956 heartbeat IPC: 0.4172 cumulative IPC: 0.4164 (Simulation time: 07 hr 58 min 03 sec)
Heartbeat CPU 0 instructions: 1870000301 cycles: 4490458110 heartbeat IPC: 0.4151 cumulative IPC: 0.4164 (Simulation time: 08 hr 00 min 37 sec)
Heartbeat CPU 0 instructions: 1880000303 cycles: 4514422364 heartbeat IPC: 0.4173 cumulative IPC: 0.4164 (Simulation time: 08 hr 03 min 13 sec)
[ERROR_CYCLE] Error added at CPU cycle 4533656869, next at 4818675937, pending count: 1
[DRAM_CYCLE_ERROR] Cycle-based error applied! address=0x15a8ba180 additional_latency=173500 cycles
Heartbeat CPU 0 instructions: 1890000306 cycles: 4538211799 heartbeat IPC: 0.4204 cumulative IPC: 0.4165 (Simulation time: 08 hr 05 min 43 sec)
Heartbeat CPU 0 instructions: 1900000308 cycles: 4561925754 heartbeat IPC: 0.4217 cumulative IPC: 0.4165 (Simulation time: 08 hr 08 min 10 sec)
Heartbeat CPU 0 instructions: 1910000309 cycles: 4585461164 heartbeat IPC: 0.4249 cumulative IPC: 0.4165 (Simulation time: 08 hr 10 min 53 sec)
Heartbeat CPU 0 instructions: 1920000312 cycles: 4609789102 heartbeat IPC: 0.4111 cumulative IPC: 0.4165 (Simulation time: 08 hr 13 min 40 sec)
Heartbeat CPU 0 instructions: 1930000314 cycles: 4634249266 heartbeat IPC: 0.4088 cumulative IPC: 0.4165 (Simulation time: 08 hr 15 min 59 sec)
Heartbeat CPU 0 instructions: 1940000318 cycles: 4658000825 heartbeat IPC: 0.421 cumulative IPC: 0.4165 (Simulation time: 08 hr 18 min 41 sec)
Heartbeat CPU 0 instructions: 1950000321 cycles: 4681965074 heartbeat IPC: 0.4173 cumulative IPC: 0.4165 (Simulation time: 08 hr 21 min 22 sec)
Heartbeat CPU 0 instructions: 1960000324 cycles: 4705757668 heartbeat IPC: 0.4203 cumulative IPC: 0.4165 (Simulation time: 08 hr 23 min 37 sec)
Heartbeat CPU 0 instructions: 1970000327 cycles: 4729493302 heartbeat IPC: 0.4213 cumulative IPC: 0.4165 (Simulation time: 08 hr 26 min 19 sec)
Heartbeat CPU 0 instructions: 1980000327 cycles: 4753268306 heartbeat IPC: 0.4206 cumulative IPC: 0.4166 (Simulation time: 08 hr 29 min 02 sec)
Heartbeat CPU 0 instructions: 1990000329 cycles: 4776809051 heartbeat IPC: 0.4248 cumulative IPC: 0.4166 (Simulation time: 08 hr 31 min 37 sec)

=== ERROR PAGE STATISTICS ===
Mode: CYCLE
Error Cycle Interval: 80000000 CPU cycles
Total Error Accesses: 58
==============================
Simulation finished CPU 0 instructions: 1999999986 cycles: 4800470480 cumulative IPC: 0.4166 (Simulation time: 08 hr 33 min 59 sec)
Simulation complete CPU 0 instructions: 1999999986 cycles: 4800470480 cumulative IPC: 0.4166 (Simulation time: 08 hr 33 min 59 sec)

ChampSim completed all CPUs

=== Simulation ===
CPU 0 runs test_traces/620.omnetpp_s-141B.champsimtrace.xz

Region of Interest Statistics

CPU 0 cumulative IPC: 0.4166 instructions: 1999999986 cycles: 4800470480
CPU 0 Branch Prediction Accuracy: 92.96% MPKI: 14.8 Average ROB Occupancy at Mispredict: 41.91
Branch type MPKI
BRANCH_DIRECT_JUMP: 0.8484
BRANCH_INDIRECT: 0.3555
BRANCH_CONDITIONAL: 12.32
BRANCH_DIRECT_CALL: 0.0001295
BRANCH_INDIRECT_CALL: 0.8457
BRANCH_RETURN: 0.4309

cpu0->cpu0_STLB TOTAL        ACCESS:   44698868 HIT:   35105309 MISS:    9593559 MSHR_MERGE:          0
cpu0->cpu0_STLB LOAD         ACCESS:   44698868 HIT:   35105309 MISS:    9593559 MSHR_MERGE:          0
cpu0->cpu0_STLB RFO          ACCESS:          0 HIT:          0 MISS:          0 MSHR_MERGE:          0
cpu0->cpu0_STLB PREFETCH     ACCESS:          0 HIT:          0 MISS:          0 MSHR_MERGE:          0
cpu0->cpu0_STLB WRITE        ACCESS:          0 HIT:          0 MISS:          0 MSHR_MERGE:          0
cpu0->cpu0_STLB TRANSLATION  ACCESS:          0 HIT:          0 MISS:          0 MSHR_MERGE:          0
cpu0->cpu0_STLB PREFETCH REQUESTED:          0 ISSUED:          0 USEFUL:          0 USELESS:          0
cpu0->cpu0_STLB AVERAGE MISS LATENCY: 218.8 cycles
cpu0->cpu0_L2C TOTAL        ACCESS:   56650548 HIT:   29472733 MISS:   27177815 MSHR_MERGE:          0
cpu0->cpu0_L2C LOAD         ACCESS:   33708879 HIT:   10155950 MISS:   23552929 MSHR_MERGE:          0
cpu0->cpu0_L2C RFO          ACCESS:    4838670 HIT:    1236722 MISS:    3601948 MSHR_MERGE:          0
cpu0->cpu0_L2C PREFETCH     ACCESS:          0 HIT:          0 MISS:          0 MSHR_MERGE:          0
cpu0->cpu0_L2C WRITE        ACCESS:   18102999 HIT:   18080061 MISS:      22938 MSHR_MERGE:          0
cpu0->cpu0_L2C TRANSLATION  ACCESS:          0 HIT:          0 MISS:          0 MSHR_MERGE:          0
cpu0->cpu0_L2C PREFETCH REQUESTED:          0 ISSUED:          0 USEFUL:          0 USELESS:          0
cpu0->cpu0_L2C AVERAGE MISS LATENCY: 91.92 cycles
cpu0->cpu0_L1I TOTAL        ACCESS:  269088550 HIT:  267372696 MISS:    1715854 MSHR_MERGE:     426896
cpu0->cpu0_L1I LOAD         ACCESS:  269088550 HIT:  267372696 MISS:    1715854 MSHR_MERGE:     426896
cpu0->cpu0_L1I RFO          ACCESS:          0 HIT:          0 MISS:          0 MSHR_MERGE:          0
cpu0->cpu0_L1I PREFETCH     ACCESS:          0 HIT:          0 MISS:          0 MSHR_MERGE:          0
cpu0->cpu0_L1I WRITE        ACCESS:          0 HIT:          0 MISS:          0 MSHR_MERGE:          0
cpu0->cpu0_L1I TRANSLATION  ACCESS:          0 HIT:          0 MISS:          0 MSHR_MERGE:          0
cpu0->cpu0_L1I PREFETCH REQUESTED:          0 ISSUED:          0 USEFUL:          0 USELESS:          0
cpu0->cpu0_L1I AVERAGE MISS LATENCY: 12.29 cycles
cpu0->cpu0_L1D TOTAL        ACCESS:  807229042 HIT:  750526283 MISS:   56702759 MSHR_MERGE:   19444075
cpu0->cpu0_L1D LOAD         ACCESS:  439370431 HIT:  396763635 MISS:   42606796 MSHR_MERGE:   10186807
cpu0->cpu0_L1D RFO          ACCESS:          0 HIT:          0 MISS:          0 MSHR_MERGE:          0
cpu0->cpu0_L1D PREFETCH     ACCESS:          0 HIT:          0 MISS:          0 MSHR_MERGE:          0
cpu0->cpu0_L1D WRITE        ACCESS:  367858611 HIT:  353762648 MISS:   14095963 MSHR_MERGE:    9257268
cpu0->cpu0_L1D TRANSLATION  ACCESS:          0 HIT:          0 MISS:          0 MSHR_MERGE:          0
cpu0->cpu0_L1D PREFETCH REQUESTED:          0 ISSUED:          0 USEFUL:          0 USELESS:          0
cpu0->cpu0_L1D AVERAGE MISS LATENCY: 75.69 cycles
cpu0->cpu0_ITLB TOTAL        ACCESS:  237502793 HIT:  231445123 MISS:    6057670 MSHR_MERGE:    2945649
cpu0->cpu0_ITLB LOAD         ACCESS:  237502793 HIT:  231445123 MISS:    6057670 MSHR_MERGE:    2945649
cpu0->cpu0_ITLB RFO          ACCESS:          0 HIT:          0 MISS:          0 MSHR_MERGE:          0
cpu0->cpu0_ITLB PREFETCH     ACCESS:          0 HIT:          0 MISS:          0 MSHR_MERGE:          0
cpu0->cpu0_ITLB WRITE        ACCESS:          0 HIT:          0 MISS:          0 MSHR_MERGE:          0
cpu0->cpu0_ITLB TRANSLATION  ACCESS:          0 HIT:          0 MISS:          0 MSHR_MERGE:          0
cpu0->cpu0_ITLB PREFETCH REQUESTED:          0 ISSUED:          0 USEFUL:          0 USELESS:          0
cpu0->cpu0_ITLB AVERAGE MISS LATENCY: 7.327 cycles
cpu0->cpu0_DTLB TOTAL        ACCESS:  695417920 HIT:  647433143 MISS:   47984777 MSHR_MERGE:    6397930
cpu0->cpu0_DTLB LOAD         ACCESS:  695417920 HIT:  647433143 MISS:   47984777 MSHR_MERGE:    6397930
cpu0->cpu0_DTLB RFO          ACCESS:          0 HIT:          0 MISS:          0 MSHR_MERGE:          0
cpu0->cpu0_DTLB PREFETCH     ACCESS:          0 HIT:          0 MISS:          0 MSHR_MERGE:          0
cpu0->cpu0_DTLB WRITE        ACCESS:          0 HIT:          0 MISS:          0 MSHR_MERGE:          0
cpu0->cpu0_DTLB TRANSLATION  ACCESS:          0 HIT:          0 MISS:          0 MSHR_MERGE:          0
cpu0->cpu0_DTLB PREFETCH REQUESTED:          0 ISSUED:          0 USEFUL:          0 USELESS:          0
cpu0->cpu0_DTLB AVERAGE MISS LATENCY: 55.54 cycles
cpu0->LLC TOTAL        ACCESS:   40312277 HIT:   19751599 MISS:   20560678 MSHR_MERGE:          0
cpu0->LLC LOAD         ACCESS:   23552909 HIT:    5197784 MISS:   18355125 MSHR_MERGE:          0
cpu0->LLC RFO          ACCESS:    3601948 HIT:    1443322 MISS:    2158626 MSHR_MERGE:          0
cpu0->LLC PREFETCH     ACCESS:          0 HIT:          0 MISS:          0 MSHR_MERGE:          0
cpu0->LLC WRITE        ACCESS:   13157420 HIT:   13110493 MISS:      46927 MSHR_MERGE:          0
cpu0->LLC TRANSLATION  ACCESS:          0 HIT:          0 MISS:          0 MSHR_MERGE:          0
cpu0->LLC PREFETCH REQUESTED:          0 ISSUED:          0 USEFUL:          0 USELESS:          0
cpu0->LLC AVERAGE MISS LATENCY: 100.7 cycles

DRAM Statistics

Channel 0 RQ ROW_BUFFER_HIT:     449684
  ROW_BUFFER_MISS:   21160366
  AVG DBUS CONGESTED CYCLE: 13.47
Channel 0 WQ ROW_BUFFER_HIT:     974690
  ROW_BUFFER_MISS:    3758425
  FULL:          0
Channel 0 REFRESHES ISSUED:     400013

Channel 1 RQ ROW_BUFFER_HIT:     457331
  ROW_BUFFER_MISS:   21443061
  AVG DBUS CONGESTED CYCLE: 13.49
Channel 1 WQ ROW_BUFFER_HIT:     988533
  ROW_BUFFER_MISS:    3772792
  FULL:          0
Channel 1 REFRESHES ISSUED:     400013
