
*** ChampSim Multicore Out-of-Order Simulator ***
Warmup Instructions: 0
Simulation Instructions: 9223372036854775807
Number of CPUs: 1
Page size: 2097152

Off-chip DRAM Size: 64 GiB Channels: 2 Width: 32-bit Data Rate: 4807 MT/s
[ERROR_PAGE_MANAGER] Error latency: 1990500 
[ERROR_PAGE_MANAGER] Random seed: 54321 (fixed for preload reproducibility)
[ERROR_PAGE_MANAGER] Cycle-based error modeling enabled
[ERROR_PAGE_MANAGER] Errors per interval: 1
[ERROR_PAGE_MANAGER] Error cycle interval: 1000000000 cycles

=== ERROR PAGE STATISTICS ===
Mode: CYCLE
Error Cycle Interval: 1000000000 CPU cycles
Total Error Accesses: 0
==============================
Warmup finished CPU 0 instructions: 0 cycles: 1 cumulative IPC: 0 (Simulation time: 00 hr 00 min 00 sec)
Warmup complete CPU 0 instructions: 0 cycles: 1 cumulative IPC: 0 (Simulation time: 00 hr 00 min 00 sec)
Heartbeat CPU 0 instructions: 10000002 cycles: 4915487 heartbeat IPC: 2.034 cumulative IPC: 2.034 (Simulation time: 00 hr 01 min 00 sec)
Heartbeat CPU 0 instructions: 20000002 cycles: 9768516 heartbeat IPC: 2.061 cumulative IPC: 2.047 (Simulation time: 00 hr 02 min 00 sec)
Heartbeat CPU 0 instructions: 30000006 cycles: 14600380 heartbeat IPC: 2.07 cumulative IPC: 2.055 (Simulation time: 00 hr 03 min 01 sec)
Heartbeat CPU 0 instructions: 40000007 cycles: 19443735 heartbeat IPC: 2.065 cumulative IPC: 2.057 (Simulation time: 00 hr 03 min 57 sec)
Heartbeat CPU 0 instructions: 50000007 cycles: 24304584 heartbeat IPC: 2.057 cumulative IPC: 2.057 (Simulation time: 00 hr 04 min 57 sec)
Heartbeat CPU 0 instructions: 60000008 cycles: 30650840 heartbeat IPC: 1.576 cumulative IPC: 1.958 (Simulation time: 00 hr 06 min 07 sec)
Heartbeat CPU 0 instructions: 70000012 cycles: 36861626 heartbeat IPC: 1.61 cumulative IPC: 1.899 (Simulation time: 00 hr 07 min 16 sec)
Heartbeat CPU 0 instructions: 80000013 cycles: 43064948 heartbeat IPC: 1.612 cumulative IPC: 1.858 (Simulation time: 00 hr 08 min 26 sec)
Heartbeat CPU 0 instructions: 90000016 cycles: 49275633 heartbeat IPC: 1.61 cumulative IPC: 1.826 (Simulation time: 00 hr 09 min 35 sec)
Heartbeat CPU 0 instructions: 100000018 cycles: 55457962 heartbeat IPC: 1.618 cumulative IPC: 1.803 (Simulation time: 00 hr 10 min 45 sec)
Heartbeat CPU 0 instructions: 110000019 cycles: 61638682 heartbeat IPC: 1.618 cumulative IPC: 1.785 (Simulation time: 00 hr 11 min 54 sec)
Heartbeat CPU 0 instructions: 120000020 cycles: 67804300 heartbeat IPC: 1.622 cumulative IPC: 1.77 (Simulation time: 00 hr 13 min 03 sec)
Heartbeat CPU 0 instructions: 130000020 cycles: 73982099 heartbeat IPC: 1.619 cumulative IPC: 1.757 (Simulation time: 00 hr 14 min 12 sec)
Heartbeat CPU 0 instructions: 140000022 cycles: 80175269 heartbeat IPC: 1.615 cumulative IPC: 1.746 (Simulation time: 00 hr 15 min 21 sec)
Heartbeat CPU 0 instructions: 150000024 cycles: 86427424 heartbeat IPC: 1.599 cumulative IPC: 1.736 (Simulation time: 00 hr 16 min 31 sec)
Heartbeat CPU 0 instructions: 160000024 cycles: 92627448 heartbeat IPC: 1.613 cumulative IPC: 1.727 (Simulation time: 00 hr 17 min 40 sec)
Heartbeat CPU 0 instructions: 170000025 cycles: 98830775 heartbeat IPC: 1.612 cumulative IPC: 1.72 (Simulation time: 00 hr 18 min 50 sec)
Heartbeat CPU 0 instructions: 180000026 cycles: 105043320 heartbeat IPC: 1.61 cumulative IPC: 1.714 (Simulation time: 00 hr 19 min 59 sec)
Heartbeat CPU 0 instructions: 190000027 cycles: 111258432 heartbeat IPC: 1.609 cumulative IPC: 1.708 (Simulation time: 00 hr 21 min 08 sec)
Heartbeat CPU 0 instructions: 200000029 cycles: 117464736 heartbeat IPC: 1.611 cumulative IPC: 1.703 (Simulation time: 00 hr 22 min 18 sec)
Heartbeat CPU 0 instructions: 210000030 cycles: 123657473 heartbeat IPC: 1.615 cumulative IPC: 1.698 (Simulation time: 00 hr 23 min 27 sec)
Heartbeat CPU 0 instructions: 220000030 cycles: 129858217 heartbeat IPC: 1.613 cumulative IPC: 1.694 (Simulation time: 00 hr 24 min 36 sec)
Heartbeat CPU 0 instructions: 230000034 cycles: 136081555 heartbeat IPC: 1.607 cumulative IPC: 1.69 (Simulation time: 00 hr 25 min 46 sec)
Heartbeat CPU 0 instructions: 240000034 cycles: 142443341 heartbeat IPC: 1.572 cumulative IPC: 1.685 (Simulation time: 00 hr 26 min 55 sec)
Heartbeat CPU 0 instructions: 250000034 cycles: 148706412 heartbeat IPC: 1.597 cumulative IPC: 1.681 (Simulation time: 00 hr 27 min 47 sec)
Heartbeat CPU 0 instructions: 260000038 cycles: 154947604 heartbeat IPC: 1.602 cumulative IPC: 1.678 (Simulation time: 00 hr 28 min 50 sec)
Heartbeat CPU 0 instructions: 270000041 cycles: 161183179 heartbeat IPC: 1.604 cumulative IPC: 1.675 (Simulation time: 00 hr 30 min 00 sec)
Heartbeat CPU 0 instructions: 280000042 cycles: 167437482 heartbeat IPC: 1.599 cumulative IPC: 1.672 (Simulation time: 00 hr 31 min 12 sec)
Heartbeat CPU 0 instructions: 290000042 cycles: 173700885 heartbeat IPC: 1.597 cumulative IPC: 1.67 (Simulation time: 00 hr 32 min 24 sec)
Heartbeat CPU 0 instructions: 300000044 cycles: 179946415 heartbeat IPC: 1.601 cumulative IPC: 1.667 (Simulation time: 00 hr 33 min 36 sec)
Heartbeat CPU 0 instructions: 310000045 cycles: 186178824 heartbeat IPC: 1.605 cumulative IPC: 1.665 (Simulation time: 00 hr 34 min 45 sec)
Heartbeat CPU 0 instructions: 320000048 cycles: 192417286 heartbeat IPC: 1.603 cumulative IPC: 1.663 (Simulation time: 00 hr 35 min 55 sec)
Heartbeat CPU 0 instructions: 330000049 cycles: 198669755 heartbeat IPC: 1.599 cumulative IPC: 1.661 (Simulation time: 00 hr 37 min 05 sec)
Heartbeat CPU 0 instructions: 340000053 cycles: 204996639 heartbeat IPC: 1.581 cumulative IPC: 1.659 (Simulation time: 00 hr 38 min 16 sec)
Heartbeat CPU 0 instructions: 350000054 cycles: 211242396 heartbeat IPC: 1.601 cumulative IPC: 1.657 (Simulation time: 00 hr 39 min 26 sec)
Heartbeat CPU 0 instructions: 360000056 cycles: 217499779 heartbeat IPC: 1.598 cumulative IPC: 1.655 (Simulation time: 00 hr 40 min 36 sec)
Heartbeat CPU 0 instructions: 370000057 cycles: 223766987 heartbeat IPC: 1.596 cumulative IPC: 1.654 (Simulation time: 00 hr 41 min 46 sec)
Heartbeat CPU 0 instructions: 380000061 cycles: 230073101 heartbeat IPC: 1.586 cumulative IPC: 1.652 (Simulation time: 00 hr 42 min 57 sec)
Heartbeat CPU 0 instructions: 390000062 cycles: 236342871 heartbeat IPC: 1.595 cumulative IPC: 1.65 (Simulation time: 00 hr 44 min 08 sec)
Heartbeat CPU 0 instructions: 400000062 cycles: 242574172 heartbeat IPC: 1.605 cumulative IPC: 1.649 (Simulation time: 00 hr 45 min 18 sec)
Heartbeat CPU 0 instructions: 410000062 cycles: 248776509 heartbeat IPC: 1.612 cumulative IPC: 1.648 (Simulation time: 00 hr 46 min 28 sec)
Heartbeat CPU 0 instructions: 420000065 cycles: 254988712 heartbeat IPC: 1.61 cumulative IPC: 1.647 (Simulation time: 00 hr 47 min 23 sec)
Heartbeat CPU 0 instructions: 430000069 cycles: 261324021 heartbeat IPC: 1.578 cumulative IPC: 1.645 (Simulation time: 00 hr 48 min 20 sec)
Heartbeat CPU 0 instructions: 440000069 cycles: 267609434 heartbeat IPC: 1.591 cumulative IPC: 1.644 (Simulation time: 00 hr 49 min 20 sec)
Heartbeat CPU 0 instructions: 450000070 cycles: 273900152 heartbeat IPC: 1.59 cumulative IPC: 1.643 (Simulation time: 00 hr 50 min 27 sec)
Heartbeat CPU 0 instructions: 460000072 cycles: 280167183 heartbeat IPC: 1.596 cumulative IPC: 1.642 (Simulation time: 00 hr 51 min 35 sec)
Heartbeat CPU 0 instructions: 470000073 cycles: 286431352 heartbeat IPC: 1.596 cumulative IPC: 1.641 (Simulation time: 00 hr 52 min 44 sec)
Heartbeat CPU 0 instructions: 480000074 cycles: 292689909 heartbeat IPC: 1.598 cumulative IPC: 1.64 (Simulation time: 00 hr 53 min 52 sec)
Heartbeat CPU 0 instructions: 490000074 cycles: 298926797 heartbeat IPC: 1.603 cumulative IPC: 1.639 (Simulation time: 00 hr 54 min 48 sec)
Heartbeat CPU 0 instructions: 500000077 cycles: 305144748 heartbeat IPC: 1.608 cumulative IPC: 1.639 (Simulation time: 00 hr 55 min 58 sec)
Heartbeat CPU 0 instructions: 510000078 cycles: 311323100 heartbeat IPC: 1.619 cumulative IPC: 1.638 (Simulation time: 00 hr 57 min 08 sec)
Heartbeat CPU 0 instructions: 520000078 cycles: 317581811 heartbeat IPC: 1.598 cumulative IPC: 1.637 (Simulation time: 00 hr 58 min 19 sec)
Heartbeat CPU 0 instructions: 530000079 cycles: 323815922 heartbeat IPC: 1.604 cumulative IPC: 1.637 (Simulation time: 00 hr 59 min 22 sec)
Heartbeat CPU 0 instructions: 540000081 cycles: 330039230 heartbeat IPC: 1.607 cumulative IPC: 1.636 (Simulation time: 01 hr 00 min 22 sec)
Heartbeat CPU 0 instructions: 550000081 cycles: 336262224 heartbeat IPC: 1.607 cumulative IPC: 1.636 (Simulation time: 01 hr 01 min 28 sec)
Heartbeat CPU 0 instructions: 560000081 cycles: 342492420 heartbeat IPC: 1.605 cumulative IPC: 1.635 (Simulation time: 01 hr 02 min 37 sec)
Heartbeat CPU 0 instructions: 570000085 cycles: 348712424 heartbeat IPC: 1.608 cumulative IPC: 1.635 (Simulation time: 01 hr 03 min 45 sec)
Heartbeat CPU 0 instructions: 580000086 cycles: 355005609 heartbeat IPC: 1.589 cumulative IPC: 1.634 (Simulation time: 01 hr 04 min 54 sec)
Heartbeat CPU 0 instructions: 590000089 cycles: 361277468 heartbeat IPC: 1.594 cumulative IPC: 1.633 (Simulation time: 01 hr 06 min 03 sec)
Heartbeat CPU 0 instructions: 600000092 cycles: 367588004 heartbeat IPC: 1.585 cumulative IPC: 1.632 (Simulation time: 01 hr 07 min 12 sec)
Heartbeat CPU 0 instructions: 610000096 cycles: 373859549 heartbeat IPC: 1.595 cumulative IPC: 1.632 (Simulation time: 01 hr 08 min 20 sec)
Heartbeat CPU 0 instructions: 620000098 cycles: 380232634 heartbeat IPC: 1.569 cumulative IPC: 1.631 (Simulation time: 01 hr 09 min 31 sec)
Heartbeat CPU 0 instructions: 630000101 cycles: 386555420 heartbeat IPC: 1.582 cumulative IPC: 1.63 (Simulation time: 01 hr 10 min 33 sec)
Heartbeat CPU 0 instructions: 640000105 cycles: 392856525 heartbeat IPC: 1.587 cumulative IPC: 1.629 (Simulation time: 01 hr 11 min 43 sec)
Heartbeat CPU 0 instructions: 650000105 cycles: 399123962 heartbeat IPC: 1.596 cumulative IPC: 1.629 (Simulation time: 01 hr 12 min 45 sec)
Heartbeat CPU 0 instructions: 660000105 cycles: 405372525 heartbeat IPC: 1.6 cumulative IPC: 1.628 (Simulation time: 01 hr 13 min 45 sec)
Heartbeat CPU 0 instructions: 670000107 cycles: 411645662 heartbeat IPC: 1.594 cumulative IPC: 1.628 (Simulation time: 01 hr 14 min 50 sec)
Heartbeat CPU 0 instructions: 680000110 cycles: 417937586 heartbeat IPC: 1.589 cumulative IPC: 1.627 (Simulation time: 01 hr 15 min 56 sec)
Heartbeat CPU 0 instructions: 690000111 cycles: 424194208 heartbeat IPC: 1.598 cumulative IPC: 1.627 (Simulation time: 01 hr 16 min 50 sec)
Heartbeat CPU 0 instructions: 700000113 cycles: 430428922 heartbeat IPC: 1.604 cumulative IPC: 1.626 (Simulation time: 01 hr 17 min 46 sec)
Heartbeat CPU 0 instructions: 710000114 cycles: 436725823 heartbeat IPC: 1.588 cumulative IPC: 1.626 (Simulation time: 01 hr 18 min 52 sec)
Heartbeat CPU 0 instructions: 720000116 cycles: 442981927 heartbeat IPC: 1.598 cumulative IPC: 1.625 (Simulation time: 01 hr 19 min 56 sec)
Heartbeat CPU 0 instructions: 730000120 cycles: 449233326 heartbeat IPC: 1.6 cumulative IPC: 1.625 (Simulation time: 01 hr 21 min 06 sec)
Heartbeat CPU 0 instructions: 740000120 cycles: 455483964 heartbeat IPC: 1.6 cumulative IPC: 1.625 (Simulation time: 01 hr 22 min 16 sec)
Heartbeat CPU 0 instructions: 750000120 cycles: 461720746 heartbeat IPC: 1.603 cumulative IPC: 1.624 (Simulation time: 01 hr 23 min 26 sec)
Heartbeat CPU 0 instructions: 760000122 cycles: 467938806 heartbeat IPC: 1.608 cumulative IPC: 1.624 (Simulation time: 01 hr 24 min 14 sec)
Heartbeat CPU 0 instructions: 770000124 cycles: 474174532 heartbeat IPC: 1.604 cumulative IPC: 1.624 (Simulation time: 01 hr 25 min 00 sec)
Heartbeat CPU 0 instructions: 780000124 cycles: 480400725 heartbeat IPC: 1.606 cumulative IPC: 1.624 (Simulation time: 01 hr 25 min 45 sec)
Heartbeat CPU 0 instructions: 790000125 cycles: 486628802 heartbeat IPC: 1.606 cumulative IPC: 1.623 (Simulation time: 01 hr 26 min 47 sec)
Heartbeat CPU 0 instructions: 800000127 cycles: 492910199 heartbeat IPC: 1.592 cumulative IPC: 1.623 (Simulation time: 01 hr 27 min 45 sec)
Heartbeat CPU 0 instructions: 810000128 cycles: 499141666 heartbeat IPC: 1.605 cumulative IPC: 1.623 (Simulation time: 01 hr 28 min 42 sec)
Heartbeat CPU 0 instructions: 820000131 cycles: 505435004 heartbeat IPC: 1.589 cumulative IPC: 1.622 (Simulation time: 01 hr 29 min 44 sec)
Heartbeat CPU 0 instructions: 830000135 cycles: 511720959 heartbeat IPC: 1.591 cumulative IPC: 1.622 (Simulation time: 01 hr 30 min 54 sec)
Heartbeat CPU 0 instructions: 840000135 cycles: 517971478 heartbeat IPC: 1.6 cumulative IPC: 1.622 (Simulation time: 01 hr 32 min 00 sec)
Heartbeat CPU 0 instructions: 850000139 cycles: 524224355 heartbeat IPC: 1.599 cumulative IPC: 1.621 (Simulation time: 01 hr 32 min 59 sec)
Heartbeat CPU 0 instructions: 860000143 cycles: 530487416 heartbeat IPC: 1.597 cumulative IPC: 1.621 (Simulation time: 01 hr 33 min 57 sec)
Heartbeat CPU 0 instructions: 870000143 cycles: 536798286 heartbeat IPC: 1.585 cumulative IPC: 1.621 (Simulation time: 01 hr 35 min 06 sec)
Heartbeat CPU 0 instructions: 880000145 cycles: 543059455 heartbeat IPC: 1.597 cumulative IPC: 1.62 (Simulation time: 01 hr 36 min 03 sec)
Heartbeat CPU 0 instructions: 890000148 cycles: 549275998 heartbeat IPC: 1.609 cumulative IPC: 1.62 (Simulation time: 01 hr 36 min 55 sec)
Heartbeat CPU 0 instructions: 900000148 cycles: 555521793 heartbeat IPC: 1.601 cumulative IPC: 1.62 (Simulation time: 01 hr 37 min 41 sec)
Heartbeat CPU 0 instructions: 910000148 cycles: 561728828 heartbeat IPC: 1.611 cumulative IPC: 1.62 (Simulation time: 01 hr 38 min 42 sec)
Heartbeat CPU 0 instructions: 920000149 cycles: 567954698 heartbeat IPC: 1.606 cumulative IPC: 1.62 (Simulation time: 01 hr 39 min 53 sec)
Heartbeat CPU 0 instructions: 930000153 cycles: 574154256 heartbeat IPC: 1.613 cumulative IPC: 1.62 (Simulation time: 01 hr 41 min 01 sec)
Heartbeat CPU 0 instructions: 940000154 cycles: 580355920 heartbeat IPC: 1.612 cumulative IPC: 1.62 (Simulation time: 01 hr 42 min 09 sec)
Heartbeat CPU 0 instructions: 950000156 cycles: 586549807 heartbeat IPC: 1.614 cumulative IPC: 1.62 (Simulation time: 01 hr 43 min 17 sec)
Heartbeat CPU 0 instructions: 960000156 cycles: 592740962 heartbeat IPC: 1.615 cumulative IPC: 1.62 (Simulation time: 01 hr 44 min 25 sec)
Heartbeat CPU 0 instructions: 970000157 cycles: 598982965 heartbeat IPC: 1.602 cumulative IPC: 1.619 (Simulation time: 01 hr 45 min 34 sec)
Heartbeat CPU 0 instructions: 980000158 cycles: 605216629 heartbeat IPC: 1.604 cumulative IPC: 1.619 (Simulation time: 01 hr 46 min 28 sec)
Heartbeat CPU 0 instructions: 990000158 cycles: 611468011 heartbeat IPC: 1.6 cumulative IPC: 1.619 (Simulation time: 01 hr 47 min 30 sec)
Heartbeat CPU 0 instructions: 1000000159 cycles: 617657189 heartbeat IPC: 1.616 cumulative IPC: 1.619 (Simulation time: 01 hr 48 min 18 sec)
Heartbeat CPU 0 instructions: 1010000160 cycles: 623886757 heartbeat IPC: 1.605 cumulative IPC: 1.619 (Simulation time: 01 hr 49 min 14 sec)
Heartbeat CPU 0 instructions: 1020000160 cycles: 630123430 heartbeat IPC: 1.603 cumulative IPC: 1.619 (Simulation time: 01 hr 50 min 25 sec)
Heartbeat CPU 0 instructions: 1030000163 cycles: 636351771 heartbeat IPC: 1.606 cumulative IPC: 1.619 (Simulation time: 01 hr 51 min 36 sec)
Heartbeat CPU 0 instructions: 1040000166 cycles: 642574419 heartbeat IPC: 1.607 cumulative IPC: 1.618 (Simulation time: 01 hr 52 min 46 sec)
Heartbeat CPU 0 instructions: 1050000170 cycles: 648797281 heartbeat IPC: 1.607 cumulative IPC: 1.618 (Simulation time: 01 hr 53 min 56 sec)
Heartbeat CPU 0 instructions: 1060000172 cycles: 655046601 heartbeat IPC: 1.6 cumulative IPC: 1.618 (Simulation time: 01 hr 55 min 06 sec)
Heartbeat CPU 0 instructions: 1070000172 cycles: 661300810 heartbeat IPC: 1.599 cumulative IPC: 1.618 (Simulation time: 01 hr 56 min 17 sec)
Heartbeat CPU 0 instructions: 1080000172 cycles: 667576966 heartbeat IPC: 1.593 cumulative IPC: 1.618 (Simulation time: 01 hr 57 min 27 sec)
Heartbeat CPU 0 instructions: 1090000173 cycles: 673780639 heartbeat IPC: 1.612 cumulative IPC: 1.618 (Simulation time: 01 hr 58 min 37 sec)
Heartbeat CPU 0 instructions: 1100000174 cycles: 680001032 heartbeat IPC: 1.608 cumulative IPC: 1.618 (Simulation time: 01 hr 59 min 48 sec)
Heartbeat CPU 0 instructions: 1110000176 cycles: 686243722 heartbeat IPC: 1.602 cumulative IPC: 1.618 (Simulation time: 02 hr 00 min 45 sec)
Heartbeat CPU 0 instructions: 1120000177 cycles: 692478953 heartbeat IPC: 1.604 cumulative IPC: 1.617 (Simulation time: 02 hr 01 min 55 sec)
Heartbeat CPU 0 instructions: 1130000179 cycles: 698697292 heartbeat IPC: 1.608 cumulative IPC: 1.617 (Simulation time: 02 hr 03 min 06 sec)
Heartbeat CPU 0 instructions: 1140000179 cycles: 704900134 heartbeat IPC: 1.612 cumulative IPC: 1.617 (Simulation time: 02 hr 04 min 16 sec)
Heartbeat CPU 0 instructions: 1150000180 cycles: 711095584 heartbeat IPC: 1.614 cumulative IPC: 1.617 (Simulation time: 02 hr 05 min 26 sec)
[ERROR_CYCLE] Error added at CPU cycle 712780568, next at 915330628, pending count: 1
[DRAM_CYCLE_ERROR] Cycle-based error applied! address=0xe03d67f00 additional_latency=1990500 cycles
Heartbeat CPU 0 instructions: 1160000181 cycles: 717303200 heartbeat IPC: 1.611 cumulative IPC: 1.617 (Simulation time: 02 hr 06 min 35 sec)
Heartbeat CPU 0 instructions: 1170000183 cycles: 723539571 heartbeat IPC: 1.603 cumulative IPC: 1.617 (Simulation time: 02 hr 07 min 36 sec)
Heartbeat CPU 0 instructions: 1180000184 cycles: 729812427 heartbeat IPC: 1.594 cumulative IPC: 1.617 (Simulation time: 02 hr 08 min 28 sec)
Heartbeat CPU 0 instructions: 1190000184 cycles: 736010485 heartbeat IPC: 1.613 cumulative IPC: 1.617 (Simulation time: 02 hr 09 min 31 sec)
Heartbeat CPU 0 instructions: 1200000185 cycles: 742207516 heartbeat IPC: 1.614 cumulative IPC: 1.617 (Simulation time: 02 hr 10 min 39 sec)
Heartbeat CPU 0 instructions: 1210000185 cycles: 748476375 heartbeat IPC: 1.595 cumulative IPC: 1.617 (Simulation time: 02 hr 11 min 47 sec)
Heartbeat CPU 0 instructions: 1220000187 cycles: 754723712 heartbeat IPC: 1.601 cumulative IPC: 1.616 (Simulation time: 02 hr 12 min 43 sec)
Heartbeat CPU 0 instructions: 1230000188 cycles: 760946287 heartbeat IPC: 1.607 cumulative IPC: 1.616 (Simulation time: 02 hr 13 min 44 sec)
Heartbeat CPU 0 instructions: 1240000190 cycles: 767146194 heartbeat IPC: 1.613 cumulative IPC: 1.616 (Simulation time: 02 hr 14 min 47 sec)
Heartbeat CPU 0 instructions: 1250000193 cycles: 773350002 heartbeat IPC: 1.612 cumulative IPC: 1.616 (Simulation time: 02 hr 15 min 33 sec)
Heartbeat CPU 0 instructions: 1260000194 cycles: 779601282 heartbeat IPC: 1.6 cumulative IPC: 1.616 (Simulation time: 02 hr 16 min 24 sec)
Heartbeat CPU 0 instructions: 1270000195 cycles: 785907644 heartbeat IPC: 1.586 cumulative IPC: 1.616 (Simulation time: 02 hr 17 min 34 sec)
Heartbeat CPU 0 instructions: 1280000195 cycles: 792154064 heartbeat IPC: 1.601 cumulative IPC: 1.616 (Simulation time: 02 hr 18 min 33 sec)
Heartbeat CPU 0 instructions: 1290000197 cycles: 798388117 heartbeat IPC: 1.604 cumulative IPC: 1.616 (Simulation time: 02 hr 19 min 20 sec)
Heartbeat CPU 0 instructions: 1300000200 cycles: 804653852 heartbeat IPC: 1.596 cumulative IPC: 1.616 (Simulation time: 02 hr 20 min 06 sec)
Heartbeat CPU 0 instructions: 1310000203 cycles: 810910593 heartbeat IPC: 1.598 cumulative IPC: 1.615 (Simulation time: 02 hr 20 min 58 sec)
Heartbeat CPU 0 instructions: 1320000204 cycles: 817142041 heartbeat IPC: 1.605 cumulative IPC: 1.615 (Simulation time: 02 hr 21 min 54 sec)
Heartbeat CPU 0 instructions: 1330000204 cycles: 823357871 heartbeat IPC: 1.609 cumulative IPC: 1.615 (Simulation time: 02 hr 23 min 01 sec)
Heartbeat CPU 0 instructions: 1340000207 cycles: 829577522 heartbeat IPC: 1.608 cumulative IPC: 1.615 (Simulation time: 02 hr 24 min 11 sec)
Heartbeat CPU 0 instructions: 1350000211 cycles: 835812899 heartbeat IPC: 1.604 cumulative IPC: 1.615 (Simulation time: 02 hr 25 min 21 sec)
Heartbeat CPU 0 instructions: 1360000211 cycles: 842122815 heartbeat IPC: 1.585 cumulative IPC: 1.615 (Simulation time: 02 hr 26 min 32 sec)
Heartbeat CPU 0 instructions: 1370000214 cycles: 848361817 heartbeat IPC: 1.603 cumulative IPC: 1.615 (Simulation time: 02 hr 27 min 42 sec)
Heartbeat CPU 0 instructions: 1380000216 cycles: 854610163 heartbeat IPC: 1.6 cumulative IPC: 1.615 (Simulation time: 02 hr 28 min 53 sec)
Heartbeat CPU 0 instructions: 1390000217 cycles: 860876669 heartbeat IPC: 1.596 cumulative IPC: 1.615 (Simulation time: 02 hr 30 min 03 sec)
Heartbeat CPU 0 instructions: 1400000219 cycles: 867184424 heartbeat IPC: 1.585 cumulative IPC: 1.614 (Simulation time: 02 hr 31 min 13 sec)
Heartbeat CPU 0 instructions: 1410000223 cycles: 873492304 heartbeat IPC: 1.585 cumulative IPC: 1.614 (Simulation time: 02 hr 32 min 24 sec)
Heartbeat CPU 0 instructions: 1420000225 cycles: 879758336 heartbeat IPC: 1.596 cumulative IPC: 1.614 (Simulation time: 02 hr 33 min 34 sec)
Heartbeat CPU 0 instructions: 1430000228 cycles: 885999697 heartbeat IPC: 1.602 cumulative IPC: 1.614 (Simulation time: 02 hr 34 min 44 sec)
Heartbeat CPU 0 instructions: 1440000232 cycles: 892242920 heartbeat IPC: 1.602 cumulative IPC: 1.614 (Simulation time: 02 hr 35 min 54 sec)
Heartbeat CPU 0 instructions: 1450000235 cycles: 898515529 heartbeat IPC: 1.594 cumulative IPC: 1.614 (Simulation time: 02 hr 37 min 04 sec)
Heartbeat CPU 0 instructions: 1460000236 cycles: 904826102 heartbeat IPC: 1.585 cumulative IPC: 1.614 (Simulation time: 02 hr 38 min 14 sec)
Heartbeat CPU 0 instructions: 1470000237 cycles: 911032086 heartbeat IPC: 1.611 cumulative IPC: 1.614 (Simulation time: 02 hr 39 min 23 sec)
[ERROR_CYCLE] Error added at CPU cycle 915330628, next at 2569606398, pending count: 1
[DRAM_CYCLE_ERROR] Cycle-based error applied! address=0xa00a76a40 additional_latency=1990500 cycles
Heartbeat CPU 0 instructions: 1480000237 cycles: 917223121 heartbeat IPC: 1.615 cumulative IPC: 1.614 (Simulation time: 02 hr 40 min 32 sec)
Heartbeat CPU 0 instructions: 1490000240 cycles: 923394353 heartbeat IPC: 1.62 cumulative IPC: 1.614 (Simulation time: 02 hr 41 min 42 sec)
Heartbeat CPU 0 instructions: 1500000240 cycles: 929596640 heartbeat IPC: 1.612 cumulative IPC: 1.614 (Simulation time: 02 hr 42 min 51 sec)
Heartbeat CPU 0 instructions: 1510000242 cycles: 935779343 heartbeat IPC: 1.617 cumulative IPC: 1.614 (Simulation time: 02 hr 44 min 01 sec)
Heartbeat CPU 0 instructions: 1520000243 cycles: 941931685 heartbeat IPC: 1.625 cumulative IPC: 1.614 (Simulation time: 02 hr 45 min 10 sec)
Heartbeat CPU 0 instructions: 1530000243 cycles: 948075636 heartbeat IPC: 1.628 cumulative IPC: 1.614 (Simulation time: 02 hr 46 min 19 sec)
Heartbeat CPU 0 instructions: 1540000245 cycles: 954229932 heartbeat IPC: 1.625 cumulative IPC: 1.614 (Simulation time: 02 hr 47 min 29 sec)
Heartbeat CPU 0 instructions: 1550000247 cycles: 960477079 heartbeat IPC: 1.601 cumulative IPC: 1.614 (Simulation time: 02 hr 48 min 39 sec)
Heartbeat CPU 0 instructions: 1560000248 cycles: 966646595 heartbeat IPC: 1.621 cumulative IPC: 1.614 (Simulation time: 02 hr 49 min 48 sec)
Heartbeat CPU 0 instructions: 1570000249 cycles: 972818341 heartbeat IPC: 1.62 cumulative IPC: 1.614 (Simulation time: 02 hr 50 min 58 sec)
Heartbeat CPU 0 instructions: 1580000253 cycles: 978983391 heartbeat IPC: 1.622 cumulative IPC: 1.614 (Simulation time: 02 hr 52 min 07 sec)
Heartbeat CPU 0 instructions: 1590000253 cycles: 985133914 heartbeat IPC: 1.626 cumulative IPC: 1.614 (Simulation time: 02 hr 53 min 04 sec)
Heartbeat CPU 0 instructions: 1600000253 cycles: 991344983 heartbeat IPC: 1.61 cumulative IPC: 1.614 (Simulation time: 02 hr 54 min 03 sec)
Heartbeat CPU 0 instructions: 1610000257 cycles: 997563760 heartbeat IPC: 1.608 cumulative IPC: 1.614 (Simulation time: 02 hr 54 min 57 sec)
Heartbeat CPU 0 instructions: 1620000257 cycles: 1003776993 heartbeat IPC: 1.609 cumulative IPC: 1.614 (Simulation time: 02 hr 55 min 54 sec)
Heartbeat CPU 0 instructions: 1630000258 cycles: 1009990720 heartbeat IPC: 1.609 cumulative IPC: 1.614 (Simulation time: 02 hr 56 min 59 sec)
Heartbeat CPU 0 instructions: 1640000260 cycles: 1016284411 heartbeat IPC: 1.589 cumulative IPC: 1.614 (Simulation time: 02 hr 58 min 08 sec)
Heartbeat CPU 0 instructions: 1650000261 cycles: 1022567073 heartbeat IPC: 1.592 cumulative IPC: 1.614 (Simulation time: 02 hr 59 min 18 sec)
Heartbeat CPU 0 instructions: 1660000261 cycles: 1028816830 heartbeat IPC: 1.6 cumulative IPC: 1.614 (Simulation time: 03 hr 00 min 12 sec)
Heartbeat CPU 0 instructions: 1670000264 cycles: 1035069846 heartbeat IPC: 1.599 cumulative IPC: 1.613 (Simulation time: 03 hr 01 min 00 sec)
Heartbeat CPU 0 instructions: 1680000264 cycles: 1041308238 heartbeat IPC: 1.603 cumulative IPC: 1.613 (Simulation time: 03 hr 01 min 53 sec)
Heartbeat CPU 0 instructions: 1690000268 cycles: 1047564544 heartbeat IPC: 1.598 cumulative IPC: 1.613 (Simulation time: 03 hr 02 min 45 sec)
Heartbeat CPU 0 instructions: 1700000270 cycles: 1053824430 heartbeat IPC: 1.597 cumulative IPC: 1.613 (Simulation time: 03 hr 03 min 42 sec)
Heartbeat CPU 0 instructions: 1710000273 cycles: 1060060992 heartbeat IPC: 1.603 cumulative IPC: 1.613 (Simulation time: 03 hr 04 min 43 sec)
Heartbeat CPU 0 instructions: 1720000274 cycles: 1066277317 heartbeat IPC: 1.609 cumulative IPC: 1.613 (Simulation time: 03 hr 05 min 46 sec)
Heartbeat CPU 0 instructions: 1730000278 cycles: 1072485301 heartbeat IPC: 1.611 cumulative IPC: 1.613 (Simulation time: 03 hr 06 min 52 sec)
Heartbeat CPU 0 instructions: 1740000281 cycles: 1078788493 heartbeat IPC: 1.586 cumulative IPC: 1.613 (Simulation time: 03 hr 07 min 57 sec)
Heartbeat CPU 0 instructions: 1750000281 cycles: 1085039335 heartbeat IPC: 1.6 cumulative IPC: 1.613 (Simulation time: 03 hr 08 min 46 sec)
Heartbeat CPU 0 instructions: 1760000281 cycles: 1091248322 heartbeat IPC: 1.611 cumulative IPC: 1.613 (Simulation time: 03 hr 09 min 41 sec)
Heartbeat CPU 0 instructions: 1770000281 cycles: 1097439440 heartbeat IPC: 1.615 cumulative IPC: 1.613 (Simulation time: 03 hr 10 min 49 sec)
Heartbeat CPU 0 instructions: 1780000285 cycles: 1103619509 heartbeat IPC: 1.618 cumulative IPC: 1.613 (Simulation time: 03 hr 12 min 00 sec)
Heartbeat CPU 0 instructions: 1790000287 cycles: 1109805496 heartbeat IPC: 1.617 cumulative IPC: 1.613 (Simulation time: 03 hr 13 min 03 sec)
Heartbeat CPU 0 instructions: 1800000289 cycles: 1116054739 heartbeat IPC: 1.6 cumulative IPC: 1.613 (Simulation time: 03 hr 13 min 57 sec)
Heartbeat CPU 0 instructions: 1810000290 cycles: 1122292603 heartbeat IPC: 1.603 cumulative IPC: 1.613 (Simulation time: 03 hr 14 min 56 sec)
Heartbeat CPU 0 instructions: 1820000291 cycles: 1128466578 heartbeat IPC: 1.62 cumulative IPC: 1.613 (Simulation time: 03 hr 16 min 00 sec)
Heartbeat CPU 0 instructions: 1830000291 cycles: 1134706747 heartbeat IPC: 1.603 cumulative IPC: 1.613 (Simulation time: 03 hr 16 min 55 sec)
Heartbeat CPU 0 instructions: 1840000291 cycles: 1140950370 heartbeat IPC: 1.602 cumulative IPC: 1.613 (Simulation time: 03 hr 17 min 45 sec)
Heartbeat CPU 0 instructions: 1850000291 cycles: 1147180315 heartbeat IPC: 1.605 cumulative IPC: 1.613 (Simulation time: 03 hr 18 min 40 sec)
Heartbeat CPU 0 instructions: 1860000293 cycles: 1153411256 heartbeat IPC: 1.605 cumulative IPC: 1.613 (Simulation time: 03 hr 19 min 45 sec)
Heartbeat CPU 0 instructions: 1870000294 cycles: 1159628483 heartbeat IPC: 1.608 cumulative IPC: 1.613 (Simulation time: 03 hr 20 min 54 sec)
Heartbeat CPU 0 instructions: 1880000294 cycles: 1165839440 heartbeat IPC: 1.61 cumulative IPC: 1.613 (Simulation time: 03 hr 22 min 03 sec)
Heartbeat CPU 0 instructions: 1890000294 cycles: 1172119430 heartbeat IPC: 1.592 cumulative IPC: 1.612 (Simulation time: 03 hr 23 min 11 sec)
Heartbeat CPU 0 instructions: 1900000296 cycles: 1178380838 heartbeat IPC: 1.597 cumulative IPC: 1.612 (Simulation time: 03 hr 24 min 18 sec)
Heartbeat CPU 0 instructions: 1910000300 cycles: 1184616630 heartbeat IPC: 1.604 cumulative IPC: 1.612 (Simulation time: 03 hr 25 min 26 sec)
Heartbeat CPU 0 instructions: 1920000300 cycles: 1190890475 heartbeat IPC: 1.594 cumulative IPC: 1.612 (Simulation time: 03 hr 26 min 34 sec)
Heartbeat CPU 0 instructions: 1930000302 cycles: 1197072743 heartbeat IPC: 1.618 cumulative IPC: 1.612 (Simulation time: 03 hr 27 min 41 sec)
Heartbeat CPU 0 instructions: 1940000302 cycles: 1203279240 heartbeat IPC: 1.611 cumulative IPC: 1.612 (Simulation time: 03 hr 28 min 49 sec)
Heartbeat CPU 0 instructions: 1950000303 cycles: 1209480127 heartbeat IPC: 1.613 cumulative IPC: 1.612 (Simulation time: 03 hr 29 min 57 sec)
Heartbeat CPU 0 instructions: 1960000304 cycles: 1215685983 heartbeat IPC: 1.611 cumulative IPC: 1.612 (Simulation time: 03 hr 31 min 05 sec)
Heartbeat CPU 0 instructions: 1970000306 cycles: 1221855256 heartbeat IPC: 1.621 cumulative IPC: 1.612 (Simulation time: 03 hr 32 min 01 sec)
Heartbeat CPU 0 instructions: 1980000310 cycles: 1228044814 heartbeat IPC: 1.616 cumulative IPC: 1.612 (Simulation time: 03 hr 32 min 58 sec)
Heartbeat CPU 0 instructions: 1990000310 cycles: 1234273605 heartbeat IPC: 1.605 cumulative IPC: 1.612 (Simulation time: 03 hr 33 min 57 sec)

=== ERROR PAGE STATISTICS ===
Mode: CYCLE
Error Cycle Interval: 1000000000 CPU cycles
Total Error Accesses: 2
==============================
Simulation finished CPU 0 instructions: 1999999510 cycles: 1240522409 cumulative IPC: 1.612 (Simulation time: 03 hr 35 min 02 sec)
Simulation complete CPU 0 instructions: 1999999510 cycles: 1240522409 cumulative IPC: 1.612 (Simulation time: 03 hr 35 min 02 sec)

ChampSim completed all CPUs

=== Simulation ===
CPU 0 runs test_traces/607.cactuBSSN_s-2421B.champsimtrace.xz

Region of Interest Statistics

CPU 0 cumulative IPC: 1.612 instructions: 1999999510 cycles: 1240522409
CPU 0 Branch Prediction Accuracy: 98.41% MPKI: 0.0223 Average ROB Occupancy at Mispredict: 322.1
Branch type MPKI
BRANCH_DIRECT_JUMP: 3.4e-05
BRANCH_INDIRECT: 4.45e-05
BRANCH_CONDITIONAL: 0.0122
BRANCH_DIRECT_CALL: 0.000332
BRANCH_INDIRECT_CALL: 1.5e-06
BRANCH_RETURN: 0.009687

cpu0->cpu0_STLB TOTAL        ACCESS:   18066708 HIT:   18066465 MISS:        243 MSHR_MERGE:          0
cpu0->cpu0_STLB LOAD         ACCESS:   18066708 HIT:   18066465 MISS:        243 MSHR_MERGE:          0
cpu0->cpu0_STLB RFO          ACCESS:          0 HIT:          0 MISS:          0 MSHR_MERGE:          0
cpu0->cpu0_STLB PREFETCH     ACCESS:          0 HIT:          0 MISS:          0 MSHR_MERGE:          0
cpu0->cpu0_STLB WRITE        ACCESS:          0 HIT:          0 MISS:          0 MSHR_MERGE:          0
cpu0->cpu0_STLB TRANSLATION  ACCESS:          0 HIT:          0 MISS:          0 MSHR_MERGE:          0
cpu0->cpu0_STLB PREFETCH REQUESTED:          0 ISSUED:          0 USEFUL:          0 USELESS:          0
cpu0->cpu0_STLB AVERAGE MISS LATENCY: 9081 cycles
cpu0->cpu0_L2C TOTAL        ACCESS:  251086993 HIT:  230704261 MISS:   20382732 MSHR_MERGE:          0
cpu0->cpu0_L2C LOAD         ACCESS:  217005999 HIT:  196653893 MISS:   20352106 MSHR_MERGE:          0
cpu0->cpu0_L2C RFO          ACCESS:   16173281 HIT:   16142673 MISS:      30608 MSHR_MERGE:          0
cpu0->cpu0_L2C PREFETCH     ACCESS:          0 HIT:          0 MISS:          0 MSHR_MERGE:          0
cpu0->cpu0_L2C WRITE        ACCESS:   17907713 HIT:   17907695 MISS:         18 MSHR_MERGE:          0
cpu0->cpu0_L2C TRANSLATION  ACCESS:          0 HIT:          0 MISS:          0 MSHR_MERGE:          0
cpu0->cpu0_L2C PREFETCH REQUESTED:          0 ISSUED:          0 USEFUL:          0 USELESS:          0
cpu0->cpu0_L2C AVERAGE MISS LATENCY: 96.5 cycles
cpu0->cpu0_L1I TOTAL        ACCESS:  392684154 HIT:  390025430 MISS:    2658724 MSHR_MERGE:    1308581
cpu0->cpu0_L1I LOAD         ACCESS:  392684154 HIT:  390025430 MISS:    2658724 MSHR_MERGE:    1308581
cpu0->cpu0_L1I RFO          ACCESS:          0 HIT:          0 MISS:          0 MSHR_MERGE:          0
cpu0->cpu0_L1I PREFETCH     ACCESS:          0 HIT:          0 MISS:          0 MSHR_MERGE:          0
cpu0->cpu0_L1I WRITE        ACCESS:          0 HIT:          0 MISS:          0 MSHR_MERGE:          0
cpu0->cpu0_L1I TRANSLATION  ACCESS:          0 HIT:          0 MISS:          0 MSHR_MERGE:          0
cpu0->cpu0_L1I PREFETCH REQUESTED:          0 ISSUED:          0 USEFUL:          0 USELESS:          0
cpu0->cpu0_L1I AVERAGE MISS LATENCY: 7.266 cycles
cpu0->cpu0_L1D TOTAL        ACCESS:  650978461 HIT:  376269010 MISS:  274709451 MSHR_MERGE:   42210330
cpu0->cpu0_L1D LOAD         ACCESS:  424228397 HIT:  167444273 MISS:  256784124 MSHR_MERGE:   40465255
cpu0->cpu0_L1D RFO          ACCESS:          0 HIT:          0 MISS:          0 MSHR_MERGE:          0
cpu0->cpu0_L1D PREFETCH     ACCESS:          0 HIT:          0 MISS:          0 MSHR_MERGE:          0
cpu0->cpu0_L1D WRITE        ACCESS:  226750064 HIT:  208824737 MISS:   17925327 MSHR_MERGE:    1745075
cpu0->cpu0_L1D TRANSLATION  ACCESS:          0 HIT:          0 MISS:          0 MSHR_MERGE:          0
cpu0->cpu0_L1D PREFETCH REQUESTED:          0 ISSUED:          0 USEFUL:          0 USELESS:          0
cpu0->cpu0_L1D AVERAGE MISS LATENCY: 17.63 cycles
cpu0->cpu0_ITLB TOTAL        ACCESS:  319386898 HIT:  319386885 MISS:         13 MSHR_MERGE:         10
cpu0->cpu0_ITLB LOAD         ACCESS:  319386898 HIT:  319386885 MISS:         13 MSHR_MERGE:         10
cpu0->cpu0_ITLB RFO          ACCESS:          0 HIT:          0 MISS:          0 MSHR_MERGE:          0
cpu0->cpu0_ITLB PREFETCH     ACCESS:          0 HIT:          0 MISS:          0 MSHR_MERGE:          0
cpu0->cpu0_ITLB WRITE        ACCESS:          0 HIT:          0 MISS:          0 MSHR_MERGE:          0
cpu0->cpu0_ITLB TRANSLATION  ACCESS:          0 HIT:          0 MISS:          0 MSHR_MERGE:          0
cpu0->cpu0_ITLB PREFETCH REQUESTED:          0 ISSUED:          0 USEFUL:          0 USELESS:          0
cpu0->cpu0_ITLB AVERAGE MISS LATENCY: 8678 cycles
cpu0->cpu0_DTLB TOTAL        ACCESS:  491317626 HIT:  454235202 MISS:   37082424 MSHR_MERGE:   19015719
cpu0->cpu0_DTLB LOAD         ACCESS:  491317626 HIT:  454235202 MISS:   37082424 MSHR_MERGE:   19015719
cpu0->cpu0_DTLB RFO          ACCESS:          0 HIT:          0 MISS:          0 MSHR_MERGE:          0
cpu0->cpu0_DTLB PREFETCH     ACCESS:          0 HIT:          0 MISS:          0 MSHR_MERGE:          0
cpu0->cpu0_DTLB WRITE        ACCESS:          0 HIT:          0 MISS:          0 MSHR_MERGE:          0
cpu0->cpu0_DTLB TRANSLATION  ACCESS:          0 HIT:          0 MISS:          0 MSHR_MERGE:          0
cpu0->cpu0_DTLB PREFETCH REQUESTED:          0 ISSUED:          0 USEFUL:          0 USELESS:          0
cpu0->cpu0_DTLB AVERAGE MISS LATENCY: 5.142 cycles
cpu0->LLC TOTAL        ACCESS:   22275854 HIT:    7173047 MISS:   15102807 MSHR_MERGE:          0
cpu0->LLC LOAD         ACCESS:   20352106 HIT:    5279955 MISS:   15072151 MSHR_MERGE:          0
cpu0->LLC RFO          ACCESS:      30608 HIT:          0 MISS:      30608 MSHR_MERGE:          0
cpu0->LLC PREFETCH     ACCESS:          0 HIT:          0 MISS:          0 MSHR_MERGE:          0
cpu0->LLC WRITE        ACCESS:    1893140 HIT:    1893092 MISS:         48 MSHR_MERGE:          0
cpu0->LLC TRANSLATION  ACCESS:          0 HIT:          0 MISS:          0 MSHR_MERGE:          0
cpu0->LLC PREFETCH REQUESTED:          0 ISSUED:          0 USEFUL:          0 USELESS:          0
cpu0->LLC AVERAGE MISS LATENCY: 109 cycles

DRAM Statistics

Channel 0 RQ ROW_BUFFER_HIT:      34267
  ROW_BUFFER_MISS:    7517349
  AVG DBUS CONGESTED CYCLE: 10.06
Channel 0 WQ ROW_BUFFER_HIT:     277355
  ROW_BUFFER_MISS:     666826
  FULL:          0
Channel 0 REFRESHES ISSUED:     103370

Channel 1 RQ ROW_BUFFER_HIT:      34130
  ROW_BUFFER_MISS:    7517490
  AVG DBUS CONGESTED CYCLE: 10.05
Channel 1 WQ ROW_BUFFER_HIT:     276959
  ROW_BUFFER_MISS:     667208
  FULL:          0
Channel 1 REFRESHES ISSUED:     103370
