
*** ChampSim Multicore Out-of-Order Simulator ***
Warmup Instructions: 0
Simulation Instructions: 9223372036854775807
Number of CPUs: 1
Page size: 2097152

Off-chip DRAM Size: 128 GiB Channels: 2 Width: 32-bit Data Rate: 4807 MT/s
[ERROR_PAGE_MANAGER] Error latency: 1990500 
[ERROR_PAGE_MANAGER] Random seed: 54321 (fixed for preload reproducibility)
[ERROR_PAGE_MANAGER] Cycle-based error modeling enabled
[ERROR_PAGE_MANAGER] Errors per interval: 1
[ERROR_PAGE_MANAGER] Error cycle interval: 8000000000 cycles

=== ERROR PAGE STATISTICS ===
Mode: CYCLE
Error Cycle Interval: 8000000000 CPU cycles
Total Error Accesses: 0
==============================
Warmup finished CPU 0 instructions: 0 cycles: 1 cumulative IPC: 0 (Simulation time: 00 hr 00 min 00 sec)
Warmup complete CPU 0 instructions: 0 cycles: 1 cumulative IPC: 0 (Simulation time: 00 hr 00 min 00 sec)
Heartbeat CPU 0 instructions: 10000001 cycles: 10832482 heartbeat IPC: 0.9231 cumulative IPC: 0.9231 (Simulation time: 00 hr 00 min 50 sec)
Heartbeat CPU 0 instructions: 20000002 cycles: 23318839 heartbeat IPC: 0.8009 cumulative IPC: 0.8577 (Simulation time: 00 hr 01 min 52 sec)
Heartbeat CPU 0 instructions: 30000002 cycles: 38196275 heartbeat IPC: 0.6722 cumulative IPC: 0.7854 (Simulation time: 00 hr 03 min 12 sec)
Heartbeat CPU 0 instructions: 40000005 cycles: 48434164 heartbeat IPC: 0.9768 cumulative IPC: 0.8259 (Simulation time: 00 hr 04 min 29 sec)
Heartbeat CPU 0 instructions: 50000005 cycles: 84221167 heartbeat IPC: 0.2794 cumulative IPC: 0.5937 (Simulation time: 00 hr 07 min 28 sec)
Heartbeat CPU 0 instructions: 60000005 cycles: 99432993 heartbeat IPC: 0.6574 cumulative IPC: 0.6034 (Simulation time: 00 hr 08 min 38 sec)
Heartbeat CPU 0 instructions: 70000005 cycles: 115287973 heartbeat IPC: 0.6307 cumulative IPC: 0.6072 (Simulation time: 00 hr 10 min 07 sec)
Heartbeat CPU 0 instructions: 80000007 cycles: 125135123 heartbeat IPC: 1.016 cumulative IPC: 0.6393 (Simulation time: 00 hr 11 min 22 sec)
Heartbeat CPU 0 instructions: 90000007 cycles: 135598530 heartbeat IPC: 0.9557 cumulative IPC: 0.6637 (Simulation time: 00 hr 12 min 42 sec)
Heartbeat CPU 0 instructions: 100000007 cycles: 144920746 heartbeat IPC: 1.073 cumulative IPC: 0.69 (Simulation time: 00 hr 13 min 41 sec)
Heartbeat CPU 0 instructions: 110000007 cycles: 164870555 heartbeat IPC: 0.5013 cumulative IPC: 0.6672 (Simulation time: 00 hr 15 min 50 sec)
Heartbeat CPU 0 instructions: 120000009 cycles: 178395866 heartbeat IPC: 0.7394 cumulative IPC: 0.6727 (Simulation time: 00 hr 17 min 24 sec)
Heartbeat CPU 0 instructions: 130000011 cycles: 189036444 heartbeat IPC: 0.9398 cumulative IPC: 0.6877 (Simulation time: 00 hr 18 min 43 sec)
Heartbeat CPU 0 instructions: 140000012 cycles: 206328921 heartbeat IPC: 0.5783 cumulative IPC: 0.6785 (Simulation time: 00 hr 20 min 36 sec)
Heartbeat CPU 0 instructions: 150000014 cycles: 232436825 heartbeat IPC: 0.383 cumulative IPC: 0.6453 (Simulation time: 00 hr 23 min 20 sec)
Heartbeat CPU 0 instructions: 160000017 cycles: 243503082 heartbeat IPC: 0.9036 cumulative IPC: 0.6571 (Simulation time: 00 hr 24 min 41 sec)
Heartbeat CPU 0 instructions: 170000020 cycles: 251609205 heartbeat IPC: 1.234 cumulative IPC: 0.6757 (Simulation time: 00 hr 25 min 45 sec)
Heartbeat CPU 0 instructions: 180000022 cycles: 280919724 heartbeat IPC: 0.3412 cumulative IPC: 0.6408 (Simulation time: 00 hr 28 min 46 sec)
Heartbeat CPU 0 instructions: 190000022 cycles: 289455589 heartbeat IPC: 1.172 cumulative IPC: 0.6564 (Simulation time: 00 hr 29 min 42 sec)
Heartbeat CPU 0 instructions: 200000022 cycles: 300780347 heartbeat IPC: 0.883 cumulative IPC: 0.6649 (Simulation time: 00 hr 31 min 00 sec)
Heartbeat CPU 0 instructions: 210000023 cycles: 317493459 heartbeat IPC: 0.5983 cumulative IPC: 0.6614 (Simulation time: 00 hr 32 min 50 sec)
Heartbeat CPU 0 instructions: 220000024 cycles: 339725791 heartbeat IPC: 0.4498 cumulative IPC: 0.6476 (Simulation time: 00 hr 34 min 56 sec)
Heartbeat CPU 0 instructions: 230000024 cycles: 350194129 heartbeat IPC: 0.9553 cumulative IPC: 0.6568 (Simulation time: 00 hr 35 min 57 sec)
Heartbeat CPU 0 instructions: 240000024 cycles: 361834648 heartbeat IPC: 0.8591 cumulative IPC: 0.6633 (Simulation time: 00 hr 37 min 04 sec)
Heartbeat CPU 0 instructions: 250000028 cycles: 370444559 heartbeat IPC: 1.161 cumulative IPC: 0.6749 (Simulation time: 00 hr 38 min 08 sec)
Heartbeat CPU 0 instructions: 260000028 cycles: 410734302 heartbeat IPC: 0.2482 cumulative IPC: 0.633 (Simulation time: 00 hr 41 min 20 sec)
Heartbeat CPU 0 instructions: 270000028 cycles: 460928088 heartbeat IPC: 0.1992 cumulative IPC: 0.5858 (Simulation time: 00 hr 45 min 31 sec)
Heartbeat CPU 0 instructions: 280000028 cycles: 478044362 heartbeat IPC: 0.5842 cumulative IPC: 0.5857 (Simulation time: 00 hr 47 min 28 sec)
Heartbeat CPU 0 instructions: 290000029 cycles: 495033735 heartbeat IPC: 0.5886 cumulative IPC: 0.5858 (Simulation time: 00 hr 49 min 22 sec)
Heartbeat CPU 0 instructions: 300000029 cycles: 513388327 heartbeat IPC: 0.5448 cumulative IPC: 0.5844 (Simulation time: 00 hr 51 min 23 sec)
Heartbeat CPU 0 instructions: 310000030 cycles: 524209437 heartbeat IPC: 0.9241 cumulative IPC: 0.5914 (Simulation time: 00 hr 52 min 42 sec)
Heartbeat CPU 0 instructions: 320000030 cycles: 534923273 heartbeat IPC: 0.9334 cumulative IPC: 0.5982 (Simulation time: 00 hr 54 min 02 sec)
Heartbeat CPU 0 instructions: 330000032 cycles: 558033325 heartbeat IPC: 0.4327 cumulative IPC: 0.5914 (Simulation time: 00 hr 56 min 31 sec)
Heartbeat CPU 0 instructions: 340000032 cycles: 568797399 heartbeat IPC: 0.929 cumulative IPC: 0.5978 (Simulation time: 00 hr 57 min 52 sec)
Heartbeat CPU 0 instructions: 350000032 cycles: 576936152 heartbeat IPC: 1.229 cumulative IPC: 0.6067 (Simulation time: 00 hr 58 min 57 sec)
Heartbeat CPU 0 instructions: 360000032 cycles: 597734837 heartbeat IPC: 0.4808 cumulative IPC: 0.6023 (Simulation time: 01 hr 01 min 12 sec)
Heartbeat CPU 0 instructions: 370000034 cycles: 610145864 heartbeat IPC: 0.8057 cumulative IPC: 0.6064 (Simulation time: 01 hr 02 min 40 sec)
Heartbeat CPU 0 instructions: 380000034 cycles: 619552892 heartbeat IPC: 1.063 cumulative IPC: 0.6133 (Simulation time: 01 hr 03 min 53 sec)
Heartbeat CPU 0 instructions: 390000034 cycles: 644566524 heartbeat IPC: 0.3998 cumulative IPC: 0.6051 (Simulation time: 01 hr 06 min 32 sec)
Heartbeat CPU 0 instructions: 400000034 cycles: 669015860 heartbeat IPC: 0.409 cumulative IPC: 0.5979 (Simulation time: 01 hr 09 min 13 sec)
Heartbeat CPU 0 instructions: 410000034 cycles: 679616593 heartbeat IPC: 0.9433 cumulative IPC: 0.6033 (Simulation time: 01 hr 10 min 23 sec)
Heartbeat CPU 0 instructions: 420000035 cycles: 688545199 heartbeat IPC: 1.12 cumulative IPC: 0.61 (Simulation time: 01 hr 11 min 08 sec)
Heartbeat CPU 0 instructions: 430000038 cycles: 702210931 heartbeat IPC: 0.7318 cumulative IPC: 0.6124 (Simulation time: 01 hr 12 min 25 sec)
Heartbeat CPU 0 instructions: 440000041 cycles: 734565262 heartbeat IPC: 0.3091 cumulative IPC: 0.599 (Simulation time: 01 hr 15 min 37 sec)
Heartbeat CPU 0 instructions: 450000044 cycles: 743039978 heartbeat IPC: 1.18 cumulative IPC: 0.6056 (Simulation time: 01 hr 16 min 42 sec)
Heartbeat CPU 0 instructions: 460000044 cycles: 756597880 heartbeat IPC: 0.7376 cumulative IPC: 0.608 (Simulation time: 01 hr 18 min 00 sec)
Heartbeat CPU 0 instructions: 470000044 cycles: 765510181 heartbeat IPC: 1.122 cumulative IPC: 0.614 (Simulation time: 01 hr 18 min 53 sec)
Heartbeat CPU 0 instructions: 480000045 cycles: 775423640 heartbeat IPC: 1.009 cumulative IPC: 0.619 (Simulation time: 01 hr 19 min 57 sec)
Heartbeat CPU 0 instructions: 490000046 cycles: 801126275 heartbeat IPC: 0.3891 cumulative IPC: 0.6116 (Simulation time: 01 hr 22 min 34 sec)
Heartbeat CPU 0 instructions: 500000046 cycles: 811197513 heartbeat IPC: 0.9929 cumulative IPC: 0.6164 (Simulation time: 01 hr 23 min 49 sec)
Heartbeat CPU 0 instructions: 510000047 cycles: 822514231 heartbeat IPC: 0.8836 cumulative IPC: 0.6201 (Simulation time: 01 hr 25 min 12 sec)
Heartbeat CPU 0 instructions: 520000048 cycles: 831097490 heartbeat IPC: 1.165 cumulative IPC: 0.6257 (Simulation time: 01 hr 26 min 18 sec)
Heartbeat CPU 0 instructions: 530000052 cycles: 841445973 heartbeat IPC: 0.9663 cumulative IPC: 0.6299 (Simulation time: 01 hr 27 min 35 sec)
Heartbeat CPU 0 instructions: 540000053 cycles: 873912622 heartbeat IPC: 0.308 cumulative IPC: 0.6179 (Simulation time: 01 hr 30 min 49 sec)
Heartbeat CPU 0 instructions: 550000056 cycles: 917692973 heartbeat IPC: 0.2284 cumulative IPC: 0.5993 (Simulation time: 01 hr 35 min 03 sec)
Heartbeat CPU 0 instructions: 560000056 cycles: 961472682 heartbeat IPC: 0.2284 cumulative IPC: 0.5824 (Simulation time: 01 hr 38 min 37 sec)
Heartbeat CPU 0 instructions: 570000057 cycles: 1005961634 heartbeat IPC: 0.2248 cumulative IPC: 0.5666 (Simulation time: 01 hr 42 min 56 sec)
Heartbeat CPU 0 instructions: 580000060 cycles: 1049597115 heartbeat IPC: 0.2292 cumulative IPC: 0.5526 (Simulation time: 01 hr 47 min 11 sec)
Heartbeat CPU 0 instructions: 590000060 cycles: 1093913687 heartbeat IPC: 0.2256 cumulative IPC: 0.5393 (Simulation time: 01 hr 51 min 31 sec)
Heartbeat CPU 0 instructions: 600000064 cycles: 1137508998 heartbeat IPC: 0.2294 cumulative IPC: 0.5275 (Simulation time: 01 hr 55 min 23 sec)
Heartbeat CPU 0 instructions: 610000067 cycles: 1181325005 heartbeat IPC: 0.2282 cumulative IPC: 0.5164 (Simulation time: 01 hr 58 min 51 sec)
Heartbeat CPU 0 instructions: 620000068 cycles: 1221445913 heartbeat IPC: 0.2492 cumulative IPC: 0.5076 (Simulation time: 02 hr 02 min 29 sec)
Heartbeat CPU 0 instructions: 630000069 cycles: 1261042496 heartbeat IPC: 0.2525 cumulative IPC: 0.4996 (Simulation time: 02 hr 06 min 29 sec)
Heartbeat CPU 0 instructions: 640000070 cycles: 1298970602 heartbeat IPC: 0.2637 cumulative IPC: 0.4927 (Simulation time: 02 hr 10 min 22 sec)
Heartbeat CPU 0 instructions: 650000070 cycles: 1342386986 heartbeat IPC: 0.2303 cumulative IPC: 0.4842 (Simulation time: 02 hr 14 min 35 sec)
Heartbeat CPU 0 instructions: 660000074 cycles: 1389779937 heartbeat IPC: 0.211 cumulative IPC: 0.4749 (Simulation time: 02 hr 18 min 43 sec)
Heartbeat CPU 0 instructions: 670000075 cycles: 1437879752 heartbeat IPC: 0.2079 cumulative IPC: 0.466 (Simulation time: 02 hr 23 min 03 sec)
Heartbeat CPU 0 instructions: 680000077 cycles: 1484686755 heartbeat IPC: 0.2136 cumulative IPC: 0.458 (Simulation time: 02 hr 27 min 05 sec)
Heartbeat CPU 0 instructions: 690000077 cycles: 1517513462 heartbeat IPC: 0.3046 cumulative IPC: 0.4547 (Simulation time: 02 hr 29 min 56 sec)
Heartbeat CPU 0 instructions: 700000079 cycles: 1532799735 heartbeat IPC: 0.6542 cumulative IPC: 0.4567 (Simulation time: 02 hr 31 min 31 sec)
Heartbeat CPU 0 instructions: 710000082 cycles: 1542065032 heartbeat IPC: 1.079 cumulative IPC: 0.4604 (Simulation time: 02 hr 32 min 41 sec)
Heartbeat CPU 0 instructions: 720000084 cycles: 1555083816 heartbeat IPC: 0.7681 cumulative IPC: 0.463 (Simulation time: 02 hr 34 min 10 sec)
Heartbeat CPU 0 instructions: 730000085 cycles: 1566611739 heartbeat IPC: 0.8675 cumulative IPC: 0.466 (Simulation time: 02 hr 35 min 21 sec)
Heartbeat CPU 0 instructions: 740000087 cycles: 1575064006 heartbeat IPC: 1.183 cumulative IPC: 0.4698 (Simulation time: 02 hr 36 min 22 sec)
Heartbeat CPU 0 instructions: 750000088 cycles: 1590766089 heartbeat IPC: 0.6369 cumulative IPC: 0.4715 (Simulation time: 02 hr 37 min 37 sec)
Heartbeat CPU 0 instructions: 760000089 cycles: 1599246247 heartbeat IPC: 1.179 cumulative IPC: 0.4752 (Simulation time: 02 hr 38 min 19 sec)
Heartbeat CPU 0 instructions: 770000091 cycles: 1608774701 heartbeat IPC: 1.049 cumulative IPC: 0.4786 (Simulation time: 02 hr 39 min 16 sec)
Heartbeat CPU 0 instructions: 780000093 cycles: 1622129109 heartbeat IPC: 0.7488 cumulative IPC: 0.4808 (Simulation time: 02 hr 40 min 50 sec)
Heartbeat CPU 0 instructions: 790000093 cycles: 1634963676 heartbeat IPC: 0.7791 cumulative IPC: 0.4832 (Simulation time: 02 hr 42 min 16 sec)
Heartbeat CPU 0 instructions: 800000093 cycles: 1661801656 heartbeat IPC: 0.3726 cumulative IPC: 0.4814 (Simulation time: 02 hr 44 min 25 sec)
Heartbeat CPU 0 instructions: 810000094 cycles: 1682206731 heartbeat IPC: 0.4901 cumulative IPC: 0.4815 (Simulation time: 02 hr 46 min 07 sec)
Heartbeat CPU 0 instructions: 820000094 cycles: 1696696574 heartbeat IPC: 0.6901 cumulative IPC: 0.4833 (Simulation time: 02 hr 47 min 35 sec)
Heartbeat CPU 0 instructions: 830000094 cycles: 1707400735 heartbeat IPC: 0.9342 cumulative IPC: 0.4861 (Simulation time: 02 hr 48 min 48 sec)
Heartbeat CPU 0 instructions: 840000096 cycles: 1732401588 heartbeat IPC: 0.4 cumulative IPC: 0.4849 (Simulation time: 02 hr 50 min 49 sec)
Heartbeat CPU 0 instructions: 850000097 cycles: 1752338384 heartbeat IPC: 0.5016 cumulative IPC: 0.4851 (Simulation time: 02 hr 52 min 40 sec)
Heartbeat CPU 0 instructions: 860000100 cycles: 1763485139 heartbeat IPC: 0.8971 cumulative IPC: 0.4877 (Simulation time: 02 hr 53 min 34 sec)
Heartbeat CPU 0 instructions: 870000103 cycles: 1771581543 heartbeat IPC: 1.235 cumulative IPC: 0.4911 (Simulation time: 02 hr 54 min 29 sec)
Heartbeat CPU 0 instructions: 880000103 cycles: 1785115266 heartbeat IPC: 0.7389 cumulative IPC: 0.493 (Simulation time: 02 hr 56 min 06 sec)
Heartbeat CPU 0 instructions: 890000103 cycles: 1795368855 heartbeat IPC: 0.9753 cumulative IPC: 0.4957 (Simulation time: 02 hr 57 min 17 sec)
Heartbeat CPU 0 instructions: 900000107 cycles: 1814066277 heartbeat IPC: 0.5348 cumulative IPC: 0.4961 (Simulation time: 02 hr 59 min 16 sec)
Heartbeat CPU 0 instructions: 910000107 cycles: 1823034683 heartbeat IPC: 1.115 cumulative IPC: 0.4992 (Simulation time: 03 hr 00 min 02 sec)
Heartbeat CPU 0 instructions: 920000108 cycles: 1835431264 heartbeat IPC: 0.8067 cumulative IPC: 0.5012 (Simulation time: 03 hr 01 min 09 sec)
Heartbeat CPU 0 instructions: 930000109 cycles: 1844776077 heartbeat IPC: 1.07 cumulative IPC: 0.5041 (Simulation time: 03 hr 02 min 02 sec)
Heartbeat CPU 0 instructions: 940000113 cycles: 1883482593 heartbeat IPC: 0.2584 cumulative IPC: 0.4991 (Simulation time: 03 hr 04 min 56 sec)
Heartbeat CPU 0 instructions: 950000113 cycles: 1925138472 heartbeat IPC: 0.2401 cumulative IPC: 0.4935 (Simulation time: 03 hr 09 min 08 sec)
Heartbeat CPU 0 instructions: 960000113 cycles: 1943508460 heartbeat IPC: 0.5444 cumulative IPC: 0.494 (Simulation time: 03 hr 10 min 58 sec)
Heartbeat CPU 0 instructions: 970000113 cycles: 1953355132 heartbeat IPC: 1.016 cumulative IPC: 0.4966 (Simulation time: 03 hr 12 min 13 sec)
Heartbeat CPU 0 instructions: 980000113 cycles: 1962450352 heartbeat IPC: 1.099 cumulative IPC: 0.4994 (Simulation time: 03 hr 13 min 24 sec)
Heartbeat CPU 0 instructions: 990000115 cycles: 1978567488 heartbeat IPC: 0.6205 cumulative IPC: 0.5004 (Simulation time: 03 hr 15 min 16 sec)
Heartbeat CPU 0 instructions: 1000000115 cycles: 1989312222 heartbeat IPC: 0.9307 cumulative IPC: 0.5027 (Simulation time: 03 hr 16 min 37 sec)
Heartbeat CPU 0 instructions: 1010000115 cycles: 2000229845 heartbeat IPC: 0.916 cumulative IPC: 0.5049 (Simulation time: 03 hr 17 min 56 sec)
Heartbeat CPU 0 instructions: 1020000118 cycles: 2011789725 heartbeat IPC: 0.8651 cumulative IPC: 0.507 (Simulation time: 03 hr 19 min 15 sec)
Heartbeat CPU 0 instructions: 1030000119 cycles: 2022663528 heartbeat IPC: 0.9196 cumulative IPC: 0.5092 (Simulation time: 03 hr 20 min 35 sec)
Heartbeat CPU 0 instructions: 1040000123 cycles: 2036552449 heartbeat IPC: 0.72 cumulative IPC: 0.5107 (Simulation time: 03 hr 21 min 44 sec)
Heartbeat CPU 0 instructions: 1050000126 cycles: 2086382511 heartbeat IPC: 0.2007 cumulative IPC: 0.5033 (Simulation time: 03 hr 26 min 23 sec)
Heartbeat CPU 0 instructions: 1060000130 cycles: 2120519570 heartbeat IPC: 0.2929 cumulative IPC: 0.4999 (Simulation time: 03 hr 29 min 47 sec)
Heartbeat CPU 0 instructions: 1070000134 cycles: 2129180765 heartbeat IPC: 1.155 cumulative IPC: 0.5025 (Simulation time: 03 hr 30 min 55 sec)
Heartbeat CPU 0 instructions: 1080000134 cycles: 2138782624 heartbeat IPC: 1.041 cumulative IPC: 0.505 (Simulation time: 03 hr 32 min 07 sec)
Heartbeat CPU 0 instructions: 1090000137 cycles: 2173977843 heartbeat IPC: 0.2841 cumulative IPC: 0.5014 (Simulation time: 03 hr 35 min 27 sec)
Heartbeat CPU 0 instructions: 1100000137 cycles: 2189111654 heartbeat IPC: 0.6608 cumulative IPC: 0.5025 (Simulation time: 03 hr 37 min 06 sec)
Heartbeat CPU 0 instructions: 1110000140 cycles: 2199740073 heartbeat IPC: 0.9409 cumulative IPC: 0.5046 (Simulation time: 03 hr 38 min 26 sec)
Heartbeat CPU 0 instructions: 1120000143 cycles: 2209247022 heartbeat IPC: 1.052 cumulative IPC: 0.507 (Simulation time: 03 hr 39 min 29 sec)
Heartbeat CPU 0 instructions: 1130000143 cycles: 2217482031 heartbeat IPC: 1.214 cumulative IPC: 0.5096 (Simulation time: 03 hr 40 min 23 sec)
Heartbeat CPU 0 instructions: 1140000147 cycles: 2241194747 heartbeat IPC: 0.4217 cumulative IPC: 0.5087 (Simulation time: 03 hr 42 min 53 sec)
Heartbeat CPU 0 instructions: 1150000147 cycles: 2251498232 heartbeat IPC: 0.9705 cumulative IPC: 0.5108 (Simulation time: 03 hr 44 min 09 sec)
Heartbeat CPU 0 instructions: 1160000149 cycles: 2268276820 heartbeat IPC: 0.596 cumulative IPC: 0.5114 (Simulation time: 03 hr 45 min 39 sec)
Heartbeat CPU 0 instructions: 1170000149 cycles: 2276725461 heartbeat IPC: 1.184 cumulative IPC: 0.5139 (Simulation time: 03 hr 46 min 42 sec)
Heartbeat CPU 0 instructions: 1180000152 cycles: 2286505828 heartbeat IPC: 1.022 cumulative IPC: 0.5161 (Simulation time: 03 hr 47 min 53 sec)
Heartbeat CPU 0 instructions: 1190000154 cycles: 2316053934 heartbeat IPC: 0.3384 cumulative IPC: 0.5138 (Simulation time: 03 hr 50 min 15 sec)
Heartbeat CPU 0 instructions: 1200000156 cycles: 2325808297 heartbeat IPC: 1.025 cumulative IPC: 0.5159 (Simulation time: 03 hr 51 min 12 sec)
Heartbeat CPU 0 instructions: 1210000156 cycles: 2341045725 heartbeat IPC: 0.6563 cumulative IPC: 0.5169 (Simulation time: 03 hr 52 min 34 sec)
Heartbeat CPU 0 instructions: 1220000159 cycles: 2355113203 heartbeat IPC: 0.7109 cumulative IPC: 0.518 (Simulation time: 03 hr 53 min 40 sec)
Heartbeat CPU 0 instructions: 1230000162 cycles: 2363077479 heartbeat IPC: 1.256 cumulative IPC: 0.5205 (Simulation time: 03 hr 54 min 32 sec)
Heartbeat CPU 0 instructions: 1240000164 cycles: 2372805820 heartbeat IPC: 1.028 cumulative IPC: 0.5226 (Simulation time: 03 hr 55 min 46 sec)
Heartbeat CPU 0 instructions: 1250000167 cycles: 2393903506 heartbeat IPC: 0.474 cumulative IPC: 0.5222 (Simulation time: 03 hr 58 min 01 sec)
Heartbeat CPU 0 instructions: 1260000170 cycles: 2403051093 heartbeat IPC: 1.093 cumulative IPC: 0.5243 (Simulation time: 03 hr 59 min 08 sec)
Heartbeat CPU 0 instructions: 1270000172 cycles: 2415294835 heartbeat IPC: 0.8167 cumulative IPC: 0.5258 (Simulation time: 04 hr 00 min 21 sec)
Heartbeat CPU 0 instructions: 1280000174 cycles: 2434111984 heartbeat IPC: 0.5314 cumulative IPC: 0.5259 (Simulation time: 04 hr 01 min 56 sec)
Heartbeat CPU 0 instructions: 1290000176 cycles: 2466225534 heartbeat IPC: 0.3114 cumulative IPC: 0.5231 (Simulation time: 04 hr 04 min 42 sec)
Heartbeat CPU 0 instructions: 1300000178 cycles: 2475394729 heartbeat IPC: 1.091 cumulative IPC: 0.5252 (Simulation time: 04 hr 05 min 41 sec)
Heartbeat CPU 0 instructions: 1310000178 cycles: 2485047009 heartbeat IPC: 1.036 cumulative IPC: 0.5272 (Simulation time: 04 hr 06 min 45 sec)
Heartbeat CPU 0 instructions: 1320000178 cycles: 2493323323 heartbeat IPC: 1.208 cumulative IPC: 0.5294 (Simulation time: 04 hr 07 min 53 sec)
Heartbeat CPU 0 instructions: 1330000178 cycles: 2514211076 heartbeat IPC: 0.4787 cumulative IPC: 0.529 (Simulation time: 04 hr 10 min 07 sec)
Heartbeat CPU 0 instructions: 1340000178 cycles: 2550544656 heartbeat IPC: 0.2752 cumulative IPC: 0.5254 (Simulation time: 04 hr 13 min 53 sec)
Heartbeat CPU 0 instructions: 1350000181 cycles: 2572563124 heartbeat IPC: 0.4542 cumulative IPC: 0.5248 (Simulation time: 04 hr 16 min 20 sec)
Heartbeat CPU 0 instructions: 1360000185 cycles: 2581927957 heartbeat IPC: 1.068 cumulative IPC: 0.5267 (Simulation time: 04 hr 17 min 24 sec)
Heartbeat CPU 0 instructions: 1370000185 cycles: 2596613070 heartbeat IPC: 0.681 cumulative IPC: 0.5276 (Simulation time: 04 hr 19 min 04 sec)
Heartbeat CPU 0 instructions: 1380000187 cycles: 2606834142 heartbeat IPC: 0.9784 cumulative IPC: 0.5294 (Simulation time: 04 hr 20 min 23 sec)
Heartbeat CPU 0 instructions: 1390000191 cycles: 2615077759 heartbeat IPC: 1.213 cumulative IPC: 0.5315 (Simulation time: 04 hr 21 min 29 sec)
Heartbeat CPU 0 instructions: 1400000191 cycles: 2624666108 heartbeat IPC: 1.043 cumulative IPC: 0.5334 (Simulation time: 04 hr 22 min 44 sec)
Heartbeat CPU 0 instructions: 1410000192 cycles: 2640197253 heartbeat IPC: 0.6439 cumulative IPC: 0.5341 (Simulation time: 04 hr 24 min 35 sec)
Heartbeat CPU 0 instructions: 1420000192 cycles: 2649429000 heartbeat IPC: 1.083 cumulative IPC: 0.536 (Simulation time: 04 hr 25 min 46 sec)
Heartbeat CPU 0 instructions: 1430000192 cycles: 2658021835 heartbeat IPC: 1.164 cumulative IPC: 0.538 (Simulation time: 04 hr 26 min 55 sec)
Heartbeat CPU 0 instructions: 1440000194 cycles: 2685912488 heartbeat IPC: 0.3585 cumulative IPC: 0.5361 (Simulation time: 04 hr 29 min 49 sec)
Heartbeat CPU 0 instructions: 1450000195 cycles: 2700121391 heartbeat IPC: 0.7038 cumulative IPC: 0.537 (Simulation time: 04 hr 31 min 30 sec)
Heartbeat CPU 0 instructions: 1460000196 cycles: 2709829499 heartbeat IPC: 1.03 cumulative IPC: 0.5388 (Simulation time: 04 hr 32 min 44 sec)
Heartbeat CPU 0 instructions: 1470000199 cycles: 2718823371 heartbeat IPC: 1.112 cumulative IPC: 0.5407 (Simulation time: 04 hr 33 min 55 sec)
Heartbeat CPU 0 instructions: 1480000199 cycles: 2728784245 heartbeat IPC: 1.004 cumulative IPC: 0.5424 (Simulation time: 04 hr 35 min 10 sec)
Heartbeat CPU 0 instructions: 1490000202 cycles: 2756058543 heartbeat IPC: 0.3666 cumulative IPC: 0.5406 (Simulation time: 04 hr 38 min 01 sec)
Heartbeat CPU 0 instructions: 1500000203 cycles: 2764356622 heartbeat IPC: 1.205 cumulative IPC: 0.5426 (Simulation time: 04 hr 39 min 07 sec)
Heartbeat CPU 0 instructions: 1510000205 cycles: 2773412754 heartbeat IPC: 1.104 cumulative IPC: 0.5445 (Simulation time: 04 hr 40 min 17 sec)
Heartbeat CPU 0 instructions: 1520000205 cycles: 2783709658 heartbeat IPC: 0.9712 cumulative IPC: 0.546 (Simulation time: 04 hr 41 min 25 sec)
Heartbeat CPU 0 instructions: 1530000205 cycles: 2817955062 heartbeat IPC: 0.292 cumulative IPC: 0.5429 (Simulation time: 04 hr 44 min 00 sec)
Heartbeat CPU 0 instructions: 1540000205 cycles: 2860406986 heartbeat IPC: 0.2356 cumulative IPC: 0.5384 (Simulation time: 04 hr 47 min 06 sec)
Heartbeat CPU 0 instructions: 1550000206 cycles: 2903842617 heartbeat IPC: 0.2302 cumulative IPC: 0.5338 (Simulation time: 04 hr 50 min 10 sec)
Heartbeat CPU 0 instructions: 1560000210 cycles: 2947038327 heartbeat IPC: 0.2315 cumulative IPC: 0.5293 (Simulation time: 04 hr 53 min 01 sec)
Heartbeat CPU 0 instructions: 1570000210 cycles: 2990964937 heartbeat IPC: 0.2277 cumulative IPC: 0.5249 (Simulation time: 04 hr 56 min 50 sec)
Heartbeat CPU 0 instructions: 1580000212 cycles: 3043096039 heartbeat IPC: 0.1918 cumulative IPC: 0.5192 (Simulation time: 05 hr 01 min 22 sec)
Heartbeat CPU 0 instructions: 1590000216 cycles: 3092997450 heartbeat IPC: 0.2004 cumulative IPC: 0.5141 (Simulation time: 05 hr 05 min 52 sec)
Heartbeat CPU 0 instructions: 1600000218 cycles: 3126584242 heartbeat IPC: 0.2977 cumulative IPC: 0.5117 (Simulation time: 05 hr 08 min 24 sec)
Heartbeat CPU 0 instructions: 1610000218 cycles: 3138281844 heartbeat IPC: 0.8549 cumulative IPC: 0.513 (Simulation time: 05 hr 09 min 34 sec)
Heartbeat CPU 0 instructions: 1620000222 cycles: 3147600102 heartbeat IPC: 1.073 cumulative IPC: 0.5147 (Simulation time: 05 hr 10 min 44 sec)
Heartbeat CPU 0 instructions: 1630000222 cycles: 3165256948 heartbeat IPC: 0.5664 cumulative IPC: 0.515 (Simulation time: 05 hr 12 min 28 sec)
Heartbeat CPU 0 instructions: 1640000224 cycles: 3175324888 heartbeat IPC: 0.9933 cumulative IPC: 0.5165 (Simulation time: 05 hr 13 min 43 sec)
Heartbeat CPU 0 instructions: 1650000228 cycles: 3185240644 heartbeat IPC: 1.008 cumulative IPC: 0.518 (Simulation time: 05 hr 14 min 38 sec)
Heartbeat CPU 0 instructions: 1660000230 cycles: 3197512854 heartbeat IPC: 0.8148 cumulative IPC: 0.5192 (Simulation time: 05 hr 15 min 34 sec)
Heartbeat CPU 0 instructions: 1670000231 cycles: 3224977454 heartbeat IPC: 0.3641 cumulative IPC: 0.5178 (Simulation time: 05 hr 18 min 13 sec)
Heartbeat CPU 0 instructions: 1680000231 cycles: 3248094310 heartbeat IPC: 0.4326 cumulative IPC: 0.5172 (Simulation time: 05 hr 20 min 36 sec)
Heartbeat CPU 0 instructions: 1690000231 cycles: 3256548463 heartbeat IPC: 1.183 cumulative IPC: 0.519 (Simulation time: 05 hr 21 min 35 sec)
Heartbeat CPU 0 instructions: 1700000232 cycles: 3269432901 heartbeat IPC: 0.7761 cumulative IPC: 0.52 (Simulation time: 05 hr 23 min 04 sec)
Heartbeat CPU 0 instructions: 1710000233 cycles: 3280934760 heartbeat IPC: 0.8694 cumulative IPC: 0.5212 (Simulation time: 05 hr 24 min 26 sec)
Heartbeat CPU 0 instructions: 1720000233 cycles: 3291066629 heartbeat IPC: 0.987 cumulative IPC: 0.5226 (Simulation time: 05 hr 25 min 42 sec)
Heartbeat CPU 0 instructions: 1730000235 cycles: 3299716464 heartbeat IPC: 1.156 cumulative IPC: 0.5243 (Simulation time: 05 hr 26 min 42 sec)
Heartbeat CPU 0 instructions: 1740000235 cycles: 3318970672 heartbeat IPC: 0.5194 cumulative IPC: 0.5243 (Simulation time: 05 hr 28 min 08 sec)
Heartbeat CPU 0 instructions: 1750000236 cycles: 3327637052 heartbeat IPC: 1.154 cumulative IPC: 0.5259 (Simulation time: 05 hr 28 min 50 sec)
Heartbeat CPU 0 instructions: 1760000236 cycles: 3340981964 heartbeat IPC: 0.7493 cumulative IPC: 0.5268 (Simulation time: 05 hr 29 min 56 sec)
Heartbeat CPU 0 instructions: 1770000237 cycles: 3350863779 heartbeat IPC: 1.012 cumulative IPC: 0.5282 (Simulation time: 05 hr 30 min 43 sec)
Heartbeat CPU 0 instructions: 1780000237 cycles: 3371768989 heartbeat IPC: 0.4783 cumulative IPC: 0.5279 (Simulation time: 05 hr 32 min 16 sec)
Heartbeat CPU 0 instructions: 1790000237 cycles: 3420325755 heartbeat IPC: 0.2059 cumulative IPC: 0.5233 (Simulation time: 05 hr 35 min 36 sec)
Heartbeat CPU 0 instructions: 1800000240 cycles: 3442693224 heartbeat IPC: 0.4471 cumulative IPC: 0.5228 (Simulation time: 05 hr 37 min 33 sec)
Heartbeat CPU 0 instructions: 1810000240 cycles: 3452621600 heartbeat IPC: 1.007 cumulative IPC: 0.5242 (Simulation time: 05 hr 38 min 49 sec)
Heartbeat CPU 0 instructions: 1820000242 cycles: 3472820537 heartbeat IPC: 0.4951 cumulative IPC: 0.5241 (Simulation time: 05 hr 40 min 21 sec)
Heartbeat CPU 0 instructions: 1830000243 cycles: 3482581171 heartbeat IPC: 1.025 cumulative IPC: 0.5255 (Simulation time: 05 hr 41 min 06 sec)
Heartbeat CPU 0 instructions: 1840000243 cycles: 3490432739 heartbeat IPC: 1.274 cumulative IPC: 0.5272 (Simulation time: 05 hr 41 min 49 sec)
Heartbeat CPU 0 instructions: 1850000243 cycles: 3500373119 heartbeat IPC: 1.006 cumulative IPC: 0.5285 (Simulation time: 05 hr 42 min 35 sec)
Heartbeat CPU 0 instructions: 1860000245 cycles: 3515579053 heartbeat IPC: 0.6576 cumulative IPC: 0.5291 (Simulation time: 05 hr 43 min 42 sec)
Heartbeat CPU 0 instructions: 1870000249 cycles: 3531354709 heartbeat IPC: 0.6339 cumulative IPC: 0.5295 (Simulation time: 05 hr 44 min 50 sec)
Heartbeat CPU 0 instructions: 1880000253 cycles: 3540188296 heartbeat IPC: 1.132 cumulative IPC: 0.531 (Simulation time: 05 hr 45 min 33 sec)
Heartbeat CPU 0 instructions: 1890000255 cycles: 3557128489 heartbeat IPC: 0.5903 cumulative IPC: 0.5313 (Simulation time: 05 hr 46 min 45 sec)
Heartbeat CPU 0 instructions: 1900000258 cycles: 3565658551 heartbeat IPC: 1.172 cumulative IPC: 0.5329 (Simulation time: 05 hr 47 min 41 sec)
Heartbeat CPU 0 instructions: 1910000258 cycles: 3576644150 heartbeat IPC: 0.9103 cumulative IPC: 0.534 (Simulation time: 05 hr 48 min 44 sec)
Heartbeat CPU 0 instructions: 1920000259 cycles: 3586133860 heartbeat IPC: 1.054 cumulative IPC: 0.5354 (Simulation time: 05 hr 49 min 50 sec)
Heartbeat CPU 0 instructions: 1930000261 cycles: 3602175297 heartbeat IPC: 0.6234 cumulative IPC: 0.5358 (Simulation time: 05 hr 50 min 58 sec)
Heartbeat CPU 0 instructions: 1940000262 cycles: 3611018603 heartbeat IPC: 1.131 cumulative IPC: 0.5372 (Simulation time: 05 hr 51 min 42 sec)
Heartbeat CPU 0 instructions: 1950000263 cycles: 3623146978 heartbeat IPC: 0.8245 cumulative IPC: 0.5382 (Simulation time: 05 hr 52 min 43 sec)
Heartbeat CPU 0 instructions: 1960000263 cycles: 3633409958 heartbeat IPC: 0.9744 cumulative IPC: 0.5394 (Simulation time: 05 hr 53 min 35 sec)
Heartbeat CPU 0 instructions: 1970000266 cycles: 3659487717 heartbeat IPC: 0.3835 cumulative IPC: 0.5383 (Simulation time: 05 hr 55 min 42 sec)
Heartbeat CPU 0 instructions: 1980000267 cycles: 3707816611 heartbeat IPC: 0.2069 cumulative IPC: 0.534 (Simulation time: 05 hr 58 min 41 sec)
Heartbeat CPU 0 instructions: 1990000270 cycles: 3756640753 heartbeat IPC: 0.2048 cumulative IPC: 0.5297 (Simulation time: 06 hr 01 min 31 sec)

=== ERROR PAGE STATISTICS ===
Mode: CYCLE
Error Cycle Interval: 8000000000 CPU cycles
Total Error Accesses: 0
==============================
Simulation finished CPU 0 instructions: 1999999862 cycles: 3801592221 cumulative IPC: 0.5261 (Simulation time: 06 hr 04 min 12 sec)
Simulation complete CPU 0 instructions: 1999999862 cycles: 3801592221 cumulative IPC: 0.5261 (Simulation time: 06 hr 04 min 12 sec)

ChampSim completed all CPUs

=== Simulation ===
CPU 0 runs test_traces/605.mcf_s-994B.champsimtrace.xz

Region of Interest Statistics

CPU 0 cumulative IPC: 0.5261 instructions: 1999999862 cycles: 3801592221
CPU 0 Branch Prediction Accuracy: 92.62% MPKI: 18.99 Average ROB Occupancy at Mispredict: 32.65
Branch type MPKI
BRANCH_DIRECT_JUMP: 0.123
BRANCH_INDIRECT: 0
BRANCH_CONDITIONAL: 18.86
BRANCH_DIRECT_CALL: 6.5e-06
BRANCH_INDIRECT_CALL: 0.0004185
BRANCH_RETURN: 1e-05

cpu0->cpu0_STLB TOTAL        ACCESS:    5250177 HIT:    5249295 MISS:        882 MSHR_MERGE:          0
cpu0->cpu0_STLB LOAD         ACCESS:    5250177 HIT:    5249295 MISS:        882 MSHR_MERGE:          0
cpu0->cpu0_STLB RFO          ACCESS:          0 HIT:          0 MISS:          0 MSHR_MERGE:          0
cpu0->cpu0_STLB PREFETCH     ACCESS:          0 HIT:          0 MISS:          0 MSHR_MERGE:          0
cpu0->cpu0_STLB WRITE        ACCESS:          0 HIT:          0 MISS:          0 MSHR_MERGE:          0
cpu0->cpu0_STLB TRANSLATION  ACCESS:          0 HIT:          0 MISS:          0 MSHR_MERGE:          0
cpu0->cpu0_STLB PREFETCH REQUESTED:          0 ISSUED:          0 USEFUL:          0 USELESS:          0
cpu0->cpu0_STLB AVERAGE MISS LATENCY: 8698 cycles
cpu0->cpu0_L2C TOTAL        ACCESS:   81180856 HIT:   27540059 MISS:   53640797 MSHR_MERGE:          0
cpu0->cpu0_L2C LOAD         ACCESS:   75043366 HIT:   21467024 MISS:   53576342 MSHR_MERGE:          0
cpu0->cpu0_L2C RFO          ACCESS:     492509 HIT:     432339 MISS:      60170 MSHR_MERGE:          0
cpu0->cpu0_L2C PREFETCH     ACCESS:          0 HIT:          0 MISS:          0 MSHR_MERGE:          0
cpu0->cpu0_L2C WRITE        ACCESS:    5644981 HIT:    5640696 MISS:       4285 MSHR_MERGE:          0
cpu0->cpu0_L2C TRANSLATION  ACCESS:          0 HIT:          0 MISS:          0 MSHR_MERGE:          0
cpu0->cpu0_L2C PREFETCH REQUESTED:          0 ISSUED:          0 USEFUL:          0 USELESS:          0
cpu0->cpu0_L2C AVERAGE MISS LATENCY: 95.95 cycles
cpu0->cpu0_L1I TOTAL        ACCESS:    2873538 HIT:    2873447 MISS:         91 MSHR_MERGE:         25
cpu0->cpu0_L1I LOAD         ACCESS:    2873538 HIT:    2873447 MISS:         91 MSHR_MERGE:         25
cpu0->cpu0_L1I RFO          ACCESS:          0 HIT:          0 MISS:          0 MSHR_MERGE:          0
cpu0->cpu0_L1I PREFETCH     ACCESS:          0 HIT:          0 MISS:          0 MSHR_MERGE:          0
cpu0->cpu0_L1I WRITE        ACCESS:          0 HIT:          0 MISS:          0 MSHR_MERGE:          0
cpu0->cpu0_L1I TRANSLATION  ACCESS:          0 HIT:          0 MISS:          0 MSHR_MERGE:          0
cpu0->cpu0_L1I PREFETCH REQUESTED:          0 ISSUED:          0 USEFUL:          0 USELESS:          0
cpu0->cpu0_L1I AVERAGE MISS LATENCY: 101.9 cycles
cpu0->cpu0_L1D TOTAL        ACCESS:  810909431 HIT:  728548889 MISS:   82360542 MSHR_MERGE:    6823578
cpu0->cpu0_L1D LOAD         ACCESS:  610325661 HIT:  529341709 MISS:   80983952 MSHR_MERGE:    5940633
cpu0->cpu0_L1D RFO          ACCESS:          0 HIT:          0 MISS:          0 MSHR_MERGE:          0
cpu0->cpu0_L1D PREFETCH     ACCESS:          0 HIT:          0 MISS:          0 MSHR_MERGE:          0
cpu0->cpu0_L1D WRITE        ACCESS:  200583770 HIT:  199207180 MISS:    1376590 MSHR_MERGE:     882945
cpu0->cpu0_L1D TRANSLATION  ACCESS:          0 HIT:          0 MISS:          0 MSHR_MERGE:          0
cpu0->cpu0_L1D PREFETCH REQUESTED:          0 ISSUED:          0 USEFUL:          0 USELESS:          0
cpu0->cpu0_L1D AVERAGE MISS LATENCY: 76.98 cycles
cpu0->cpu0_ITLB TOTAL        ACCESS:    2722977 HIT:    2722976 MISS:          1 MSHR_MERGE:          0
cpu0->cpu0_ITLB LOAD         ACCESS:    2722977 HIT:    2722976 MISS:          1 MSHR_MERGE:          0
cpu0->cpu0_ITLB RFO          ACCESS:          0 HIT:          0 MISS:          0 MSHR_MERGE:          0
cpu0->cpu0_ITLB PREFETCH     ACCESS:          0 HIT:          0 MISS:          0 MSHR_MERGE:          0
cpu0->cpu0_ITLB WRITE        ACCESS:          0 HIT:          0 MISS:          0 MSHR_MERGE:          0
cpu0->cpu0_ITLB TRANSLATION  ACCESS:          0 HIT:          0 MISS:          0 MSHR_MERGE:          0
cpu0->cpu0_ITLB PREFETCH REQUESTED:          0 ISSUED:          0 USEFUL:          0 USELESS:          0
cpu0->cpu0_ITLB AVERAGE MISS LATENCY: 1.722e+04 cycles
cpu0->cpu0_DTLB TOTAL        ACCESS:  704834832 HIT:  699160876 MISS:    5673956 MSHR_MERGE:     423780
cpu0->cpu0_DTLB LOAD         ACCESS:  704834832 HIT:  699160876 MISS:    5673956 MSHR_MERGE:     423780
cpu0->cpu0_DTLB RFO          ACCESS:          0 HIT:          0 MISS:          0 MSHR_MERGE:          0
cpu0->cpu0_DTLB PREFETCH     ACCESS:          0 HIT:          0 MISS:          0 MSHR_MERGE:          0
cpu0->cpu0_DTLB WRITE        ACCESS:          0 HIT:          0 MISS:          0 MSHR_MERGE:          0
cpu0->cpu0_DTLB TRANSLATION  ACCESS:          0 HIT:          0 MISS:          0 MSHR_MERGE:          0
cpu0->cpu0_DTLB PREFETCH REQUESTED:          0 ISSUED:          0 USEFUL:          0 USELESS:          0
cpu0->cpu0_DTLB AVERAGE MISS LATENCY: 6.466 cycles
cpu0->LLC TOTAL        ACCESS:   57571104 HIT:   16528566 MISS:   41042538 MSHR_MERGE:          0
cpu0->LLC LOAD         ACCESS:   53576342 HIT:   12553514 MISS:   41022828 MSHR_MERGE:          0
cpu0->LLC RFO          ACCESS:      60170 HIT:      41694 MISS:      18476 MSHR_MERGE:          0
cpu0->LLC PREFETCH     ACCESS:          0 HIT:          0 MISS:          0 MSHR_MERGE:          0
cpu0->LLC WRITE        ACCESS:    3934592 HIT:    3933358 MISS:       1234 MSHR_MERGE:          0
cpu0->LLC TRANSLATION  ACCESS:          0 HIT:          0 MISS:          0 MSHR_MERGE:          0
cpu0->LLC PREFETCH REQUESTED:          0 ISSUED:          0 USEFUL:          0 USELESS:          0
cpu0->LLC AVERAGE MISS LATENCY: 104.8 cycles

DRAM Statistics

Channel 0 RQ ROW_BUFFER_HIT:     271987
  ROW_BUFFER_MISS:   20249783
  AVG DBUS CONGESTED CYCLE: 9.318
Channel 0 WQ ROW_BUFFER_HIT:     331574
  ROW_BUFFER_MISS:    1236218
  FULL:          0
Channel 0 REFRESHES ISSUED:     316779

Channel 1 RQ ROW_BUFFER_HIT:     271064
  ROW_BUFFER_MISS:   20250190
  AVG DBUS CONGESTED CYCLE: 9.317
Channel 1 WQ ROW_BUFFER_HIT:     331380
  ROW_BUFFER_MISS:    1236470
  FULL:          0
Channel 1 REFRESHES ISSUED:     316779
