[VMEM] WARNING: physical memory size is smaller than virtual memory size.

*** ChampSim Multicore Out-of-Order Simulator ***
Warmup Instructions: 0
Simulation Instructions: 9223372036854775807
Number of CPUs: 1
Page size: 4096

Off-chip DRAM Size: 32 GiB Channels: 2 Width: 32-bit Data Rate: 4807 MT/s
[ERROR_PAGE_MANAGER] Error latency: 173500 
[ERROR_PAGE_MANAGER] Random seed: 54321 (fixed for preload reproducibility)
[ERROR_PAGE_MANAGER] Cycle-based error modeling enabled
[ERROR_PAGE_MANAGER] Errors per interval: 1
[ERROR_PAGE_MANAGER] Error cycle interval: 200000000 cycles

=== ERROR PAGE STATISTICS ===
Mode: CYCLE
Error Cycle Interval: 200000000 CPU cycles
Total Error Accesses: 0
==============================
Warmup finished CPU 0 instructions: 0 cycles: 1 cumulative IPC: 0 (Simulation time: 00 hr 00 min 01 sec)
Warmup complete CPU 0 instructions: 0 cycles: 1 cumulative IPC: 0 (Simulation time: 00 hr 00 min 01 sec)
Heartbeat CPU 0 instructions: 10000001 cycles: 15855523 heartbeat IPC: 0.6307 cumulative IPC: 0.6307 (Simulation time: 00 hr 01 min 59 sec)
Heartbeat CPU 0 instructions: 20000004 cycles: 31664391 heartbeat IPC: 0.6326 cumulative IPC: 0.6316 (Simulation time: 00 hr 04 min 15 sec)
Heartbeat CPU 0 instructions: 30000005 cycles: 47452987 heartbeat IPC: 0.6334 cumulative IPC: 0.6322 (Simulation time: 00 hr 06 min 32 sec)
Heartbeat CPU 0 instructions: 40000008 cycles: 63254407 heartbeat IPC: 0.6329 cumulative IPC: 0.6324 (Simulation time: 00 hr 08 min 51 sec)
Heartbeat CPU 0 instructions: 50000010 cycles: 79043485 heartbeat IPC: 0.6333 cumulative IPC: 0.6326 (Simulation time: 00 hr 11 min 10 sec)
Heartbeat CPU 0 instructions: 60000010 cycles: 94831504 heartbeat IPC: 0.6334 cumulative IPC: 0.6327 (Simulation time: 00 hr 13 min 20 sec)
Heartbeat CPU 0 instructions: 70000011 cycles: 110606188 heartbeat IPC: 0.6339 cumulative IPC: 0.6329 (Simulation time: 00 hr 15 min 26 sec)
Heartbeat CPU 0 instructions: 80000015 cycles: 126348005 heartbeat IPC: 0.6353 cumulative IPC: 0.6332 (Simulation time: 00 hr 17 min 47 sec)
Heartbeat CPU 0 instructions: 90000016 cycles: 142142248 heartbeat IPC: 0.6331 cumulative IPC: 0.6332 (Simulation time: 00 hr 20 min 08 sec)
[ERROR_CYCLE] Error added at CPU cycle 142556113, next at 183066125, pending count: 1
[DRAM_CYCLE_ERROR] Cycle-based error applied! address=0x144a7a9f8 additional_latency=173500 cycles
Heartbeat CPU 0 instructions: 100000016 cycles: 157929101 heartbeat IPC: 0.6334 cumulative IPC: 0.6332 (Simulation time: 00 hr 22 min 28 sec)
Heartbeat CPU 0 instructions: 110000016 cycles: 173688184 heartbeat IPC: 0.6346 cumulative IPC: 0.6333 (Simulation time: 00 hr 24 min 48 sec)
[ERROR_CYCLE] Error added at CPU cycle 183066126, next at 513921280, pending count: 1
[DRAM_CYCLE_ERROR] Cycle-based error applied! address=0x24ea2a440 additional_latency=173500 cycles
Heartbeat CPU 0 instructions: 120000016 cycles: 189479504 heartbeat IPC: 0.6333 cumulative IPC: 0.6333 (Simulation time: 00 hr 27 min 01 sec)
Heartbeat CPU 0 instructions: 130000016 cycles: 205296673 heartbeat IPC: 0.6322 cumulative IPC: 0.6332 (Simulation time: 00 hr 29 min 06 sec)
Heartbeat CPU 0 instructions: 140000016 cycles: 221053131 heartbeat IPC: 0.6347 cumulative IPC: 0.6333 (Simulation time: 00 hr 31 min 19 sec)
Heartbeat CPU 0 instructions: 150000019 cycles: 236828469 heartbeat IPC: 0.6339 cumulative IPC: 0.6334 (Simulation time: 00 hr 33 min 31 sec)
Heartbeat CPU 0 instructions: 160000019 cycles: 252592159 heartbeat IPC: 0.6344 cumulative IPC: 0.6334 (Simulation time: 00 hr 35 min 27 sec)
Heartbeat CPU 0 instructions: 170000021 cycles: 268348646 heartbeat IPC: 0.6347 cumulative IPC: 0.6335 (Simulation time: 00 hr 37 min 32 sec)
Heartbeat CPU 0 instructions: 180000022 cycles: 284116538 heartbeat IPC: 0.6342 cumulative IPC: 0.6335 (Simulation time: 00 hr 39 min 52 sec)
Heartbeat CPU 0 instructions: 190000023 cycles: 299908184 heartbeat IPC: 0.6332 cumulative IPC: 0.6335 (Simulation time: 00 hr 42 min 12 sec)
Heartbeat CPU 0 instructions: 200000024 cycles: 315655454 heartbeat IPC: 0.635 cumulative IPC: 0.6336 (Simulation time: 00 hr 44 min 31 sec)
Heartbeat CPU 0 instructions: 210000024 cycles: 331419665 heartbeat IPC: 0.6343 cumulative IPC: 0.6336 (Simulation time: 00 hr 46 min 51 sec)
Heartbeat CPU 0 instructions: 220000024 cycles: 347195888 heartbeat IPC: 0.6339 cumulative IPC: 0.6336 (Simulation time: 00 hr 49 min 05 sec)
Heartbeat CPU 0 instructions: 230000024 cycles: 362965921 heartbeat IPC: 0.6341 cumulative IPC: 0.6337 (Simulation time: 00 hr 51 min 28 sec)
Heartbeat CPU 0 instructions: 240000024 cycles: 378756717 heartbeat IPC: 0.6333 cumulative IPC: 0.6337 (Simulation time: 00 hr 53 min 51 sec)
Heartbeat CPU 0 instructions: 250000024 cycles: 394542653 heartbeat IPC: 0.6335 cumulative IPC: 0.6336 (Simulation time: 00 hr 56 min 09 sec)
Heartbeat CPU 0 instructions: 260000025 cycles: 410319946 heartbeat IPC: 0.6338 cumulative IPC: 0.6337 (Simulation time: 00 hr 58 min 19 sec)
Heartbeat CPU 0 instructions: 270000025 cycles: 426105928 heartbeat IPC: 0.6335 cumulative IPC: 0.6336 (Simulation time: 01 hr 00 min 18 sec)
Heartbeat CPU 0 instructions: 280000025 cycles: 457723160 heartbeat IPC: 0.3163 cumulative IPC: 0.6117 (Simulation time: 01 hr 03 min 55 sec)
Heartbeat CPU 0 instructions: 290000027 cycles: 489210247 heartbeat IPC: 0.3176 cumulative IPC: 0.5928 (Simulation time: 01 hr 08 min 37 sec)
Heartbeat CPU 0 instructions: 300000029 cycles: 505616307 heartbeat IPC: 0.6095 cumulative IPC: 0.5933 (Simulation time: 01 hr 11 min 04 sec)
[ERROR_CYCLE] Error added at CPU cycle 513921281, next at 1069353794, pending count: 1
[DRAM_CYCLE_ERROR] Cycle-based error applied! address=0x19e2820c0 additional_latency=173500 cycles
Heartbeat CPU 0 instructions: 310000029 cycles: 521325850 heartbeat IPC: 0.6366 cumulative IPC: 0.5946 (Simulation time: 01 hr 13 min 26 sec)
Heartbeat CPU 0 instructions: 320000032 cycles: 537045772 heartbeat IPC: 0.6361 cumulative IPC: 0.5959 (Simulation time: 01 hr 15 min 23 sec)
Heartbeat CPU 0 instructions: 330000032 cycles: 551886055 heartbeat IPC: 0.6738 cumulative IPC: 0.5979 (Simulation time: 01 hr 17 min 14 sec)
Heartbeat CPU 0 instructions: 340000036 cycles: 564894647 heartbeat IPC: 0.7687 cumulative IPC: 0.6019 (Simulation time: 01 hr 19 min 08 sec)
Heartbeat CPU 0 instructions: 350000037 cycles: 577887589 heartbeat IPC: 0.7696 cumulative IPC: 0.6057 (Simulation time: 01 hr 21 min 00 sec)
Heartbeat CPU 0 instructions: 360000041 cycles: 590899143 heartbeat IPC: 0.7685 cumulative IPC: 0.6092 (Simulation time: 01 hr 22 min 56 sec)
Heartbeat CPU 0 instructions: 370000044 cycles: 603907860 heartbeat IPC: 0.7687 cumulative IPC: 0.6127 (Simulation time: 01 hr 24 min 37 sec)
Heartbeat CPU 0 instructions: 380000048 cycles: 616902606 heartbeat IPC: 0.7695 cumulative IPC: 0.616 (Simulation time: 01 hr 26 min 39 sec)
Heartbeat CPU 0 instructions: 390000049 cycles: 629879010 heartbeat IPC: 0.7706 cumulative IPC: 0.6192 (Simulation time: 01 hr 28 min 40 sec)
Heartbeat CPU 0 instructions: 400000053 cycles: 642867613 heartbeat IPC: 0.7699 cumulative IPC: 0.6222 (Simulation time: 01 hr 30 min 42 sec)
Heartbeat CPU 0 instructions: 410000056 cycles: 655865755 heartbeat IPC: 0.7693 cumulative IPC: 0.6251 (Simulation time: 01 hr 32 min 43 sec)
Heartbeat CPU 0 instructions: 420000056 cycles: 668852537 heartbeat IPC: 0.77 cumulative IPC: 0.6279 (Simulation time: 01 hr 34 min 25 sec)
Heartbeat CPU 0 instructions: 430000059 cycles: 681846624 heartbeat IPC: 0.7696 cumulative IPC: 0.6306 (Simulation time: 01 hr 36 min 16 sec)
Heartbeat CPU 0 instructions: 440000062 cycles: 694857685 heartbeat IPC: 0.7686 cumulative IPC: 0.6332 (Simulation time: 01 hr 38 min 00 sec)
Heartbeat CPU 0 instructions: 450000066 cycles: 707854583 heartbeat IPC: 0.7694 cumulative IPC: 0.6357 (Simulation time: 01 hr 39 min 44 sec)
Heartbeat CPU 0 instructions: 460000067 cycles: 720840215 heartbeat IPC: 0.7701 cumulative IPC: 0.6381 (Simulation time: 01 hr 41 min 22 sec)
Heartbeat CPU 0 instructions: 470000068 cycles: 733825778 heartbeat IPC: 0.7701 cumulative IPC: 0.6405 (Simulation time: 01 hr 43 min 23 sec)
Heartbeat CPU 0 instructions: 480000069 cycles: 746800264 heartbeat IPC: 0.7707 cumulative IPC: 0.6427 (Simulation time: 01 hr 45 min 24 sec)
Heartbeat CPU 0 instructions: 490000071 cycles: 759776380 heartbeat IPC: 0.7706 cumulative IPC: 0.6449 (Simulation time: 01 hr 47 min 12 sec)
Heartbeat CPU 0 instructions: 500000074 cycles: 772775926 heartbeat IPC: 0.7693 cumulative IPC: 0.647 (Simulation time: 01 hr 48 min 44 sec)
Heartbeat CPU 0 instructions: 510000078 cycles: 785784000 heartbeat IPC: 0.7688 cumulative IPC: 0.649 (Simulation time: 01 hr 50 min 40 sec)
Heartbeat CPU 0 instructions: 520000082 cycles: 798776448 heartbeat IPC: 0.7697 cumulative IPC: 0.651 (Simulation time: 01 hr 52 min 44 sec)
Heartbeat CPU 0 instructions: 530000082 cycles: 811770903 heartbeat IPC: 0.7696 cumulative IPC: 0.6529 (Simulation time: 01 hr 54 min 48 sec)
Heartbeat CPU 0 instructions: 540000083 cycles: 824770108 heartbeat IPC: 0.7693 cumulative IPC: 0.6547 (Simulation time: 01 hr 56 min 51 sec)
Heartbeat CPU 0 instructions: 550000084 cycles: 837764497 heartbeat IPC: 0.7696 cumulative IPC: 0.6565 (Simulation time: 01 hr 58 min 55 sec)
Heartbeat CPU 0 instructions: 560000088 cycles: 850749728 heartbeat IPC: 0.7701 cumulative IPC: 0.6582 (Simulation time: 02 hr 00 min 58 sec)
Heartbeat CPU 0 instructions: 570000088 cycles: 863752322 heartbeat IPC: 0.7691 cumulative IPC: 0.6599 (Simulation time: 02 hr 03 min 02 sec)
Heartbeat CPU 0 instructions: 580000091 cycles: 876741973 heartbeat IPC: 0.7698 cumulative IPC: 0.6615 (Simulation time: 02 hr 05 min 06 sec)
Heartbeat CPU 0 instructions: 590000092 cycles: 889753021 heartbeat IPC: 0.7686 cumulative IPC: 0.6631 (Simulation time: 02 hr 07 min 03 sec)
Heartbeat CPU 0 instructions: 600000092 cycles: 902761526 heartbeat IPC: 0.7687 cumulative IPC: 0.6646 (Simulation time: 02 hr 09 min 01 sec)
Heartbeat CPU 0 instructions: 610000092 cycles: 915343061 heartbeat IPC: 0.7948 cumulative IPC: 0.6664 (Simulation time: 02 hr 10 min 51 sec)
Heartbeat CPU 0 instructions: 620000092 cycles: 926930567 heartbeat IPC: 0.863 cumulative IPC: 0.6689 (Simulation time: 02 hr 12 min 43 sec)
Heartbeat CPU 0 instructions: 630000096 cycles: 938517470 heartbeat IPC: 0.863 cumulative IPC: 0.6713 (Simulation time: 02 hr 14 min 23 sec)
Heartbeat CPU 0 instructions: 640000096 cycles: 950082462 heartbeat IPC: 0.8647 cumulative IPC: 0.6736 (Simulation time: 02 hr 16 min 02 sec)
Heartbeat CPU 0 instructions: 650000096 cycles: 961672675 heartbeat IPC: 0.8628 cumulative IPC: 0.6759 (Simulation time: 02 hr 17 min 49 sec)
Heartbeat CPU 0 instructions: 660000097 cycles: 973241234 heartbeat IPC: 0.8644 cumulative IPC: 0.6781 (Simulation time: 02 hr 19 min 37 sec)
Heartbeat CPU 0 instructions: 670000097 cycles: 984832775 heartbeat IPC: 0.8627 cumulative IPC: 0.6803 (Simulation time: 02 hr 21 min 30 sec)
Heartbeat CPU 0 instructions: 680000100 cycles: 996545502 heartbeat IPC: 0.8538 cumulative IPC: 0.6824 (Simulation time: 02 hr 23 min 24 sec)
Heartbeat CPU 0 instructions: 690000100 cycles: 1008511280 heartbeat IPC: 0.8357 cumulative IPC: 0.6842 (Simulation time: 02 hr 25 min 18 sec)
Heartbeat CPU 0 instructions: 700000104 cycles: 1019767935 heartbeat IPC: 0.8884 cumulative IPC: 0.6864 (Simulation time: 02 hr 27 min 07 sec)
Heartbeat CPU 0 instructions: 710000107 cycles: 1031037228 heartbeat IPC: 0.8874 cumulative IPC: 0.6886 (Simulation time: 02 hr 28 min 55 sec)
Heartbeat CPU 0 instructions: 720000111 cycles: 1042326802 heartbeat IPC: 0.8858 cumulative IPC: 0.6908 (Simulation time: 02 hr 30 min 44 sec)
Heartbeat CPU 0 instructions: 730000111 cycles: 1053611635 heartbeat IPC: 0.8861 cumulative IPC: 0.6929 (Simulation time: 02 hr 32 min 15 sec)
Heartbeat CPU 0 instructions: 740000113 cycles: 1064849896 heartbeat IPC: 0.8898 cumulative IPC: 0.6949 (Simulation time: 02 hr 33 min 52 sec)
[ERROR_CYCLE] Error added at CPU cycle 1069353795, next at 1075364498, pending count: 1
[DRAM_CYCLE_ERROR] Cycle-based error applied! address=0x1c399cf40 additional_latency=173500 cycles
[ERROR_CYCLE] Error added at CPU cycle 1075364499, next at 1382772839, pending count: 1
[DRAM_CYCLE_ERROR] Cycle-based error applied! address=0xb5f7f640 additional_latency=173500 cycles
Heartbeat CPU 0 instructions: 750000113 cycles: 1076127804 heartbeat IPC: 0.8867 cumulative IPC: 0.6969 (Simulation time: 02 hr 35 min 26 sec)
Heartbeat CPU 0 instructions: 760000115 cycles: 1087428073 heartbeat IPC: 0.8849 cumulative IPC: 0.6989 (Simulation time: 02 hr 37 min 12 sec)
Heartbeat CPU 0 instructions: 770000116 cycles: 1098830390 heartbeat IPC: 0.877 cumulative IPC: 0.7007 (Simulation time: 02 hr 39 min 00 sec)
Heartbeat CPU 0 instructions: 780000116 cycles: 1111479842 heartbeat IPC: 0.7905 cumulative IPC: 0.7018 (Simulation time: 02 hr 40 min 58 sec)
Heartbeat CPU 0 instructions: 790000118 cycles: 1124137815 heartbeat IPC: 0.79 cumulative IPC: 0.7028 (Simulation time: 02 hr 42 min 55 sec)
Heartbeat CPU 0 instructions: 800000119 cycles: 1136712321 heartbeat IPC: 0.7953 cumulative IPC: 0.7038 (Simulation time: 02 hr 44 min 54 sec)
Heartbeat CPU 0 instructions: 810000121 cycles: 1149295548 heartbeat IPC: 0.7947 cumulative IPC: 0.7048 (Simulation time: 02 hr 46 min 55 sec)
Heartbeat CPU 0 instructions: 820000121 cycles: 1161453927 heartbeat IPC: 0.8225 cumulative IPC: 0.706 (Simulation time: 02 hr 48 min 52 sec)
Heartbeat CPU 0 instructions: 830000125 cycles: 1173540395 heartbeat IPC: 0.8274 cumulative IPC: 0.7073 (Simulation time: 02 hr 50 min 49 sec)
Heartbeat CPU 0 instructions: 840000127 cycles: 1185638122 heartbeat IPC: 0.8266 cumulative IPC: 0.7085 (Simulation time: 02 hr 52 min 46 sec)
Heartbeat CPU 0 instructions: 850000127 cycles: 1197725372 heartbeat IPC: 0.8273 cumulative IPC: 0.7097 (Simulation time: 02 hr 54 min 43 sec)
Heartbeat CPU 0 instructions: 860000127 cycles: 1210084158 heartbeat IPC: 0.8091 cumulative IPC: 0.7107 (Simulation time: 02 hr 56 min 41 sec)
Heartbeat CPU 0 instructions: 870000130 cycles: 1222627167 heartbeat IPC: 0.7973 cumulative IPC: 0.7116 (Simulation time: 02 hr 58 min 42 sec)
Heartbeat CPU 0 instructions: 880000133 cycles: 1235181410 heartbeat IPC: 0.7965 cumulative IPC: 0.7124 (Simulation time: 03 hr 00 min 42 sec)
Heartbeat CPU 0 instructions: 890000135 cycles: 1247740035 heartbeat IPC: 0.7963 cumulative IPC: 0.7133 (Simulation time: 03 hr 02 min 43 sec)
Heartbeat CPU 0 instructions: 900000136 cycles: 1260194041 heartbeat IPC: 0.803 cumulative IPC: 0.7142 (Simulation time: 03 hr 04 min 43 sec)
Heartbeat CPU 0 instructions: 910000136 cycles: 1272394950 heartbeat IPC: 0.8196 cumulative IPC: 0.7152 (Simulation time: 03 hr 06 min 41 sec)
Heartbeat CPU 0 instructions: 920000138 cycles: 1284560153 heartbeat IPC: 0.822 cumulative IPC: 0.7162 (Simulation time: 03 hr 08 min 39 sec)
Heartbeat CPU 0 instructions: 930000141 cycles: 1296634633 heartbeat IPC: 0.8282 cumulative IPC: 0.7172 (Simulation time: 03 hr 10 min 36 sec)
Heartbeat CPU 0 instructions: 940000143 cycles: 1308731352 heartbeat IPC: 0.8267 cumulative IPC: 0.7183 (Simulation time: 03 hr 12 min 33 sec)
Heartbeat CPU 0 instructions: 950000146 cycles: 1321378258 heartbeat IPC: 0.7907 cumulative IPC: 0.7189 (Simulation time: 03 hr 14 min 34 sec)
Heartbeat CPU 0 instructions: 960000148 cycles: 1333999376 heartbeat IPC: 0.7923 cumulative IPC: 0.7196 (Simulation time: 03 hr 16 min 35 sec)
Heartbeat CPU 0 instructions: 970000149 cycles: 1346566571 heartbeat IPC: 0.7957 cumulative IPC: 0.7204 (Simulation time: 03 hr 18 min 36 sec)
Heartbeat CPU 0 instructions: 980000151 cycles: 1359138369 heartbeat IPC: 0.7954 cumulative IPC: 0.721 (Simulation time: 03 hr 20 min 36 sec)
Heartbeat CPU 0 instructions: 990000155 cycles: 1371349567 heartbeat IPC: 0.8189 cumulative IPC: 0.7219 (Simulation time: 03 hr 22 min 35 sec)
[ERROR_CYCLE] Error added at CPU cycle 1382772839, next at 1418568864, pending count: 1
[DRAM_CYCLE_ERROR] Cycle-based error applied! address=0x262cea40 additional_latency=173500 cycles
Heartbeat CPU 0 instructions: 1000000155 cycles: 1383471449 heartbeat IPC: 0.825 cumulative IPC: 0.7228 (Simulation time: 03 hr 24 min 33 sec)
Heartbeat CPU 0 instructions: 1010000155 cycles: 1395601514 heartbeat IPC: 0.8244 cumulative IPC: 0.7237 (Simulation time: 03 hr 26 min 00 sec)
Heartbeat CPU 0 instructions: 1020000158 cycles: 1407703304 heartbeat IPC: 0.8263 cumulative IPC: 0.7246 (Simulation time: 03 hr 27 min 45 sec)
[ERROR_CYCLE] Error added at CPU cycle 1418568864, next at 1532348430, pending count: 1
[DRAM_CYCLE_ERROR] Cycle-based error applied! address=0x3f8c60700 additional_latency=173500 cycles
Heartbeat CPU 0 instructions: 1030000158 cycles: 1421711270 heartbeat IPC: 0.7139 cumulative IPC: 0.7245 (Simulation time: 03 hr 29 min 18 sec)
Heartbeat CPU 0 instructions: 1040000158 cycles: 1434323293 heartbeat IPC: 0.7929 cumulative IPC: 0.7251 (Simulation time: 03 hr 31 min 17 sec)
Heartbeat CPU 0 instructions: 1050000160 cycles: 1446557778 heartbeat IPC: 0.8174 cumulative IPC: 0.7259 (Simulation time: 03 hr 32 min 44 sec)
Heartbeat CPU 0 instructions: 1060000163 cycles: 1458834962 heartbeat IPC: 0.8145 cumulative IPC: 0.7266 (Simulation time: 03 hr 34 min 42 sec)
Heartbeat CPU 0 instructions: 1070000164 cycles: 1471091134 heartbeat IPC: 0.8159 cumulative IPC: 0.7274 (Simulation time: 03 hr 36 min 42 sec)
Heartbeat CPU 0 instructions: 1080000166 cycles: 1483179697 heartbeat IPC: 0.8272 cumulative IPC: 0.7282 (Simulation time: 03 hr 38 min 41 sec)
Heartbeat CPU 0 instructions: 1090000166 cycles: 1495111095 heartbeat IPC: 0.8381 cumulative IPC: 0.729 (Simulation time: 03 hr 40 min 41 sec)
Heartbeat CPU 0 instructions: 1100000166 cycles: 1507021184 heartbeat IPC: 0.8396 cumulative IPC: 0.7299 (Simulation time: 03 hr 42 min 39 sec)
Heartbeat CPU 0 instructions: 1110000168 cycles: 1518837475 heartbeat IPC: 0.8463 cumulative IPC: 0.7308 (Simulation time: 03 hr 44 min 36 sec)
Heartbeat CPU 0 instructions: 1120000170 cycles: 1530691399 heartbeat IPC: 0.8436 cumulative IPC: 0.7317 (Simulation time: 03 hr 46 min 34 sec)
[ERROR_CYCLE] Error added at CPU cycle 1532348430, next at 1703137205, pending count: 1
[DRAM_CYCLE_ERROR] Cycle-based error applied! address=0xa2f22a00 additional_latency=173500 cycles
Heartbeat CPU 0 instructions: 1130000170 cycles: 1543003708 heartbeat IPC: 0.8122 cumulative IPC: 0.7323 (Simulation time: 03 hr 48 min 35 sec)
Heartbeat CPU 0 instructions: 1140000173 cycles: 1555303033 heartbeat IPC: 0.8131 cumulative IPC: 0.733 (Simulation time: 03 hr 50 min 36 sec)
Heartbeat CPU 0 instructions: 1150000175 cycles: 1567596433 heartbeat IPC: 0.8134 cumulative IPC: 0.7336 (Simulation time: 03 hr 52 min 37 sec)
Heartbeat CPU 0 instructions: 1160000177 cycles: 1579839023 heartbeat IPC: 0.8168 cumulative IPC: 0.7343 (Simulation time: 03 hr 54 min 37 sec)
Heartbeat CPU 0 instructions: 1170000179 cycles: 1591770868 heartbeat IPC: 0.8381 cumulative IPC: 0.735 (Simulation time: 03 hr 56 min 12 sec)
Heartbeat CPU 0 instructions: 1180000179 cycles: 1603594732 heartbeat IPC: 0.8457 cumulative IPC: 0.7358 (Simulation time: 03 hr 57 min 59 sec)
Heartbeat CPU 0 instructions: 1190000180 cycles: 1615447108 heartbeat IPC: 0.8437 cumulative IPC: 0.7366 (Simulation time: 03 hr 59 min 53 sec)
Heartbeat CPU 0 instructions: 1200000181 cycles: 1627272927 heartbeat IPC: 0.8456 cumulative IPC: 0.7374 (Simulation time: 04 hr 01 min 46 sec)
Heartbeat CPU 0 instructions: 1210000183 cycles: 1639231281 heartbeat IPC: 0.8362 cumulative IPC: 0.7382 (Simulation time: 04 hr 03 min 42 sec)
Heartbeat CPU 0 instructions: 1220000183 cycles: 1651456306 heartbeat IPC: 0.818 cumulative IPC: 0.7387 (Simulation time: 04 hr 05 min 41 sec)
Heartbeat CPU 0 instructions: 1230000183 cycles: 1663696743 heartbeat IPC: 0.817 cumulative IPC: 0.7393 (Simulation time: 04 hr 07 min 34 sec)
Heartbeat CPU 0 instructions: 1240000183 cycles: 1675938227 heartbeat IPC: 0.8169 cumulative IPC: 0.7399 (Simulation time: 04 hr 09 min 33 sec)
Heartbeat CPU 0 instructions: 1250000185 cycles: 1688204857 heartbeat IPC: 0.8152 cumulative IPC: 0.7404 (Simulation time: 04 hr 11 min 32 sec)
Heartbeat CPU 0 instructions: 1260000186 cycles: 1700168355 heartbeat IPC: 0.8359 cumulative IPC: 0.7411 (Simulation time: 04 hr 13 min 29 sec)
[ERROR_CYCLE] Error added at CPU cycle 1703137205, next at 1752067520, pending count: 1
[DRAM_CYCLE_ERROR] Cycle-based error applied! address=0x566187880 additional_latency=173500 cycles
Heartbeat CPU 0 instructions: 1270000189 cycles: 1712105223 heartbeat IPC: 0.8377 cumulative IPC: 0.7418 (Simulation time: 04 hr 15 min 25 sec)
Heartbeat CPU 0 instructions: 1280000189 cycles: 1723926451 heartbeat IPC: 0.8459 cumulative IPC: 0.7425 (Simulation time: 04 hr 17 min 21 sec)
Heartbeat CPU 0 instructions: 1290000192 cycles: 1735713984 heartbeat IPC: 0.8484 cumulative IPC: 0.7432 (Simulation time: 04 hr 19 min 16 sec)
[ERROR_CYCLE] Error added at CPU cycle 1752067521, next at 2107259108, pending count: 1
[DRAM_CYCLE_ERROR] Cycle-based error applied! address=0x4a817ae8 additional_latency=173500 cycles
Heartbeat CPU 0 instructions: 1300000192 cycles: 1795831806 heartbeat IPC: 0.1663 cumulative IPC: 0.7239 (Simulation time: 04 hr 27 min 00 sec)
Heartbeat CPU 0 instructions: 1310000196 cycles: 1808792194 heartbeat IPC: 0.7716 cumulative IPC: 0.7242 (Simulation time: 04 hr 28 min 55 sec)
Heartbeat CPU 0 instructions: 1320000200 cycles: 1821005600 heartbeat IPC: 0.8188 cumulative IPC: 0.7249 (Simulation time: 04 hr 30 min 23 sec)
Heartbeat CPU 0 instructions: 1330000204 cycles: 1833218068 heartbeat IPC: 0.8188 cumulative IPC: 0.7255 (Simulation time: 04 hr 31 min 39 sec)
Heartbeat CPU 0 instructions: 1340000204 cycles: 1845438426 heartbeat IPC: 0.8183 cumulative IPC: 0.7261 (Simulation time: 04 hr 32 min 58 sec)
Heartbeat CPU 0 instructions: 1350000205 cycles: 1857683416 heartbeat IPC: 0.8167 cumulative IPC: 0.7267 (Simulation time: 04 hr 34 min 40 sec)
Heartbeat CPU 0 instructions: 1360000207 cycles: 1869697276 heartbeat IPC: 0.8324 cumulative IPC: 0.7274 (Simulation time: 04 hr 36 min 27 sec)
Heartbeat CPU 0 instructions: 1370000207 cycles: 1881554429 heartbeat IPC: 0.8434 cumulative IPC: 0.7281 (Simulation time: 04 hr 38 min 13 sec)
Heartbeat CPU 0 instructions: 1380000208 cycles: 1893708189 heartbeat IPC: 0.8228 cumulative IPC: 0.7287 (Simulation time: 04 hr 39 min 41 sec)
Heartbeat CPU 0 instructions: 1390000210 cycles: 1905886480 heartbeat IPC: 0.8211 cumulative IPC: 0.7293 (Simulation time: 04 hr 40 min 58 sec)
Heartbeat CPU 0 instructions: 1400000211 cycles: 1917986583 heartbeat IPC: 0.8264 cumulative IPC: 0.7299 (Simulation time: 04 hr 42 min 40 sec)
Heartbeat CPU 0 instructions: 1410000215 cycles: 1930404788 heartbeat IPC: 0.8053 cumulative IPC: 0.7304 (Simulation time: 04 hr 44 min 33 sec)
Heartbeat CPU 0 instructions: 1420000217 cycles: 1943117201 heartbeat IPC: 0.7866 cumulative IPC: 0.7308 (Simulation time: 04 hr 46 min 28 sec)
Heartbeat CPU 0 instructions: 1430000219 cycles: 1955692811 heartbeat IPC: 0.7952 cumulative IPC: 0.7312 (Simulation time: 04 hr 48 min 22 sec)
Heartbeat CPU 0 instructions: 1440000219 cycles: 1968205399 heartbeat IPC: 0.7992 cumulative IPC: 0.7316 (Simulation time: 04 hr 50 min 15 sec)
Heartbeat CPU 0 instructions: 1450000223 cycles: 1980420864 heartbeat IPC: 0.8186 cumulative IPC: 0.7322 (Simulation time: 04 hr 51 min 54 sec)
Heartbeat CPU 0 instructions: 1460000227 cycles: 1992644790 heartbeat IPC: 0.8181 cumulative IPC: 0.7327 (Simulation time: 04 hr 53 min 31 sec)
Heartbeat CPU 0 instructions: 1470000230 cycles: 2004851411 heartbeat IPC: 0.8192 cumulative IPC: 0.7332 (Simulation time: 04 hr 55 min 21 sec)
Heartbeat CPU 0 instructions: 1480000233 cycles: 2017095321 heartbeat IPC: 0.8167 cumulative IPC: 0.7337 (Simulation time: 04 hr 57 min 00 sec)
Heartbeat CPU 0 instructions: 1490000235 cycles: 2029277510 heartbeat IPC: 0.8209 cumulative IPC: 0.7343 (Simulation time: 04 hr 58 min 45 sec)
Heartbeat CPU 0 instructions: 1500000235 cycles: 2041125229 heartbeat IPC: 0.844 cumulative IPC: 0.7349 (Simulation time: 05 hr 00 min 17 sec)
Heartbeat CPU 0 instructions: 1510000236 cycles: 2053146505 heartbeat IPC: 0.8319 cumulative IPC: 0.7355 (Simulation time: 05 hr 02 min 06 sec)
Heartbeat CPU 0 instructions: 1520000239 cycles: 2065337582 heartbeat IPC: 0.8203 cumulative IPC: 0.736 (Simulation time: 05 hr 03 min 44 sec)
Heartbeat CPU 0 instructions: 1530000243 cycles: 2077458129 heartbeat IPC: 0.825 cumulative IPC: 0.7365 (Simulation time: 05 hr 05 min 20 sec)
Heartbeat CPU 0 instructions: 1540000246 cycles: 2089653673 heartbeat IPC: 0.82 cumulative IPC: 0.737 (Simulation time: 05 hr 06 min 45 sec)
Heartbeat CPU 0 instructions: 1550000246 cycles: 2102364372 heartbeat IPC: 0.7867 cumulative IPC: 0.7373 (Simulation time: 05 hr 08 min 08 sec)
[ERROR_CYCLE] Error added at CPU cycle 2107259108, next at 2178462766, pending count: 1
[DRAM_CYCLE_ERROR] Cycle-based error applied! address=0x390492c0 additional_latency=173500 cycles
Heartbeat CPU 0 instructions: 1560000247 cycles: 2115003895 heartbeat IPC: 0.7912 cumulative IPC: 0.7376 (Simulation time: 05 hr 09 min 39 sec)
Heartbeat CPU 0 instructions: 1570000250 cycles: 2127537204 heartbeat IPC: 0.7979 cumulative IPC: 0.7379 (Simulation time: 05 hr 11 min 29 sec)
Heartbeat CPU 0 instructions: 1580000251 cycles: 2139810191 heartbeat IPC: 0.8148 cumulative IPC: 0.7384 (Simulation time: 05 hr 13 min 02 sec)
Heartbeat CPU 0 instructions: 1590000254 cycles: 2152032649 heartbeat IPC: 0.8182 cumulative IPC: 0.7388 (Simulation time: 05 hr 14 min 40 sec)
Heartbeat CPU 0 instructions: 1600000256 cycles: 2164243217 heartbeat IPC: 0.819 cumulative IPC: 0.7393 (Simulation time: 05 hr 16 min 19 sec)
Heartbeat CPU 0 instructions: 1610000257 cycles: 2176465736 heartbeat IPC: 0.8182 cumulative IPC: 0.7397 (Simulation time: 05 hr 17 min 31 sec)
[ERROR_CYCLE] Error added at CPU cycle 2178462767, next at 2267979990, pending count: 1
[DRAM_CYCLE_ERROR] Cycle-based error applied! address=0x59a27fec0 additional_latency=173500 cycles
Heartbeat CPU 0 instructions: 1620000258 cycles: 2188729848 heartbeat IPC: 0.8154 cumulative IPC: 0.7402 (Simulation time: 05 hr 18 min 43 sec)
Heartbeat CPU 0 instructions: 1630000258 cycles: 2200652365 heartbeat IPC: 0.8387 cumulative IPC: 0.7407 (Simulation time: 05 hr 19 min 54 sec)
Heartbeat CPU 0 instructions: 1640000259 cycles: 2212543349 heartbeat IPC: 0.841 cumulative IPC: 0.7412 (Simulation time: 05 hr 21 min 14 sec)
Heartbeat CPU 0 instructions: 1650000262 cycles: 2224721017 heartbeat IPC: 0.8212 cumulative IPC: 0.7417 (Simulation time: 05 hr 23 min 03 sec)
Heartbeat CPU 0 instructions: 1660000262 cycles: 2236867714 heartbeat IPC: 0.8233 cumulative IPC: 0.7421 (Simulation time: 05 hr 24 min 50 sec)
Heartbeat CPU 0 instructions: 1670000263 cycles: 2248974519 heartbeat IPC: 0.826 cumulative IPC: 0.7426 (Simulation time: 05 hr 26 min 40 sec)
Heartbeat CPU 0 instructions: 1680000264 cycles: 2261533529 heartbeat IPC: 0.7962 cumulative IPC: 0.7429 (Simulation time: 05 hr 28 min 34 sec)
[ERROR_CYCLE] Error added at CPU cycle 2267979990, next at 2675036714, pending count: 1
[DRAM_CYCLE_ERROR] Cycle-based error applied! address=0x223b1cdc8 additional_latency=173500 cycles
Heartbeat CPU 0 instructions: 1690000264 cycles: 2274216377 heartbeat IPC: 0.7885 cumulative IPC: 0.7431 (Simulation time: 05 hr 30 min 28 sec)
Heartbeat CPU 0 instructions: 1700000264 cycles: 2286744935 heartbeat IPC: 0.7982 cumulative IPC: 0.7434 (Simulation time: 05 hr 32 min 21 sec)
Heartbeat CPU 0 instructions: 1710000266 cycles: 2299145748 heartbeat IPC: 0.8064 cumulative IPC: 0.7438 (Simulation time: 05 hr 34 min 12 sec)
Heartbeat CPU 0 instructions: 1720000269 cycles: 2311355065 heartbeat IPC: 0.819 cumulative IPC: 0.7442 (Simulation time: 05 hr 36 min 02 sec)
Heartbeat CPU 0 instructions: 1730000269 cycles: 2323566918 heartbeat IPC: 0.8189 cumulative IPC: 0.7445 (Simulation time: 05 hr 37 min 43 sec)
Heartbeat CPU 0 instructions: 1740000270 cycles: 2335788148 heartbeat IPC: 0.8182 cumulative IPC: 0.7449 (Simulation time: 05 hr 39 min 25 sec)
Heartbeat CPU 0 instructions: 1750000272 cycles: 2348029717 heartbeat IPC: 0.8169 cumulative IPC: 0.7453 (Simulation time: 05 hr 41 min 09 sec)
Heartbeat CPU 0 instructions: 1760000276 cycles: 2360120411 heartbeat IPC: 0.8271 cumulative IPC: 0.7457 (Simulation time: 05 hr 42 min 48 sec)
Heartbeat CPU 0 instructions: 1770000276 cycles: 2371943130 heartbeat IPC: 0.8458 cumulative IPC: 0.7462 (Simulation time: 05 hr 44 min 14 sec)
Heartbeat CPU 0 instructions: 1780000279 cycles: 2384020299 heartbeat IPC: 0.828 cumulative IPC: 0.7466 (Simulation time: 05 hr 45 min 34 sec)
Heartbeat CPU 0 instructions: 1790000280 cycles: 2396212543 heartbeat IPC: 0.8202 cumulative IPC: 0.747 (Simulation time: 05 hr 46 min 45 sec)
Heartbeat CPU 0 instructions: 1800000284 cycles: 2408309840 heartbeat IPC: 0.8266 cumulative IPC: 0.7474 (Simulation time: 05 hr 48 min 08 sec)
Heartbeat CPU 0 instructions: 1810000287 cycles: 2420647907 heartbeat IPC: 0.8105 cumulative IPC: 0.7477 (Simulation time: 05 hr 49 min 57 sec)
Heartbeat CPU 0 instructions: 1820000288 cycles: 2433365272 heartbeat IPC: 0.7863 cumulative IPC: 0.7479 (Simulation time: 05 hr 51 min 51 sec)
Heartbeat CPU 0 instructions: 1830000288 cycles: 2445959817 heartbeat IPC: 0.794 cumulative IPC: 0.7482 (Simulation time: 05 hr 53 min 43 sec)
Heartbeat CPU 0 instructions: 1840000289 cycles: 2458492554 heartbeat IPC: 0.7979 cumulative IPC: 0.7484 (Simulation time: 05 hr 55 min 23 sec)
Heartbeat CPU 0 instructions: 1850000291 cycles: 2470721287 heartbeat IPC: 0.8177 cumulative IPC: 0.7488 (Simulation time: 05 hr 57 min 11 sec)
Heartbeat CPU 0 instructions: 1860000291 cycles: 2482949771 heartbeat IPC: 0.8178 cumulative IPC: 0.7491 (Simulation time: 05 hr 58 min 45 sec)
Heartbeat CPU 0 instructions: 1870000291 cycles: 2495160901 heartbeat IPC: 0.8189 cumulative IPC: 0.7495 (Simulation time: 06 hr 00 min 04 sec)
Heartbeat CPU 0 instructions: 1880000295 cycles: 2507398860 heartbeat IPC: 0.8171 cumulative IPC: 0.7498 (Simulation time: 06 hr 01 min 50 sec)
Heartbeat CPU 0 instructions: 1890000295 cycles: 2519646216 heartbeat IPC: 0.8165 cumulative IPC: 0.7501 (Simulation time: 06 hr 03 min 36 sec)
Heartbeat CPU 0 instructions: 1900000298 cycles: 2531477083 heartbeat IPC: 0.8452 cumulative IPC: 0.7506 (Simulation time: 06 hr 05 min 16 sec)
Heartbeat CPU 0 instructions: 1910000299 cycles: 2543434156 heartbeat IPC: 0.8363 cumulative IPC: 0.751 (Simulation time: 06 hr 06 min 42 sec)
Heartbeat CPU 0 instructions: 1920000299 cycles: 2555618945 heartbeat IPC: 0.8207 cumulative IPC: 0.7513 (Simulation time: 06 hr 08 min 32 sec)
Heartbeat CPU 0 instructions: 1930000301 cycles: 2567763172 heartbeat IPC: 0.8234 cumulative IPC: 0.7516 (Simulation time: 06 hr 10 min 21 sec)
Heartbeat CPU 0 instructions: 1940000303 cycles: 2579868085 heartbeat IPC: 0.8261 cumulative IPC: 0.752 (Simulation time: 06 hr 12 min 11 sec)
Heartbeat CPU 0 instructions: 1950000306 cycles: 2592570863 heartbeat IPC: 0.7872 cumulative IPC: 0.7521 (Simulation time: 06 hr 14 min 05 sec)
Heartbeat CPU 0 instructions: 1960000306 cycles: 2605218649 heartbeat IPC: 0.7907 cumulative IPC: 0.7523 (Simulation time: 06 hr 15 min 59 sec)
Heartbeat CPU 0 instructions: 1970000309 cycles: 2617762724 heartbeat IPC: 0.7972 cumulative IPC: 0.7526 (Simulation time: 06 hr 17 min 38 sec)
Heartbeat CPU 0 instructions: 1980000309 cycles: 2630099163 heartbeat IPC: 0.8106 cumulative IPC: 0.7528 (Simulation time: 06 hr 19 min 10 sec)
Heartbeat CPU 0 instructions: 1990000313 cycles: 2642324598 heartbeat IPC: 0.818 cumulative IPC: 0.7531 (Simulation time: 06 hr 20 min 56 sec)

=== ERROR PAGE STATISTICS ===
Mode: CYCLE
Error Cycle Interval: 200000000 CPU cycles
Total Error Accesses: 13
==============================
Simulation finished CPU 0 instructions: 1999999509 cycles: 2654534914 cumulative IPC: 0.7534 (Simulation time: 06 hr 22 min 47 sec)
Simulation complete CPU 0 instructions: 1999999509 cycles: 2654534914 cumulative IPC: 0.7534 (Simulation time: 06 hr 22 min 47 sec)

ChampSim completed all CPUs

=== Simulation ===
CPU 0 runs test_traces/649.fotonik3d_s-10881B.champsimtrace.xz

Region of Interest Statistics

CPU 0 cumulative IPC: 0.7534 instructions: 1999999509 cycles: 2654534914
CPU 0 Branch Prediction Accuracy: 97.24% MPKI: 0.2738 Average ROB Occupancy at Mispredict: 264.7
Branch type MPKI
BRANCH_DIRECT_JUMP: 5.5e-06
BRANCH_INDIRECT: 0
BRANCH_CONDITIONAL: 0.2738
BRANCH_DIRECT_CALL: 5e-07
BRANCH_INDIRECT_CALL: 0
BRANCH_RETURN: 5e-07

cpu0->cpu0_STLB TOTAL        ACCESS:    6980234 HIT:    3618439 MISS:    3361795 MSHR_MERGE:          0
cpu0->cpu0_STLB LOAD         ACCESS:    6980234 HIT:    3618439 MISS:    3361795 MSHR_MERGE:          0
cpu0->cpu0_STLB RFO          ACCESS:          0 HIT:          0 MISS:          0 MSHR_MERGE:          0
cpu0->cpu0_STLB PREFETCH     ACCESS:          0 HIT:          0 MISS:          0 MSHR_MERGE:          0
cpu0->cpu0_STLB WRITE        ACCESS:          0 HIT:          0 MISS:          0 MSHR_MERGE:          0
cpu0->cpu0_STLB TRANSLATION  ACCESS:          0 HIT:          0 MISS:          0 MSHR_MERGE:          0
cpu0->cpu0_STLB PREFETCH REQUESTED:          0 ISSUED:          0 USEFUL:          0 USELESS:          0
cpu0->cpu0_STLB AVERAGE MISS LATENCY: 335.7 cycles
cpu0->cpu0_L2C TOTAL        ACCESS:   51671952 HIT:   16862476 MISS:   34809476 MSHR_MERGE:          0
cpu0->cpu0_L2C LOAD         ACCESS:   36315985 HIT:    1507073 MISS:   34808912 MSHR_MERGE:          0
cpu0->cpu0_L2C RFO          ACCESS:       2031 HIT:       1990 MISS:         41 MSHR_MERGE:          0
cpu0->cpu0_L2C PREFETCH     ACCESS:          0 HIT:          0 MISS:          0 MSHR_MERGE:          0
cpu0->cpu0_L2C WRITE        ACCESS:   15353936 HIT:   15353413 MISS:        523 MSHR_MERGE:          0
cpu0->cpu0_L2C TRANSLATION  ACCESS:          0 HIT:          0 MISS:          0 MSHR_MERGE:          0
cpu0->cpu0_L2C PREFETCH REQUESTED:          0 ISSUED:          0 USEFUL:          0 USELESS:          0
cpu0->cpu0_L2C AVERAGE MISS LATENCY: 112.6 cycles
cpu0->cpu0_L1I TOTAL        ACCESS:  500909383 HIT:  500908436 MISS:        947 MSHR_MERGE:        408
cpu0->cpu0_L1I LOAD         ACCESS:  500909383 HIT:  500908436 MISS:        947 MSHR_MERGE:        408
cpu0->cpu0_L1I RFO          ACCESS:          0 HIT:          0 MISS:          0 MSHR_MERGE:          0
cpu0->cpu0_L1I PREFETCH     ACCESS:          0 HIT:          0 MISS:          0 MSHR_MERGE:          0
cpu0->cpu0_L1I WRITE        ACCESS:          0 HIT:          0 MISS:          0 MSHR_MERGE:          0
cpu0->cpu0_L1I TRANSLATION  ACCESS:          0 HIT:          0 MISS:          0 MSHR_MERGE:          0
cpu0->cpu0_L1I PREFETCH REQUESTED:          0 ISSUED:          0 USEFUL:          0 USELESS:          0
cpu0->cpu0_L1I AVERAGE MISS LATENCY: 141.4 cycles
cpu0->cpu0_L1D TOTAL        ACCESS:  960383777 HIT:  915387869 MISS:   44995908 MSHR_MERGE:    8678422
cpu0->cpu0_L1D LOAD         ACCESS:  842746335 HIT:  797754028 MISS:   44992307 MSHR_MERGE:    8676860
cpu0->cpu0_L1D RFO          ACCESS:          0 HIT:          0 MISS:          0 MSHR_MERGE:          0
cpu0->cpu0_L1D PREFETCH     ACCESS:          0 HIT:          0 MISS:          0 MSHR_MERGE:          0
cpu0->cpu0_L1D WRITE        ACCESS:  117637442 HIT:  117633841 MISS:       3601 MSHR_MERGE:       1562
cpu0->cpu0_L1D TRANSLATION  ACCESS:          0 HIT:          0 MISS:          0 MSHR_MERGE:          0
cpu0->cpu0_L1D PREFETCH REQUESTED:          0 ISSUED:          0 USEFUL:          0 USELESS:          0
cpu0->cpu0_L1D AVERAGE MISS LATENCY: 116.9 cycles
cpu0->cpu0_ITLB TOTAL        ACCESS:  433923635 HIT:  433923576 MISS:         59 MSHR_MERGE:         47
cpu0->cpu0_ITLB LOAD         ACCESS:  433923635 HIT:  433923576 MISS:         59 MSHR_MERGE:         47
cpu0->cpu0_ITLB RFO          ACCESS:          0 HIT:          0 MISS:          0 MSHR_MERGE:          0
cpu0->cpu0_ITLB PREFETCH     ACCESS:          0 HIT:          0 MISS:          0 MSHR_MERGE:          0
cpu0->cpu0_ITLB WRITE        ACCESS:          0 HIT:          0 MISS:          0 MSHR_MERGE:          0
cpu0->cpu0_ITLB TRANSLATION  ACCESS:          0 HIT:          0 MISS:          0 MSHR_MERGE:          0
cpu0->cpu0_ITLB PREFETCH REQUESTED:          0 ISSUED:          0 USEFUL:          0 USELESS:          0
cpu0->cpu0_ITLB AVERAGE MISS LATENCY: 723.5 cycles
cpu0->cpu0_DTLB TOTAL        ACCESS:  901388505 HIT:  892463060 MISS:    8925445 MSHR_MERGE:    1945223
cpu0->cpu0_DTLB LOAD         ACCESS:  901388505 HIT:  892463060 MISS:    8925445 MSHR_MERGE:    1945223
cpu0->cpu0_DTLB RFO          ACCESS:          0 HIT:          0 MISS:          0 MSHR_MERGE:          0
cpu0->cpu0_DTLB PREFETCH     ACCESS:          0 HIT:          0 MISS:          0 MSHR_MERGE:          0
cpu0->cpu0_DTLB WRITE        ACCESS:          0 HIT:          0 MISS:          0 MSHR_MERGE:          0
cpu0->cpu0_DTLB TRANSLATION  ACCESS:          0 HIT:          0 MISS:          0 MSHR_MERGE:          0
cpu0->cpu0_DTLB PREFETCH REQUESTED:          0 ISSUED:          0 USEFUL:          0 USELESS:          0
cpu0->cpu0_DTLB AVERAGE MISS LATENCY: 167.2 cycles
cpu0->LLC TOTAL        ACCESS:   50156812 HIT:   17657079 MISS:   32499733 MSHR_MERGE:          0
cpu0->LLC LOAD         ACCESS:   34808912 HIT:    2309556 MISS:   32499356 MSHR_MERGE:          0
cpu0->LLC RFO          ACCESS:         41 HIT:         17 MISS:         24 MSHR_MERGE:          0
cpu0->LLC PREFETCH     ACCESS:          0 HIT:          0 MISS:          0 MSHR_MERGE:          0
cpu0->LLC WRITE        ACCESS:   15347859 HIT:   15347506 MISS:        353 MSHR_MERGE:          0
cpu0->LLC TRANSLATION  ACCESS:          0 HIT:          0 MISS:          0 MSHR_MERGE:          0
cpu0->LLC PREFETCH REQUESTED:          0 ISSUED:          0 USEFUL:          0 USELESS:          0
cpu0->LLC AVERAGE MISS LATENCY: 103.5 cycles

DRAM Statistics

Channel 0 RQ ROW_BUFFER_HIT:     407782
  ROW_BUFFER_MISS:   19132903
  AVG DBUS CONGESTED CYCLE: 10.98
Channel 0 WQ ROW_BUFFER_HIT:    1371124
  ROW_BUFFER_MISS:    6298730
  FULL:          0
Channel 0 REFRESHES ISSUED:     221197

Channel 1 RQ ROW_BUFFER_HIT:     406573
  ROW_BUFFER_MISS:   19120198
  AVG DBUS CONGESTED CYCLE: 10.98
Channel 1 WQ ROW_BUFFER_HIT:    1368714
  ROW_BUFFER_MISS:    6301149
  FULL:          0
Channel 1 REFRESHES ISSUED:     221197
