[VMEM] WARNING: physical memory size is smaller than virtual memory size.

*** ChampSim Multicore Out-of-Order Simulator ***
Warmup Instructions: 0
Simulation Instructions: 9223372036854775807
Number of CPUs: 1
Page size: 4096

Off-chip DRAM Size: 128 GiB Channels: 2 Width: 32-bit Data Rate: 4807 MT/s
[ERROR_PAGE_MANAGER] Error latency: 173500 
[ERROR_PAGE_MANAGER] Random seed: 54321 (fixed for preload reproducibility)
[ERROR_PAGE_MANAGER] Cycle-based error modeling enabled
[ERROR_PAGE_MANAGER] Errors per interval: 1
[ERROR_PAGE_MANAGER] Error cycle interval: 8000000 cycles

=== ERROR PAGE STATISTICS ===
Mode: CYCLE
Error Cycle Interval: 8000000 CPU cycles
Total Error Accesses: 0
==============================
Warmup finished CPU 0 instructions: 0 cycles: 1 cumulative IPC: 0 (Simulation time: 00 hr 00 min 02 sec)
Warmup complete CPU 0 instructions: 0 cycles: 1 cumulative IPC: 0 (Simulation time: 00 hr 00 min 02 sec)
[ERROR_CYCLE] Error added at CPU cycle 5702245, next at 7322645, pending count: 1
[DRAM_CYCLE_ERROR] Cycle-based error applied! address=0xb8a75fd90 additional_latency=173500 cycles
[ERROR_CYCLE] Error added at CPU cycle 7322646, next at 20556852, pending count: 1
[DRAM_CYCLE_ERROR] Cycle-based error applied! address=0xfbc282d40 additional_latency=173500 cycles
[ERROR_CYCLE] Error added at CPU cycle 20556852, next at 42774152, pending count: 1
[DRAM_CYCLE_ERROR] Cycle-based error applied! address=0xb4c87b380 additional_latency=173500 cycles
Heartbeat CPU 0 instructions: 10000002 cycles: 30007061 heartbeat IPC: 0.3333 cumulative IPC: 0.3333 (Simulation time: 00 hr 03 min 05 sec)
[ERROR_CYCLE] Error added at CPU cycle 42774153, next at 43014581, pending count: 1
[DRAM_CYCLE_ERROR] Cycle-based error applied! address=0xbf946320 additional_latency=173500 cycles
[ERROR_CYCLE] Error added at CPU cycle 43014581, next at 55310914, pending count: 1
[DRAM_CYCLE_ERROR] Cycle-based error applied! address=0x7e233ffe0 additional_latency=173500 cycles
[ERROR_CYCLE] Error added at CPU cycle 55310914, next at 56742755, pending count: 1
[DRAM_CYCLE_ERROR] Cycle-based error applied! address=0x14cd737a58 additional_latency=173500 cycles
[ERROR_CYCLE] Error added at CPU cycle 56742756, next at 61293938, pending count: 1
[DRAM_CYCLE_ERROR] Cycle-based error applied! address=0x17c564fa40 additional_latency=173500 cycles
Heartbeat CPU 0 instructions: 20000002 cycles: 59902998 heartbeat IPC: 0.3345 cumulative IPC: 0.3339 (Simulation time: 00 hr 06 min 07 sec)
[ERROR_CYCLE] Error added at CPU cycle 61293939, next at 68125490, pending count: 1
[DRAM_CYCLE_ERROR] Cycle-based error applied! address=0x1bbf863280 additional_latency=173500 cycles
[ERROR_CYCLE] Error added at CPU cycle 68125491, next at 70082703, pending count: 1
[DRAM_CYCLE_ERROR] Cycle-based error applied! address=0x7fcf4d750 additional_latency=173500 cycles
[ERROR_CYCLE] Error added at CPU cycle 70082704, next at 84290367, pending count: 1
[DRAM_CYCLE_ERROR] Cycle-based error applied! address=0x1b0ec95560 additional_latency=173500 cycles
[ERROR_CYCLE] Error added at CPU cycle 84290367, next at 87138513, pending count: 1
[DRAM_CYCLE_ERROR] Cycle-based error applied! address=0x15d8c87a48 additional_latency=173500 cycles
[ERROR_CYCLE] Error added at CPU cycle 87138513, next at 90719201, pending count: 1
[DRAM_CYCLE_ERROR] Cycle-based error applied! address=0x1277d3d550 additional_latency=173500 cycles
Heartbeat CPU 0 instructions: 30000004 cycles: 89826473 heartbeat IPC: 0.3342 cumulative IPC: 0.334 (Simulation time: 00 hr 09 min 09 sec)
[ERROR_CYCLE] Error added at CPU cycle 90719201, next at 107001469, pending count: 1
[DRAM_CYCLE_ERROR] Cycle-based error applied! address=0xd7708b390 additional_latency=173500 cycles
[ERROR_CYCLE] Error added at CPU cycle 107001469, next at 107099488, pending count: 1
[DRAM_CYCLE_ERROR] Cycle-based error applied! address=0x15aaf55b18 additional_latency=173500 cycles
[ERROR_CYCLE] Error added at CPU cycle 107099489, next at 116099092, pending count: 1
[DRAM_CYCLE_ERROR] Cycle-based error applied! address=0x1542e5d50 additional_latency=173500 cycles
[ERROR_CYCLE] Error added at CPU cycle 116099092, next at 121349692, pending count: 1
[DRAM_CYCLE_ERROR] Cycle-based error applied! address=0xbcb72de08 additional_latency=173500 cycles
Heartbeat CPU 0 instructions: 40000005 cycles: 119763192 heartbeat IPC: 0.334 cumulative IPC: 0.334 (Simulation time: 00 hr 11 min 52 sec)
[ERROR_CYCLE] Error added at CPU cycle 121349692, next at 151621187, pending count: 1
[DRAM_CYCLE_ERROR] Cycle-based error applied! address=0x1ebe72e150 additional_latency=173500 cycles
Heartbeat CPU 0 instructions: 50000009 cycles: 149617566 heartbeat IPC: 0.335 cumulative IPC: 0.3342 (Simulation time: 00 hr 14 min 54 sec)
[ERROR_CYCLE] Error added at CPU cycle 151621187, next at 153516742, pending count: 1
[DRAM_CYCLE_ERROR] Cycle-based error applied! address=0xa92b0b010 additional_latency=173500 cycles
[ERROR_CYCLE] Error added at CPU cycle 153516742, next at 155437621, pending count: 1
[DRAM_CYCLE_ERROR] Cycle-based error applied! address=0x11203b0d00 additional_latency=173500 cycles
[ERROR_CYCLE] Error added at CPU cycle 155437621, next at 178495226, pending count: 1
[DRAM_CYCLE_ERROR] Cycle-based error applied! address=0x7862d0e18 additional_latency=173500 cycles
[ERROR_CYCLE] Error added at CPU cycle 178495226, next at 181653365, pending count: 1
[DRAM_CYCLE_ERROR] Cycle-based error applied! address=0x1002d81d10 additional_latency=173500 cycles
Heartbeat CPU 0 instructions: 60000012 cycles: 179499942 heartbeat IPC: 0.3346 cumulative IPC: 0.3343 (Simulation time: 00 hr 17 min 24 sec)
[ERROR_CYCLE] Error added at CPU cycle 181653365, next at 215877191, pending count: 1
[DRAM_CYCLE_ERROR] Cycle-based error applied! address=0x8308bf358 additional_latency=173500 cycles
Heartbeat CPU 0 instructions: 70000012 cycles: 209366305 heartbeat IPC: 0.3348 cumulative IPC: 0.3343 (Simulation time: 00 hr 19 min 51 sec)
[ERROR_CYCLE] Error added at CPU cycle 215877191, next at 220477735, pending count: 1
[DRAM_CYCLE_ERROR] Cycle-based error applied! address=0x940f29a60 additional_latency=173500 cycles
[ERROR_CYCLE] Error added at CPU cycle 220477735, next at 247385306, pending count: 1
[DRAM_CYCLE_ERROR] Cycle-based error applied! address=0x1ac5360a48 additional_latency=173500 cycles
Heartbeat CPU 0 instructions: 80000016 cycles: 239244453 heartbeat IPC: 0.3347 cumulative IPC: 0.3344 (Simulation time: 00 hr 22 min 53 sec)
[ERROR_CYCLE] Error added at CPU cycle 247385307, next at 249771807, pending count: 1
[DRAM_CYCLE_ERROR] Cycle-based error applied! address=0x10a5fd7f98 additional_latency=173500 cycles
[ERROR_CYCLE] Error added at CPU cycle 249771808, next at 261187612, pending count: 1
[DRAM_CYCLE_ERROR] Cycle-based error applied! address=0xd0e8d7a10 additional_latency=173500 cycles
[ERROR_CYCLE] Error added at CPU cycle 261187613, next at 262895406, pending count: 1
[DRAM_CYCLE_ERROR] Cycle-based error applied! address=0xe1ad48a98 additional_latency=173500 cycles
[ERROR_CYCLE] Error added at CPU cycle 262895406, next at 265556270, pending count: 1
[DRAM_CYCLE_ERROR] Cycle-based error applied! address=0x1979d4da90 additional_latency=173500 cycles
[ERROR_CYCLE] Error added at CPU cycle 265556270, next at 277297613, pending count: 1
[DRAM_CYCLE_ERROR] Cycle-based error applied! address=0x36eea5d60 additional_latency=173500 cycles
Heartbeat CPU 0 instructions: 90000018 cycles: 269109206 heartbeat IPC: 0.3348 cumulative IPC: 0.3344 (Simulation time: 00 hr 25 min 15 sec)
[ERROR_CYCLE] Error added at CPU cycle 277297614, next at 277363337, pending count: 1
[DRAM_CYCLE_ERROR] Cycle-based error applied! address=0x19598bb990 additional_latency=173500 cycles
[ERROR_CYCLE] Error added at CPU cycle 277363337, next at 280844445, pending count: 1
[DRAM_CYCLE_ERROR] Cycle-based error applied! address=0x177f56a4d0 additional_latency=173500 cycles
[ERROR_CYCLE] Error added at CPU cycle 280844445, next at 282972414, pending count: 1
[DRAM_CYCLE_ERROR] Cycle-based error applied! address=0x6879f3f10 additional_latency=173500 cycles
[ERROR_CYCLE] Error added at CPU cycle 282972415, next at 286862856, pending count: 1
[DRAM_CYCLE_ERROR] Cycle-based error applied! address=0x4e050ae00 additional_latency=173500 cycles
[ERROR_CYCLE] Error added at CPU cycle 286862857, next at 287787267, pending count: 1
[DRAM_CYCLE_ERROR] Cycle-based error applied! address=0x1d187f08c8 additional_latency=173500 cycles
[ERROR_CYCLE] Error added at CPU cycle 287787267, next at 291972450, pending count: 1
[DRAM_CYCLE_ERROR] Cycle-based error applied! address=0x1fba7401c8 additional_latency=173500 cycles
[ERROR_CYCLE] Error added at CPU cycle 291972450, next at 296131102, pending count: 1
[DRAM_CYCLE_ERROR] Cycle-based error applied! address=0x2cb446500 additional_latency=173500 cycles
[ERROR_CYCLE] Error added at CPU cycle 296131102, next at 307889350, pending count: 1
[DRAM_CYCLE_ERROR] Cycle-based error applied! address=0x1efc7cb4c8 additional_latency=173500 cycles
Heartbeat CPU 0 instructions: 100000020 cycles: 298982036 heartbeat IPC: 0.3348 cumulative IPC: 0.3345 (Simulation time: 00 hr 27 min 38 sec)
[ERROR_CYCLE] Error added at CPU cycle 307889350, next at 322644041, pending count: 1
[DRAM_CYCLE_ERROR] Cycle-based error applied! address=0x782642d08 additional_latency=173500 cycles
[ERROR_CYCLE] Error added at CPU cycle 322644042, next at 326639280, pending count: 1
[DRAM_CYCLE_ERROR] Cycle-based error applied! address=0x1539101c98 additional_latency=173500 cycles
[ERROR_CYCLE] Error added at CPU cycle 326639281, next at 331663090, pending count: 1
[DRAM_CYCLE_ERROR] Cycle-based error applied! address=0xe639c708 additional_latency=173500 cycles
Heartbeat CPU 0 instructions: 110000020 cycles: 328913113 heartbeat IPC: 0.3341 cumulative IPC: 0.3344 (Simulation time: 00 hr 30 min 35 sec)
[ERROR_CYCLE] Error added at CPU cycle 331663090, next at 332541815, pending count: 1
[DRAM_CYCLE_ERROR] Cycle-based error applied! address=0x14a00bb348 additional_latency=173500 cycles
[ERROR_CYCLE] Error added at CPU cycle 332541815, next at 334235178, pending count: 1
[DRAM_CYCLE_ERROR] Cycle-based error applied! address=0x18a54b2320 additional_latency=173500 cycles
[ERROR_CYCLE] Error added at CPU cycle 334235178, next at 343169730, pending count: 1
[DRAM_CYCLE_ERROR] Cycle-based error applied! address=0x18ba255018 additional_latency=173500 cycles
[ERROR_CYCLE] Error added at CPU cycle 343169730, next at 348318977, pending count: 1
[DRAM_CYCLE_ERROR] Cycle-based error applied! address=0x9a9428120 additional_latency=173500 cycles
[ERROR_CYCLE] Error added at CPU cycle 348318978, next at 361256443, pending count: 1
[DRAM_CYCLE_ERROR] Cycle-based error applied! address=0x19bb37d080 additional_latency=173500 cycles
Heartbeat CPU 0 instructions: 120000024 cycles: 358883670 heartbeat IPC: 0.3337 cumulative IPC: 0.3344 (Simulation time: 00 hr 33 min 22 sec)
[ERROR_CYCLE] Error added at CPU cycle 361256443, next at 363532948, pending count: 1
[DRAM_CYCLE_ERROR] Cycle-based error applied! address=0x115a1c0e00 additional_latency=173500 cycles
[ERROR_CYCLE] Error added at CPU cycle 363532948, next at 374354625, pending count: 1
[DRAM_CYCLE_ERROR] Cycle-based error applied! address=0x1ce111e400 additional_latency=173500 cycles
[ERROR_CYCLE] Error added at CPU cycle 374354626, next at 383320275, pending count: 1
[DRAM_CYCLE_ERROR] Cycle-based error applied! address=0x10d3371ed0 additional_latency=173500 cycles
[ERROR_CYCLE] Error added at CPU cycle 383320276, next at 391855039, pending count: 1
[DRAM_CYCLE_ERROR] Cycle-based error applied! address=0x601fbb880 additional_latency=173500 cycles
Heartbeat CPU 0 instructions: 130000024 cycles: 388826884 heartbeat IPC: 0.334 cumulative IPC: 0.3343 (Simulation time: 00 hr 35 min 45 sec)
[ERROR_CYCLE] Error added at CPU cycle 391855040, next at 393759507, pending count: 1
[DRAM_CYCLE_ERROR] Cycle-based error applied! address=0x134b5dd558 additional_latency=173500 cycles
[ERROR_CYCLE] Error added at CPU cycle 393759508, next at 400884047, pending count: 1
[DRAM_CYCLE_ERROR] Cycle-based error applied! address=0x10491fee40 additional_latency=173500 cycles
[ERROR_CYCLE] Error added at CPU cycle 400884047, next at 413131147, pending count: 1
[DRAM_CYCLE_ERROR] Cycle-based error applied! address=0xb02e36210 additional_latency=173500 cycles
[ERROR_CYCLE] Error added at CPU cycle 413131147, next at 418606511, pending count: 1
[DRAM_CYCLE_ERROR] Cycle-based error applied! address=0x7f056dbe0 additional_latency=173500 cycles
[ERROR_CYCLE] Error added at CPU cycle 418606511, next at 419456417, pending count: 1
[DRAM_CYCLE_ERROR] Cycle-based error applied! address=0x1f66c004c8 additional_latency=173500 cycles
Heartbeat CPU 0 instructions: 140000027 cycles: 418672590 heartbeat IPC: 0.3351 cumulative IPC: 0.3344 (Simulation time: 00 hr 38 min 22 sec)
[ERROR_CYCLE] Error added at CPU cycle 419456417, next at 436337035, pending count: 1
[DRAM_CYCLE_ERROR] Cycle-based error applied! address=0x807f654a0 additional_latency=173500 cycles
[ERROR_CYCLE] Error added at CPU cycle 436337035, next at 444009234, pending count: 1
[DRAM_CYCLE_ERROR] Cycle-based error applied! address=0x12b64610d0 additional_latency=173500 cycles
[ERROR_CYCLE] Error added at CPU cycle 444009235, next at 453365678, pending count: 1
[DRAM_CYCLE_ERROR] Cycle-based error applied! address=0xffd16b0d0 additional_latency=173500 cycles
Heartbeat CPU 0 instructions: 150000029 cycles: 448524349 heartbeat IPC: 0.335 cumulative IPC: 0.3344 (Simulation time: 00 hr 41 min 25 sec)
[ERROR_CYCLE] Error added at CPU cycle 453365679, next at 481867585, pending count: 1
[DRAM_CYCLE_ERROR] Cycle-based error applied! address=0x914b218a0 additional_latency=173500 cycles
Heartbeat CPU 0 instructions: 160000031 cycles: 478428269 heartbeat IPC: 0.3344 cumulative IPC: 0.3344 (Simulation time: 00 hr 43 min 39 sec)
[ERROR_CYCLE] Error added at CPU cycle 481867586, next at 486241351, pending count: 1
[DRAM_CYCLE_ERROR] Cycle-based error applied! address=0xdb2e14688 additional_latency=173500 cycles
[ERROR_CYCLE] Error added at CPU cycle 486241352, next at 486834828, pending count: 1
[DRAM_CYCLE_ERROR] Cycle-based error applied! address=0x1dc0da3000 additional_latency=173500 cycles
[ERROR_CYCLE] Error added at CPU cycle 486834829, next at 488524067, pending count: 1
[DRAM_CYCLE_ERROR] Cycle-based error applied! address=0x838158848 additional_latency=173500 cycles
[ERROR_CYCLE] Error added at CPU cycle 488524067, next at 490575473, pending count: 1
[DRAM_CYCLE_ERROR] Cycle-based error applied! address=0xc2c94da10 additional_latency=173500 cycles
[ERROR_CYCLE] Error added at CPU cycle 490575473, next at 490984732, pending count: 1
[DRAM_CYCLE_ERROR] Cycle-based error applied! address=0xb8f4efc90 additional_latency=173500 cycles
[ERROR_CYCLE] Error added at CPU cycle 490984732, next at 492549221, pending count: 1
[DRAM_CYCLE_ERROR] Cycle-based error applied! address=0x13a7748408 additional_latency=173500 cycles
[ERROR_CYCLE] Error added at CPU cycle 492549221, next at 499064308, pending count: 1
[DRAM_CYCLE_ERROR] Cycle-based error applied! address=0xa53595650 additional_latency=173500 cycles
[ERROR_CYCLE] Error added at CPU cycle 499064309, next at 524403665, pending count: 1
[DRAM_CYCLE_ERROR] Cycle-based error applied! address=0x75a620108 additional_latency=173500 cycles
Heartbeat CPU 0 instructions: 170000034 cycles: 508372367 heartbeat IPC: 0.334 cumulative IPC: 0.3344 (Simulation time: 00 hr 46 min 00 sec)
[ERROR_CYCLE] Error added at CPU cycle 524403666, next at 548237136, pending count: 1
[DRAM_CYCLE_ERROR] Cycle-based error applied! address=0x12e1d14288 additional_latency=173500 cycles
Heartbeat CPU 0 instructions: 180000036 cycles: 538250512 heartbeat IPC: 0.3347 cumulative IPC: 0.3344 (Simulation time: 00 hr 48 min 43 sec)
[ERROR_CYCLE] Error added at CPU cycle 548237136, next at 553653883, pending count: 1
[DRAM_CYCLE_ERROR] Cycle-based error applied! address=0x10d199790 additional_latency=173500 cycles
[ERROR_CYCLE] Error added at CPU cycle 553653884, next at 554848685, pending count: 1
[DRAM_CYCLE_ERROR] Cycle-based error applied! address=0x4371c2890 additional_latency=173500 cycles
[ERROR_CYCLE] Error added at CPU cycle 554848686, next at 557254087, pending count: 1
[DRAM_CYCLE_ERROR] Cycle-based error applied! address=0x7be9824e0 additional_latency=173500 cycles
[ERROR_CYCLE] Error added at CPU cycle 557254087, next at 564098204, pending count: 1
[DRAM_CYCLE_ERROR] Cycle-based error applied! address=0x3346d4658 additional_latency=173500 cycles
[ERROR_CYCLE] Error added at CPU cycle 564098204, next at 598036750, pending count: 1
[DRAM_CYCLE_ERROR] Cycle-based error applied! address=0x183d960c8 additional_latency=173500 cycles
Heartbeat CPU 0 instructions: 190000039 cycles: 568226347 heartbeat IPC: 0.3336 cumulative IPC: 0.3344 (Simulation time: 00 hr 51 min 46 sec)
[ERROR_CYCLE] Error added at CPU cycle 598036751, next at 598935337, pending count: 1
[DRAM_CYCLE_ERROR] Cycle-based error applied! address=0x17850ac840 additional_latency=173500 cycles
Heartbeat CPU 0 instructions: 200000040 cycles: 598049951 heartbeat IPC: 0.3353 cumulative IPC: 0.3344 (Simulation time: 00 hr 54 min 28 sec)
[ERROR_CYCLE] Error added at CPU cycle 598935337, next at 604015587, pending count: 1
[DRAM_CYCLE_ERROR] Cycle-based error applied! address=0x1d2555daa0 additional_latency=173500 cycles
[ERROR_CYCLE] Error added at CPU cycle 604015587, next at 604397660, pending count: 1
[DRAM_CYCLE_ERROR] Cycle-based error applied! address=0x13f79ea940 additional_latency=173500 cycles
[ERROR_CYCLE] Error added at CPU cycle 604397660, next at 607018469, pending count: 1
[DRAM_CYCLE_ERROR] Cycle-based error applied! address=0x1b65dfd648 additional_latency=173500 cycles
[ERROR_CYCLE] Error added at CPU cycle 607018470, next at 614345951, pending count: 1
[DRAM_CYCLE_ERROR] Cycle-based error applied! address=0xc4ad60a00 additional_latency=173500 cycles
[ERROR_CYCLE] Error added at CPU cycle 614345951, next at 614441836, pending count: 1
[DRAM_CYCLE_ERROR] Cycle-based error applied! address=0xcd4fa40d0 additional_latency=173500 cycles
[ERROR_CYCLE] Error added at CPU cycle 614441837, next at 614480051, pending count: 1
[DRAM_CYCLE_ERROR] Cycle-based error applied! address=0x39247910 additional_latency=173500 cycles
[ERROR_CYCLE] Error added at CPU cycle 614480051, next at 614611983, pending count: 1
[DRAM_CYCLE_ERROR] Cycle-based error applied! address=0x543ef8700 additional_latency=173500 cycles
[ERROR_CYCLE] Error added at CPU cycle 614611983, next at 618781457, pending count: 1
[DRAM_CYCLE_ERROR] Cycle-based error applied! address=0xc4bb29550 additional_latency=173500 cycles
[ERROR_CYCLE] Error added at CPU cycle 618781458, next at 620327032, pending count: 1
[DRAM_CYCLE_ERROR] Cycle-based error applied! address=0x5e0700588 additional_latency=173500 cycles
[ERROR_CYCLE] Error added at CPU cycle 620327032, next at 621182048, pending count: 1
[DRAM_CYCLE_ERROR] Cycle-based error applied! address=0xc7eb86600 additional_latency=173500 cycles
[ERROR_CYCLE] Error added at CPU cycle 621182049, next at 625644245, pending count: 1
[DRAM_CYCLE_ERROR] Cycle-based error applied! address=0x104d1d1ac0 additional_latency=173500 cycles
[ERROR_CYCLE] Error added at CPU cycle 625644246, next at 634692953, pending count: 1
[DRAM_CYCLE_ERROR] Cycle-based error applied! address=0x1f6e857310 additional_latency=173500 cycles
Heartbeat CPU 0 instructions: 210000042 cycles: 627984731 heartbeat IPC: 0.3341 cumulative IPC: 0.3344 (Simulation time: 00 hr 57 min 13 sec)
[ERROR_CYCLE] Error added at CPU cycle 634692953, next at 640590896, pending count: 1
[DRAM_CYCLE_ERROR] Cycle-based error applied! address=0x14f1f81610 additional_latency=173500 cycles
[ERROR_CYCLE] Error added at CPU cycle 640590897, next at 643762779, pending count: 1
[DRAM_CYCLE_ERROR] Cycle-based error applied! address=0xe938d6050 additional_latency=173500 cycles
[ERROR_CYCLE] Error added at CPU cycle 643762780, next at 650107287, pending count: 1
[DRAM_CYCLE_ERROR] Cycle-based error applied! address=0x14f033afe0 additional_latency=173500 cycles
[ERROR_CYCLE] Error added at CPU cycle 650107288, next at 660201622, pending count: 1
[DRAM_CYCLE_ERROR] Cycle-based error applied! address=0x1b1a927880 additional_latency=173500 cycles
Heartbeat CPU 0 instructions: 220000045 cycles: 657958166 heartbeat IPC: 0.3336 cumulative IPC: 0.3344 (Simulation time: 01 hr 00 min 16 sec)
[ERROR_CYCLE] Error added at CPU cycle 660201622, next at 664349972, pending count: 1
[DRAM_CYCLE_ERROR] Cycle-based error applied! address=0x17a5e14e88 additional_latency=173500 cycles
[ERROR_CYCLE] Error added at CPU cycle 664349973, next at 671148112, pending count: 1
[DRAM_CYCLE_ERROR] Cycle-based error applied! address=0x1f4a464560 additional_latency=173500 cycles
[ERROR_CYCLE] Error added at CPU cycle 671148112, next at 689443322, pending count: 1
[DRAM_CYCLE_ERROR] Cycle-based error applied! address=0x40f355918 additional_latency=173500 cycles
Heartbeat CPU 0 instructions: 230000046 cycles: 687859045 heartbeat IPC: 0.3344 cumulative IPC: 0.3344 (Simulation time: 01 hr 03 min 11 sec)
[ERROR_CYCLE] Error added at CPU cycle 689443322, next at 691311391, pending count: 1
[DRAM_CYCLE_ERROR] Cycle-based error applied! address=0x14f47ec820 additional_latency=173500 cycles
[ERROR_CYCLE] Error added at CPU cycle 691311392, next at 706435840, pending count: 1
[DRAM_CYCLE_ERROR] Cycle-based error applied! address=0x1e1d102ac8 additional_latency=173500 cycles
[ERROR_CYCLE] Error added at CPU cycle 706435841, next at 708373709, pending count: 1
[DRAM_CYCLE_ERROR] Cycle-based error applied! address=0x161b600550 additional_latency=173500 cycles
[ERROR_CYCLE] Error added at CPU cycle 708373709, next at 709740849, pending count: 1
[DRAM_CYCLE_ERROR] Cycle-based error applied! address=0x84888f1c8 additional_latency=173500 cycles
[ERROR_CYCLE] Error added at CPU cycle 709740849, next at 713146632, pending count: 1
[DRAM_CYCLE_ERROR] Cycle-based error applied! address=0x1f5d77ea00 additional_latency=173500 cycles
[ERROR_CYCLE] Error added at CPU cycle 713146633, next at 728113647, pending count: 1
[DRAM_CYCLE_ERROR] Cycle-based error applied! address=0x37591eb48 additional_latency=173500 cycles
Heartbeat CPU 0 instructions: 240000047 cycles: 717773141 heartbeat IPC: 0.3343 cumulative IPC: 0.3344 (Simulation time: 01 hr 06 min 13 sec)
[ERROR_CYCLE] Error added at CPU cycle 728113647, next at 729964738, pending count: 1
[DRAM_CYCLE_ERROR] Cycle-based error applied! address=0x1e2837ec18 additional_latency=173500 cycles
[ERROR_CYCLE] Error added at CPU cycle 729964738, next at 736361994, pending count: 1
[DRAM_CYCLE_ERROR] Cycle-based error applied! address=0x14a225ea48 additional_latency=173500 cycles
[ERROR_CYCLE] Error added at CPU cycle 736361994, next at 740287178, pending count: 1
[DRAM_CYCLE_ERROR] Cycle-based error applied! address=0x2c7acd0 additional_latency=173500 cycles
[ERROR_CYCLE] Error added at CPU cycle 740287179, next at 742566863, pending count: 1
[DRAM_CYCLE_ERROR] Cycle-based error applied! address=0x1ab06fbea0 additional_latency=173500 cycles
[ERROR_CYCLE] Error added at CPU cycle 742566864, next at 748440995, pending count: 1
[DRAM_CYCLE_ERROR] Cycle-based error applied! address=0x97cd16d40 additional_latency=173500 cycles
Heartbeat CPU 0 instructions: 250000047 cycles: 747734390 heartbeat IPC: 0.3338 cumulative IPC: 0.3343 (Simulation time: 01 hr 09 min 08 sec)
[ERROR_CYCLE] Error added at CPU cycle 748440995, next at 752222168, pending count: 1
[DRAM_CYCLE_ERROR] Cycle-based error applied! address=0x678b90cc0 additional_latency=173500 cycles
[ERROR_CYCLE] Error added at CPU cycle 752222169, next at 753089532, pending count: 1
[DRAM_CYCLE_ERROR] Cycle-based error applied! address=0xb5a369418 additional_latency=173500 cycles
[ERROR_CYCLE] Error added at CPU cycle 753089532, next at 755305368, pending count: 1
[DRAM_CYCLE_ERROR] Cycle-based error applied! address=0xbba6664c8 additional_latency=173500 cycles
[ERROR_CYCLE] Error added at CPU cycle 755305368, next at 772665000, pending count: 1
[DRAM_CYCLE_ERROR] Cycle-based error applied! address=0x673310c80 additional_latency=173500 cycles
[ERROR_CYCLE] Error added at CPU cycle 772665001, next at 782584091, pending count: 1
[DRAM_CYCLE_ERROR] Cycle-based error applied! address=0x31311c548 additional_latency=173500 cycles
Heartbeat CPU 0 instructions: 260000051 cycles: 777692805 heartbeat IPC: 0.3338 cumulative IPC: 0.3343 (Simulation time: 01 hr 12 min 12 sec)
[ERROR_CYCLE] Error added at CPU cycle 782584092, next at 796276792, pending count: 1
[DRAM_CYCLE_ERROR] Cycle-based error applied! address=0x1e079899c8 additional_latency=173500 cycles
[ERROR_CYCLE] Error added at CPU cycle 796276792, next at 801187692, pending count: 1
[DRAM_CYCLE_ERROR] Cycle-based error applied! address=0x15a2db1dc0 additional_latency=173500 cycles
[ERROR_CYCLE] Error added at CPU cycle 801187692, next at 808777645, pending count: 1
[DRAM_CYCLE_ERROR] Cycle-based error applied! address=0x15d9ab5698 additional_latency=173500 cycles
Heartbeat CPU 0 instructions: 270000051 cycles: 807665235 heartbeat IPC: 0.3336 cumulative IPC: 0.3343 (Simulation time: 01 hr 14 min 52 sec)
[ERROR_CYCLE] Error added at CPU cycle 808777645, next at 810760668, pending count: 1
[DRAM_CYCLE_ERROR] Cycle-based error applied! address=0x16d0512040 additional_latency=173500 cycles
[ERROR_CYCLE] Error added at CPU cycle 810760669, next at 822280300, pending count: 1
[DRAM_CYCLE_ERROR] Cycle-based error applied! address=0x1bda406a00 additional_latency=173500 cycles
[ERROR_CYCLE] Error added at CPU cycle 822280301, next at 832288151, pending count: 1
[DRAM_CYCLE_ERROR] Cycle-based error applied! address=0xa1827d380 additional_latency=173500 cycles
[ERROR_CYCLE] Error added at CPU cycle 832288151, next at 838593573, pending count: 1
[DRAM_CYCLE_ERROR] Cycle-based error applied! address=0x107c7c200 additional_latency=173500 cycles
Heartbeat CPU 0 instructions: 280000052 cycles: 837567978 heartbeat IPC: 0.3344 cumulative IPC: 0.3343 (Simulation time: 01 hr 17 min 32 sec)
[ERROR_CYCLE] Error added at CPU cycle 838593573, next at 846086183, pending count: 1
[DRAM_CYCLE_ERROR] Cycle-based error applied! address=0x110ddcceb0 additional_latency=173500 cycles
[ERROR_CYCLE] Error added at CPU cycle 846086184, next at 862431645, pending count: 1
[DRAM_CYCLE_ERROR] Cycle-based error applied! address=0x360e0d40 additional_latency=173500 cycles
[ERROR_CYCLE] Error added at CPU cycle 862431646, next at 874582316, pending count: 1
[DRAM_CYCLE_ERROR] Cycle-based error applied! address=0x5118f8900 additional_latency=173500 cycles
Heartbeat CPU 0 instructions: 290000052 cycles: 867434974 heartbeat IPC: 0.3348 cumulative IPC: 0.3343 (Simulation time: 01 hr 20 min 16 sec)
[ERROR_CYCLE] Error added at CPU cycle 874582317, next at 876300437, pending count: 1
[DRAM_CYCLE_ERROR] Cycle-based error applied! address=0x1cac8851a0 additional_latency=173500 cycles
[ERROR_CYCLE] Error added at CPU cycle 876300437, next at 881443625, pending count: 1
[DRAM_CYCLE_ERROR] Cycle-based error applied! address=0x1cc5197c48 additional_latency=173500 cycles
[ERROR_CYCLE] Error added at CPU cycle 881443625, next at 885663751, pending count: 1
[DRAM_CYCLE_ERROR] Cycle-based error applied! address=0x1214231208 additional_latency=173500 cycles
[ERROR_CYCLE] Error added at CPU cycle 885663752, next at 892255045, pending count: 1
[DRAM_CYCLE_ERROR] Cycle-based error applied! address=0x953cc8c48 additional_latency=173500 cycles
[ERROR_CYCLE] Error added at CPU cycle 892255045, next at 908006563, pending count: 1
[DRAM_CYCLE_ERROR] Cycle-based error applied! address=0x4fc33be00 additional_latency=173500 cycles
Heartbeat CPU 0 instructions: 300000056 cycles: 897285095 heartbeat IPC: 0.335 cumulative IPC: 0.3343 (Simulation time: 01 hr 23 min 11 sec)
[ERROR_CYCLE] Error added at CPU cycle 908006564, next at 912786163, pending count: 1
[DRAM_CYCLE_ERROR] Cycle-based error applied! address=0x1a841a7e20 additional_latency=173500 cycles
[ERROR_CYCLE] Error added at CPU cycle 912786163, next at 923266667, pending count: 1
[DRAM_CYCLE_ERROR] Cycle-based error applied! address=0x1bcdc0bd40 additional_latency=173500 cycles
[ERROR_CYCLE] Error added at CPU cycle 923266667, next at 924053485, pending count: 1
[DRAM_CYCLE_ERROR] Cycle-based error applied! address=0x15fe5c288 additional_latency=173500 cycles
[ERROR_CYCLE] Error added at CPU cycle 924053485, next at 931344785, pending count: 1
[DRAM_CYCLE_ERROR] Cycle-based error applied! address=0x1cfc1b2e0 additional_latency=173500 cycles
Heartbeat CPU 0 instructions: 310000056 cycles: 927194793 heartbeat IPC: 0.3343 cumulative IPC: 0.3343 (Simulation time: 01 hr 26 min 09 sec)
[ERROR_CYCLE] Error added at CPU cycle 931344785, next at 936042183, pending count: 1
[DRAM_CYCLE_ERROR] Cycle-based error applied! address=0x16142986d8 additional_latency=173500 cycles
[ERROR_CYCLE] Error added at CPU cycle 936042184, next at 960927640, pending count: 1
[DRAM_CYCLE_ERROR] Cycle-based error applied! address=0x258d07780 additional_latency=173500 cycles
Heartbeat CPU 0 instructions: 320000059 cycles: 957148403 heartbeat IPC: 0.3338 cumulative IPC: 0.3343 (Simulation time: 01 hr 29 min 07 sec)
[ERROR_CYCLE] Error added at CPU cycle 960927640, next at 975843003, pending count: 1
[DRAM_CYCLE_ERROR] Cycle-based error applied! address=0x1c8580b750 additional_latency=173500 cycles
[ERROR_CYCLE] Error added at CPU cycle 975843004, next at 977626043, pending count: 1
[DRAM_CYCLE_ERROR] Cycle-based error applied! address=0x11be639450 additional_latency=173500 cycles
[ERROR_CYCLE] Error added at CPU cycle 977626043, next at 979831902, pending count: 1
[DRAM_CYCLE_ERROR] Cycle-based error applied! address=0x30f99bcd0 additional_latency=173500 cycles
[ERROR_CYCLE] Error added at CPU cycle 979831903, next at 985183089, pending count: 1
[DRAM_CYCLE_ERROR] Cycle-based error applied! address=0x197dba8400 additional_latency=173500 cycles
[ERROR_CYCLE] Error added at CPU cycle 985183089, next at 985529715, pending count: 1
[DRAM_CYCLE_ERROR] Cycle-based error applied! address=0x1cff296be0 additional_latency=173500 cycles
[ERROR_CYCLE] Error added at CPU cycle 985529715, next at 989014745, pending count: 1
[DRAM_CYCLE_ERROR] Cycle-based error applied! address=0xecca95720 additional_latency=173500 cycles
Heartbeat CPU 0 instructions: 330000059 cycles: 987065205 heartbeat IPC: 0.3343 cumulative IPC: 0.3343 (Simulation time: 01 hr 32 min 11 sec)
[ERROR_CYCLE] Error added at CPU cycle 989014745, next at 1000495001, pending count: 1
[DRAM_CYCLE_ERROR] Cycle-based error applied! address=0x112023e148 additional_latency=173500 cycles
[ERROR_CYCLE] Error added at CPU cycle 1000495002, next at 1035091477, pending count: 1
[DRAM_CYCLE_ERROR] Cycle-based error applied! address=0x3fc8ee048 additional_latency=173500 cycles
Heartbeat CPU 0 instructions: 340000061 cycles: 1016958707 heartbeat IPC: 0.3345 cumulative IPC: 0.3343 (Simulation time: 01 hr 35 min 06 sec)
[ERROR_CYCLE] Error added at CPU cycle 1035091477, next at 1043904956, pending count: 1
[DRAM_CYCLE_ERROR] Cycle-based error applied! address=0x80b995da0 additional_latency=173500 cycles
[ERROR_CYCLE] Error added at CPU cycle 1043904957, next at 1051871016, pending count: 1
[DRAM_CYCLE_ERROR] Cycle-based error applied! address=0x11683ac9c8 additional_latency=173500 cycles
Heartbeat CPU 0 instructions: 350000063 cycles: 1046805156 heartbeat IPC: 0.335 cumulative IPC: 0.3344 (Simulation time: 01 hr 37 min 51 sec)
[ERROR_CYCLE] Error added at CPU cycle 1051871017, next at 1057060815, pending count: 1
[DRAM_CYCLE_ERROR] Cycle-based error applied! address=0x1410ab57d8 additional_latency=173500 cycles
[ERROR_CYCLE] Error added at CPU cycle 1057060815, next at 1067823653, pending count: 1
[DRAM_CYCLE_ERROR] Cycle-based error applied! address=0x1d43ba4820 additional_latency=173500 cycles
[ERROR_CYCLE] Error added at CPU cycle 1067823654, next at 1073330273, pending count: 1
[DRAM_CYCLE_ERROR] Cycle-based error applied! address=0xb0468d5e0 additional_latency=173500 cycles
[ERROR_CYCLE] Error added at CPU cycle 1073330274, next at 1073566411, pending count: 1
[DRAM_CYCLE_ERROR] Cycle-based error applied! address=0x188479288 additional_latency=173500 cycles
[ERROR_CYCLE] Error added at CPU cycle 1073566411, next at 1077955936, pending count: 1
[DRAM_CYCLE_ERROR] Cycle-based error applied! address=0x2379257a0 additional_latency=173500 cycles
Heartbeat CPU 0 instructions: 360000064 cycles: 1076684077 heartbeat IPC: 0.3347 cumulative IPC: 0.3344 (Simulation time: 01 hr 40 min 39 sec)
[ERROR_CYCLE] Error added at CPU cycle 1077955936, next at 1079111748, pending count: 1
[DRAM_CYCLE_ERROR] Cycle-based error applied! address=0xfce222480 additional_latency=173500 cycles
[ERROR_CYCLE] Error added at CPU cycle 1079111749, next at 1096295147, pending count: 1
[DRAM_CYCLE_ERROR] Cycle-based error applied! address=0x10c2097c8 additional_latency=173500 cycles
[ERROR_CYCLE] Error added at CPU cycle 1096295148, next at 1102125947, pending count: 1
[DRAM_CYCLE_ERROR] Cycle-based error applied! address=0x26776cc90 additional_latency=173500 cycles
[ERROR_CYCLE] Error added at CPU cycle 1102125947, next at 1134433618, pending count: 1
[DRAM_CYCLE_ERROR] Cycle-based error applied! address=0x16f53b1140 additional_latency=173500 cycles
Heartbeat CPU 0 instructions: 370000067 cycles: 1106554603 heartbeat IPC: 0.3348 cumulative IPC: 0.3344 (Simulation time: 01 hr 43 min 33 sec)
[ERROR_CYCLE] Error added at CPU cycle 1134433619, next at 1143019798, pending count: 1
[DRAM_CYCLE_ERROR] Cycle-based error applied! address=0x17462bdd50 additional_latency=173500 cycles
Heartbeat CPU 0 instructions: 380000068 cycles: 1136516595 heartbeat IPC: 0.3338 cumulative IPC: 0.3344 (Simulation time: 01 hr 46 min 30 sec)
[ERROR_CYCLE] Error added at CPU cycle 1143019799, next at 1144527713, pending count: 1
[DRAM_CYCLE_ERROR] Cycle-based error applied! address=0x3832bb5c8 additional_latency=173500 cycles
[ERROR_CYCLE] Error added at CPU cycle 1144527714, next at 1147844485, pending count: 1
[DRAM_CYCLE_ERROR] Cycle-based error applied! address=0x1987736958 additional_latency=173500 cycles
[ERROR_CYCLE] Error added at CPU cycle 1147844485, next at 1151928025, pending count: 1
[DRAM_CYCLE_ERROR] Cycle-based error applied! address=0x1938bda5a0 additional_latency=173500 cycles
[ERROR_CYCLE] Error added at CPU cycle 1151928026, next at 1164212405, pending count: 1
[DRAM_CYCLE_ERROR] Cycle-based error applied! address=0xa5e1d93a0 additional_latency=173500 cycles
[ERROR_CYCLE] Error added at CPU cycle 1164212406, next at 1164864924, pending count: 1
[DRAM_CYCLE_ERROR] Cycle-based error applied! address=0xc239d7c0 additional_latency=173500 cycles
[ERROR_CYCLE] Error added at CPU cycle 1164864924, next at 1167706555, pending count: 1
[DRAM_CYCLE_ERROR] Cycle-based error applied! address=0x10adc6e310 additional_latency=173500 cycles
Heartbeat CPU 0 instructions: 390000071 cycles: 1166496610 heartbeat IPC: 0.3336 cumulative IPC: 0.3343 (Simulation time: 01 hr 49 min 28 sec)
[ERROR_CYCLE] Error added at CPU cycle 1167706555, next at 1176468137, pending count: 1
[DRAM_CYCLE_ERROR] Cycle-based error applied! address=0x125677e158 additional_latency=173500 cycles
[ERROR_CYCLE] Error added at CPU cycle 1176468137, next at 1178359731, pending count: 1
[DRAM_CYCLE_ERROR] Cycle-based error applied! address=0x1f9ac15058 additional_latency=173500 cycles
[ERROR_CYCLE] Error added at CPU cycle 1178359731, next at 1186538523, pending count: 1
[DRAM_CYCLE_ERROR] Cycle-based error applied! address=0x968323338 additional_latency=173500 cycles
[ERROR_CYCLE] Error added at CPU cycle 1186538524, next at 1187608946, pending count: 1
[DRAM_CYCLE_ERROR] Cycle-based error applied! address=0x8b65159c0 additional_latency=173500 cycles
[ERROR_CYCLE] Error added at CPU cycle 1187608947, next at 1193860883, pending count: 1
[DRAM_CYCLE_ERROR] Cycle-based error applied! address=0x170c7ff80 additional_latency=173500 cycles
[ERROR_CYCLE] Error added at CPU cycle 1193860883, next at 1198722524, pending count: 1
[DRAM_CYCLE_ERROR] Cycle-based error applied! address=0xfbd816f40 additional_latency=173500 cycles
Heartbeat CPU 0 instructions: 400000074 cycles: 1196449361 heartbeat IPC: 0.3339 cumulative IPC: 0.3343 (Simulation time: 01 hr 52 min 27 sec)
[ERROR_CYCLE] Error added at CPU cycle 1198722525, next at 1200139371, pending count: 1
[DRAM_CYCLE_ERROR] Cycle-based error applied! address=0xb51d65f00 additional_latency=173500 cycles
[ERROR_CYCLE] Error added at CPU cycle 1200139371, next at 1203745576, pending count: 1
[DRAM_CYCLE_ERROR] Cycle-based error applied! address=0x1ad07740d0 additional_latency=173500 cycles
[ERROR_CYCLE] Error added at CPU cycle 1203745577, next at 1206541145, pending count: 1
[DRAM_CYCLE_ERROR] Cycle-based error applied! address=0x18aaeb9c8 additional_latency=173500 cycles
[ERROR_CYCLE] Error added at CPU cycle 1206541145, next at 1208784502, pending count: 1
[DRAM_CYCLE_ERROR] Cycle-based error applied! address=0x100f734ed8 additional_latency=173500 cycles
[ERROR_CYCLE] Error added at CPU cycle 1208784502, next at 1232405280, pending count: 1
[DRAM_CYCLE_ERROR] Cycle-based error applied! address=0x1b0cf96718 additional_latency=173500 cycles
Heartbeat CPU 0 instructions: 410000076 cycles: 1226382524 heartbeat IPC: 0.3341 cumulative IPC: 0.3343 (Simulation time: 01 hr 55 min 27 sec)
[ERROR_CYCLE] Error added at CPU cycle 1232405281, next at 1236507134, pending count: 1
[DRAM_CYCLE_ERROR] Cycle-based error applied! address=0x18f9264840 additional_latency=173500 cycles
[ERROR_CYCLE] Error added at CPU cycle 1236507134, next at 1244305712, pending count: 1
[DRAM_CYCLE_ERROR] Cycle-based error applied! address=0x169c37e9a0 additional_latency=173500 cycles
[ERROR_CYCLE] Error added at CPU cycle 1244305712, next at 1247503943, pending count: 1
[DRAM_CYCLE_ERROR] Cycle-based error applied! address=0x1fd969c0e0 additional_latency=173500 cycles
[ERROR_CYCLE] Error added at CPU cycle 1247503943, next at 1254600384, pending count: 1
[DRAM_CYCLE_ERROR] Cycle-based error applied! address=0x51cf86cc0 additional_latency=173500 cycles
[ERROR_CYCLE] Error added at CPU cycle 1254600384, next at 1254717674, pending count: 1
[DRAM_CYCLE_ERROR] Cycle-based error applied! address=0x4baab1190 additional_latency=173500 cycles
[ERROR_CYCLE] Error added at CPU cycle 1254717674, next at 1256963700, pending count: 1
[DRAM_CYCLE_ERROR] Cycle-based error applied! address=0x10cf705e08 additional_latency=173500 cycles
Heartbeat CPU 0 instructions: 420000076 cycles: 1256343191 heartbeat IPC: 0.3338 cumulative IPC: 0.3343 (Simulation time: 01 hr 58 min 29 sec)
[ERROR_CYCLE] Error added at CPU cycle 1256963700, next at 1257921434, pending count: 1
[DRAM_CYCLE_ERROR] Cycle-based error applied! address=0x7b0fe2058 additional_latency=173500 cycles
[ERROR_CYCLE] Error added at CPU cycle 1257921435, next at 1268455648, pending count: 1
[DRAM_CYCLE_ERROR] Cycle-based error applied! address=0x5c8f3e488 additional_latency=173500 cycles
[ERROR_CYCLE] Error added at CPU cycle 1268455648, next at 1269143707, pending count: 1
[DRAM_CYCLE_ERROR] Cycle-based error applied! address=0xda9cda748 additional_latency=173500 cycles
[ERROR_CYCLE] Error added at CPU cycle 1269143707, next at 1278558868, pending count: 1
[DRAM_CYCLE_ERROR] Cycle-based error applied! address=0xb96c7e348 additional_latency=173500 cycles
[ERROR_CYCLE] Error added at CPU cycle 1278558869, next at 1287946456, pending count: 1
[DRAM_CYCLE_ERROR] Cycle-based error applied! address=0x1572835e50 additional_latency=173500 cycles
Heartbeat CPU 0 instructions: 430000076 cycles: 1286282147 heartbeat IPC: 0.334 cumulative IPC: 0.3343 (Simulation time: 02 hr 01 min 31 sec)
[ERROR_CYCLE] Error added at CPU cycle 1287946456, next at 1300702152, pending count: 1
[DRAM_CYCLE_ERROR] Cycle-based error applied! address=0x8540b5dc8 additional_latency=173500 cycles
[ERROR_CYCLE] Error added at CPU cycle 1300702153, next at 1309431894, pending count: 1
[DRAM_CYCLE_ERROR] Cycle-based error applied! address=0x3d9e125d8 additional_latency=173500 cycles
[ERROR_CYCLE] Error added at CPU cycle 1309431894, next at 1315837204, pending count: 1
[DRAM_CYCLE_ERROR] Cycle-based error applied! address=0x1106dbe800 additional_latency=173500 cycles
[ERROR_CYCLE] Error added at CPU cycle 1315837204, next at 1321488363, pending count: 1
[DRAM_CYCLE_ERROR] Cycle-based error applied! address=0x9831cbba8 additional_latency=173500 cycles
Heartbeat CPU 0 instructions: 440000080 cycles: 1316199087 heartbeat IPC: 0.3343 cumulative IPC: 0.3343 (Simulation time: 02 hr 04 min 34 sec)
[ERROR_CYCLE] Error added at CPU cycle 1321488363, next at 1323047984, pending count: 1
[DRAM_CYCLE_ERROR] Cycle-based error applied! address=0x12dfd850 additional_latency=173500 cycles
[ERROR_CYCLE] Error added at CPU cycle 1323047984, next at 1325903536, pending count: 1
[DRAM_CYCLE_ERROR] Cycle-based error applied! address=0xce28584d8 additional_latency=173500 cycles
[ERROR_CYCLE] Error added at CPU cycle 1325903536, next at 1326611268, pending count: 1
[DRAM_CYCLE_ERROR] Cycle-based error applied! address=0x1d6876e2c8 additional_latency=173500 cycles
[ERROR_CYCLE] Error added at CPU cycle 1326611268, next at 1332705889, pending count: 1
[DRAM_CYCLE_ERROR] Cycle-based error applied! address=0x1131dd1880 additional_latency=173500 cycles
[ERROR_CYCLE] Error added at CPU cycle 1332705890, next at 1340847840, pending count: 1
[DRAM_CYCLE_ERROR] Cycle-based error applied! address=0x1124f8fd98 additional_latency=173500 cycles
[ERROR_CYCLE] Error added at CPU cycle 1340847840, next at 1345469816, pending count: 1
[DRAM_CYCLE_ERROR] Cycle-based error applied! address=0x190c46c0d8 additional_latency=173500 cycles
[ERROR_CYCLE] Error added at CPU cycle 1345469816, next at 1345959592, pending count: 1
[DRAM_CYCLE_ERROR] Cycle-based error applied! address=0x144b423370 additional_latency=173500 cycles
[ERROR_CYCLE] Error added at CPU cycle 1345959593, next at 1347625360, pending count: 1
[DRAM_CYCLE_ERROR] Cycle-based error applied! address=0x17b8d0da88 additional_latency=173500 cycles
Heartbeat CPU 0 instructions: 450000081 cycles: 1346098654 heartbeat IPC: 0.3345 cumulative IPC: 0.3343 (Simulation time: 02 hr 07 min 06 sec)
[ERROR_CYCLE] Error added at CPU cycle 1347625360, next at 1351706167, pending count: 1
[DRAM_CYCLE_ERROR] Cycle-based error applied! address=0xa83247480 additional_latency=173500 cycles
[ERROR_CYCLE] Error added at CPU cycle 1351706167, next at 1358933144, pending count: 1
[DRAM_CYCLE_ERROR] Cycle-based error applied! address=0x107a951e30 additional_latency=173500 cycles
[ERROR_CYCLE] Error added at CPU cycle 1358933144, next at 1370326360, pending count: 1
[DRAM_CYCLE_ERROR] Cycle-based error applied! address=0x2bdaa35d8 additional_latency=173500 cycles
[ERROR_CYCLE] Error added at CPU cycle 1370326360, next at 1379014015, pending count: 1
[DRAM_CYCLE_ERROR] Cycle-based error applied! address=0xa15a83100 additional_latency=173500 cycles
Heartbeat CPU 0 instructions: 460000083 cycles: 1375936860 heartbeat IPC: 0.3351 cumulative IPC: 0.3343 (Simulation time: 02 hr 10 min 04 sec)
[ERROR_CYCLE] Error added at CPU cycle 1379014016, next at 1379564513, pending count: 1
[DRAM_CYCLE_ERROR] Cycle-based error applied! address=0x640321198 additional_latency=173500 cycles
[ERROR_CYCLE] Error added at CPU cycle 1379564514, next at 1386176235, pending count: 1
[DRAM_CYCLE_ERROR] Cycle-based error applied! address=0xdfb319b88 additional_latency=173500 cycles
[ERROR_CYCLE] Error added at CPU cycle 1386176235, next at 1386297657, pending count: 1
[DRAM_CYCLE_ERROR] Cycle-based error applied! address=0x1284ac2a90 additional_latency=173500 cycles
[ERROR_CYCLE] Error added at CPU cycle 1386297657, next at 1408852266, pending count: 1
[DRAM_CYCLE_ERROR] Cycle-based error applied! address=0xeb692da80 additional_latency=173500 cycles
Heartbeat CPU 0 instructions: 470000085 cycles: 1405717859 heartbeat IPC: 0.3358 cumulative IPC: 0.3343 (Simulation time: 02 hr 13 min 03 sec)
[ERROR_CYCLE] Error added at CPU cycle 1408852267, next at 1434518356, pending count: 1
[DRAM_CYCLE_ERROR] Cycle-based error applied! address=0x11ccd86b88 additional_latency=173500 cycles
[ERROR_CYCLE] Error added at CPU cycle 1434518357, next at 1435050701, pending count: 1
[DRAM_CYCLE_ERROR] Cycle-based error applied! address=0x3144e380 additional_latency=173500 cycles
[ERROR_CYCLE] Error added at CPU cycle 1435050702, next at 1438242552, pending count: 1
[DRAM_CYCLE_ERROR] Cycle-based error applied! address=0x10a8291fe0 additional_latency=173500 cycles
Heartbeat CPU 0 instructions: 480000086 cycles: 1435538396 heartbeat IPC: 0.3353 cumulative IPC: 0.3344 (Simulation time: 02 hr 15 min 55 sec)
[ERROR_CYCLE] Error added at CPU cycle 1438242552, next at 1439973246, pending count: 1
[DRAM_CYCLE_ERROR] Cycle-based error applied! address=0x466de2400 additional_latency=173500 cycles
[ERROR_CYCLE] Error added at CPU cycle 1439973247, next at 1453079371, pending count: 1
[DRAM_CYCLE_ERROR] Cycle-based error applied! address=0x9ae313850 additional_latency=173500 cycles
[ERROR_CYCLE] Error added at CPU cycle 1453079372, next at 1460423027, pending count: 1
[DRAM_CYCLE_ERROR] Cycle-based error applied! address=0x1cfe6277c8 additional_latency=173500 cycles
[ERROR_CYCLE] Error added at CPU cycle 1460423028, next at 1467814764, pending count: 1
[DRAM_CYCLE_ERROR] Cycle-based error applied! address=0xb181cdf40 additional_latency=173500 cycles
Heartbeat CPU 0 instructions: 490000086 cycles: 1465329409 heartbeat IPC: 0.3357 cumulative IPC: 0.3344 (Simulation time: 02 hr 18 min 53 sec)
[ERROR_CYCLE] Error added at CPU cycle 1467814764, next at 1475620213, pending count: 1
[DRAM_CYCLE_ERROR] Cycle-based error applied! address=0x1afc9b5ae0 additional_latency=173500 cycles
[ERROR_CYCLE] Error added at CPU cycle 1475620214, next at 1480513243, pending count: 1
[DRAM_CYCLE_ERROR] Cycle-based error applied! address=0x824e4ff00 additional_latency=173500 cycles
[ERROR_CYCLE] Error added at CPU cycle 1480513244, next at 1511248733, pending count: 1
[DRAM_CYCLE_ERROR] Cycle-based error applied! address=0x14d6fa3fd0 additional_latency=173500 cycles
Heartbeat CPU 0 instructions: 500000086 cycles: 1495226489 heartbeat IPC: 0.3345 cumulative IPC: 0.3344 (Simulation time: 02 hr 21 min 55 sec)
[ERROR_CYCLE] Error added at CPU cycle 1511248733, next at 1514446758, pending count: 1
[DRAM_CYCLE_ERROR] Cycle-based error applied! address=0xbe6103280 additional_latency=173500 cycles
[ERROR_CYCLE] Error added at CPU cycle 1514446758, next at 1515078884, pending count: 1
[DRAM_CYCLE_ERROR] Cycle-based error applied! address=0x1a44df9a08 additional_latency=173500 cycles
[ERROR_CYCLE] Error added at CPU cycle 1515078885, next at 1517294807, pending count: 1
[DRAM_CYCLE_ERROR] Cycle-based error applied! address=0xbf19f9a88 additional_latency=173500 cycles
[ERROR_CYCLE] Error added at CPU cycle 1517294807, next at 1519651159, pending count: 1
[DRAM_CYCLE_ERROR] Cycle-based error applied! address=0x176d3ffed0 additional_latency=173500 cycles
[ERROR_CYCLE] Error added at CPU cycle 1519651159, next at 1533218412, pending count: 1
[DRAM_CYCLE_ERROR] Cycle-based error applied! address=0x8f83ced8 additional_latency=173500 cycles
Heartbeat CPU 0 instructions: 510000087 cycles: 1525102147 heartbeat IPC: 0.3347 cumulative IPC: 0.3344 (Simulation time: 02 hr 24 min 35 sec)
[ERROR_CYCLE] Error added at CPU cycle 1533218412, next at 1535994456, pending count: 1
[DRAM_CYCLE_ERROR] Cycle-based error applied! address=0x43792ea88 additional_latency=173500 cycles
[ERROR_CYCLE] Error added at CPU cycle 1535994457, next at 1562717751, pending count: 1
[DRAM_CYCLE_ERROR] Cycle-based error applied! address=0x16d15304c8 additional_latency=173500 cycles
Heartbeat CPU 0 instructions: 520000087 cycles: 1554850173 heartbeat IPC: 0.3362 cumulative IPC: 0.3344 (Simulation time: 02 hr 26 min 57 sec)
[ERROR_CYCLE] Error added at CPU cycle 1562717751, next at 1566368072, pending count: 1
[DRAM_CYCLE_ERROR] Cycle-based error applied! address=0x25577ff18 additional_latency=173500 cycles
[ERROR_CYCLE] Error added at CPU cycle 1566368073, next at 1571530525, pending count: 1
[DRAM_CYCLE_ERROR] Cycle-based error applied! address=0x12bf4f3dc8 additional_latency=173500 cycles
[ERROR_CYCLE] Error added at CPU cycle 1571530526, next at 1580555846, pending count: 1
[DRAM_CYCLE_ERROR] Cycle-based error applied! address=0x1bfa43a550 additional_latency=173500 cycles
[ERROR_CYCLE] Error added at CPU cycle 1580555846, next at 1582872549, pending count: 1
[DRAM_CYCLE_ERROR] Cycle-based error applied! address=0x11d7f2d308 additional_latency=173500 cycles
[ERROR_CYCLE] Error added at CPU cycle 1582872550, next at 1599922964, pending count: 1
[DRAM_CYCLE_ERROR] Cycle-based error applied! address=0x8085a6748 additional_latency=173500 cycles
Heartbeat CPU 0 instructions: 530000091 cycles: 1584658227 heartbeat IPC: 0.3355 cumulative IPC: 0.3345 (Simulation time: 02 hr 29 min 58 sec)
[ERROR_CYCLE] Error added at CPU cycle 1599922964, next at 1631974949, pending count: 1
[DRAM_CYCLE_ERROR] Cycle-based error applied! address=0xa76f2bac0 additional_latency=173500 cycles
Heartbeat CPU 0 instructions: 540000093 cycles: 1614661940 heartbeat IPC: 0.3333 cumulative IPC: 0.3344 (Simulation time: 02 hr 32 min 46 sec)
[ERROR_CYCLE] Error added at CPU cycle 1631974950, next at 1633180686, pending count: 1
[DRAM_CYCLE_ERROR] Cycle-based error applied! address=0x1111fbfd98 additional_latency=173500 cycles
[ERROR_CYCLE] Error added at CPU cycle 1633180686, next at 1638048642, pending count: 1
[DRAM_CYCLE_ERROR] Cycle-based error applied! address=0x122db54758 additional_latency=173500 cycles
[ERROR_CYCLE] Error added at CPU cycle 1638048642, next at 1645854556, pending count: 1
[DRAM_CYCLE_ERROR] Cycle-based error applied! address=0xd4bcc08d8 additional_latency=173500 cycles
Heartbeat CPU 0 instructions: 550000093 cycles: 1644589846 heartbeat IPC: 0.3341 cumulative IPC: 0.3344 (Simulation time: 02 hr 35 min 38 sec)
[ERROR_CYCLE] Error added at CPU cycle 1645854557, next at 1648355040, pending count: 1
[DRAM_CYCLE_ERROR] Cycle-based error applied! address=0x11cf3b1a40 additional_latency=173500 cycles
[ERROR_CYCLE] Error added at CPU cycle 1648355040, next at 1665069057, pending count: 1
[DRAM_CYCLE_ERROR] Cycle-based error applied! address=0x42497c848 additional_latency=173500 cycles
[ERROR_CYCLE] Error added at CPU cycle 1665069058, next at 1669208916, pending count: 1
[DRAM_CYCLE_ERROR] Cycle-based error applied! address=0x13316e22c8 additional_latency=173500 cycles
[ERROR_CYCLE] Error added at CPU cycle 1669208917, next at 1697675054, pending count: 1
[DRAM_CYCLE_ERROR] Cycle-based error applied! address=0x9da5a1e48 additional_latency=173500 cycles
Heartbeat CPU 0 instructions: 560000095 cycles: 1674508622 heartbeat IPC: 0.3342 cumulative IPC: 0.3344 (Simulation time: 02 hr 38 min 16 sec)
[ERROR_CYCLE] Error added at CPU cycle 1697675055, next at 1701675293, pending count: 1
[DRAM_CYCLE_ERROR] Cycle-based error applied! address=0xdc4bbe90 additional_latency=173500 cycles
[ERROR_CYCLE] Error added at CPU cycle 1701675294, next at 1708716282, pending count: 1
[DRAM_CYCLE_ERROR] Cycle-based error applied! address=0x12d559a800 additional_latency=173500 cycles
Heartbeat CPU 0 instructions: 570000095 cycles: 1704355928 heartbeat IPC: 0.335 cumulative IPC: 0.3344 (Simulation time: 02 hr 41 min 03 sec)
[ERROR_CYCLE] Error added at CPU cycle 1708716282, next at 1709439797, pending count: 1
[DRAM_CYCLE_ERROR] Cycle-based error applied! address=0x155027c288 additional_latency=173500 cycles
[ERROR_CYCLE] Error added at CPU cycle 1709439798, next at 1711563017, pending count: 1
[DRAM_CYCLE_ERROR] Cycle-based error applied! address=0x1e06334220 additional_latency=173500 cycles
[ERROR_CYCLE] Error added at CPU cycle 1711563017, next at 1715003487, pending count: 1
[DRAM_CYCLE_ERROR] Cycle-based error applied! address=0x31d411048 additional_latency=173500 cycles
[ERROR_CYCLE] Error added at CPU cycle 1715003488, next at 1715066771, pending count: 1
[DRAM_CYCLE_ERROR] Cycle-based error applied! address=0x1fd57124c0 additional_latency=173500 cycles
[ERROR_CYCLE] Error added at CPU cycle 1715066772, next at 1736135364, pending count: 1
[DRAM_CYCLE_ERROR] Cycle-based error applied! address=0x1d4b28410 additional_latency=173500 cycles
Heartbeat CPU 0 instructions: 580000099 cycles: 1734230965 heartbeat IPC: 0.3347 cumulative IPC: 0.3344 (Simulation time: 02 hr 44 min 05 sec)
[ERROR_CYCLE] Error added at CPU cycle 1736135365, next at 1736452711, pending count: 1
[DRAM_CYCLE_ERROR] Cycle-based error applied! address=0x1c75d00518 additional_latency=173500 cycles
[ERROR_CYCLE] Error added at CPU cycle 1736452711, next at 1756027423, pending count: 1
[DRAM_CYCLE_ERROR] Cycle-based error applied! address=0x85b6af1e0 additional_latency=173500 cycles
[ERROR_CYCLE] Error added at CPU cycle 1756027423, next at 1763549234, pending count: 1
[DRAM_CYCLE_ERROR] Cycle-based error applied! address=0x1ab8007340 additional_latency=173500 cycles
[ERROR_CYCLE] Error added at CPU cycle 1763549234, next at 1773768970, pending count: 1
[DRAM_CYCLE_ERROR] Cycle-based error applied! address=0x17cbdd2a20 additional_latency=173500 cycles
Heartbeat CPU 0 instructions: 590000102 cycles: 1764126988 heartbeat IPC: 0.3345 cumulative IPC: 0.3344 (Simulation time: 02 hr 46 min 30 sec)
[ERROR_CYCLE] Error added at CPU cycle 1773768971, next at 1778443844, pending count: 1
[DRAM_CYCLE_ERROR] Cycle-based error applied! address=0x1013a5d1a0 additional_latency=173500 cycles
[ERROR_CYCLE] Error added at CPU cycle 1778443844, next at 1782835365, pending count: 1
[DRAM_CYCLE_ERROR] Cycle-based error applied! address=0xb01d553c8 additional_latency=173500 cycles
[ERROR_CYCLE] Error added at CPU cycle 1782835365, next at 1785615858, pending count: 1
[DRAM_CYCLE_ERROR] Cycle-based error applied! address=0x1d982b6ed8 additional_latency=173500 cycles
[ERROR_CYCLE] Error added at CPU cycle 1785615859, next at 1788412747, pending count: 1
[DRAM_CYCLE_ERROR] Cycle-based error applied! address=0x1810f45ce0 additional_latency=173500 cycles
[ERROR_CYCLE] Error added at CPU cycle 1788412747, next at 1790117615, pending count: 1
[DRAM_CYCLE_ERROR] Cycle-based error applied! address=0x1ba53c3fa8 additional_latency=173500 cycles
[ERROR_CYCLE] Error added at CPU cycle 1790117615, next at 1798464365, pending count: 1
[DRAM_CYCLE_ERROR] Cycle-based error applied! address=0x528cb94e0 additional_latency=173500 cycles
Heartbeat CPU 0 instructions: 600000104 cycles: 1793999089 heartbeat IPC: 0.3348 cumulative IPC: 0.3344 (Simulation time: 02 hr 48 min 49 sec)
[ERROR_CYCLE] Error added at CPU cycle 1798464365, next at 1814844775, pending count: 1
[DRAM_CYCLE_ERROR] Cycle-based error applied! address=0x1f4ac2fac0 additional_latency=173500 cycles
[ERROR_CYCLE] Error added at CPU cycle 1814844776, next at 1830785667, pending count: 1
[DRAM_CYCLE_ERROR] Cycle-based error applied! address=0xb0819e1c8 additional_latency=173500 cycles
Heartbeat CPU 0 instructions: 610000105 cycles: 1823934782 heartbeat IPC: 0.334 cumulative IPC: 0.3344 (Simulation time: 02 hr 51 min 44 sec)
[ERROR_CYCLE] Error added at CPU cycle 1830785668, next at 1835439145, pending count: 1
[DRAM_CYCLE_ERROR] Cycle-based error applied! address=0x9948b4110 additional_latency=173500 cycles
[ERROR_CYCLE] Error added at CPU cycle 1835439146, next at 1836059153, pending count: 1
[DRAM_CYCLE_ERROR] Cycle-based error applied! address=0x1d373e0640 additional_latency=173500 cycles
[ERROR_CYCLE] Error added at CPU cycle 1836059154, next at 1837493634, pending count: 1
[DRAM_CYCLE_ERROR] Cycle-based error applied! address=0xb547867c0 additional_latency=173500 cycles
[ERROR_CYCLE] Error added at CPU cycle 1837493635, next at 1844607626, pending count: 1
[DRAM_CYCLE_ERROR] Cycle-based error applied! address=0x8cd87f6e0 additional_latency=173500 cycles
[ERROR_CYCLE] Error added at CPU cycle 1844607626, next at 1854071328, pending count: 1
[DRAM_CYCLE_ERROR] Cycle-based error applied! address=0x1b7d32f978 additional_latency=173500 cycles
[ERROR_CYCLE] Error added at CPU cycle 1854071328, next at 1855472322, pending count: 1
[DRAM_CYCLE_ERROR] Cycle-based error applied! address=0x798694dd8 additional_latency=173500 cycles
[ERROR_CYCLE] Error added at CPU cycle 1855472323, next at 1857304410, pending count: 1
[DRAM_CYCLE_ERROR] Cycle-based error applied! address=0xd3b3565c0 additional_latency=173500 cycles
[ERROR_CYCLE] Error added at CPU cycle 1857304410, next at 1862584605, pending count: 1
[DRAM_CYCLE_ERROR] Cycle-based error applied! address=0x1757422810 additional_latency=173500 cycles
Heartbeat CPU 0 instructions: 620000107 cycles: 1858244014 heartbeat IPC: 0.2915 cumulative IPC: 0.3336 (Simulation time: 02 hr 55 min 03 sec)
[ERROR_CYCLE] Error added at CPU cycle 1862584605, next at 1864393960, pending count: 1
[DRAM_CYCLE_ERROR] Cycle-based error applied! address=0x3b6a03b48 additional_latency=173500 cycles
[ERROR_CYCLE] Error added at CPU cycle 1864393960, next at 1864933537, pending count: 1
[DRAM_CYCLE_ERROR] Cycle-based error applied! address=0xc3b21dfe0 additional_latency=173500 cycles
[ERROR_CYCLE] Error added at CPU cycle 1864933537, next at 1865851525, pending count: 1
[DRAM_CYCLE_ERROR] Cycle-based error applied! address=0x1f2ad1ccd0 additional_latency=173500 cycles
[ERROR_CYCLE] Error added at CPU cycle 1865851526, next at 1867251092, pending count: 1
[DRAM_CYCLE_ERROR] Cycle-based error applied! address=0xbc96c488 additional_latency=173500 cycles
[ERROR_CYCLE] Error added at CPU cycle 1867251092, next at 1900500575, pending count: 1
[DRAM_CYCLE_ERROR] Cycle-based error applied! address=0x1692cd0d0 additional_latency=173500 cycles
Heartbeat CPU 0 instructions: 630000107 cycles: 1891050023 heartbeat IPC: 0.3048 cumulative IPC: 0.3331 (Simulation time: 02 hr 58 min 14 sec)
[ERROR_CYCLE] Error added at CPU cycle 1900500576, next at 1910563094, pending count: 1
[DRAM_CYCLE_ERROR] Cycle-based error applied! address=0x4600c6c8 additional_latency=173500 cycles
[ERROR_CYCLE] Error added at CPU cycle 1910563095, next at 1915408338, pending count: 1
[DRAM_CYCLE_ERROR] Cycle-based error applied! address=0x14a7dbc6c0 additional_latency=173500 cycles
[ERROR_CYCLE] Error added at CPU cycle 1915408338, next at 1935312457, pending count: 1
[DRAM_CYCLE_ERROR] Cycle-based error applied! address=0x1ded5805c8 additional_latency=173500 cycles
Heartbeat CPU 0 instructions: 640000107 cycles: 1921956248 heartbeat IPC: 0.3236 cumulative IPC: 0.333 (Simulation time: 03 hr 01 min 20 sec)
[ERROR_CYCLE] Error added at CPU cycle 1935312457, next at 1939316428, pending count: 1
[DRAM_CYCLE_ERROR] Cycle-based error applied! address=0x3b88911c8 additional_latency=173500 cycles
[ERROR_CYCLE] Error added at CPU cycle 1939316429, next at 1943440983, pending count: 1
[DRAM_CYCLE_ERROR] Cycle-based error applied! address=0x196347b500 additional_latency=173500 cycles
[ERROR_CYCLE] Error added at CPU cycle 1943440984, next at 1969741263, pending count: 1
[DRAM_CYCLE_ERROR] Cycle-based error applied! address=0x11067c6510 additional_latency=173500 cycles
Heartbeat CPU 0 instructions: 650000107 cycles: 1953497939 heartbeat IPC: 0.317 cumulative IPC: 0.3327 (Simulation time: 03 hr 04 min 31 sec)
[ERROR_CYCLE] Error added at CPU cycle 1969741263, next at 1976892412, pending count: 1
[DRAM_CYCLE_ERROR] Cycle-based error applied! address=0x158858f790 additional_latency=173500 cycles
[ERROR_CYCLE] Error added at CPU cycle 1976892413, next at 1985788570, pending count: 1
[DRAM_CYCLE_ERROR] Cycle-based error applied! address=0x3c7a298d0 additional_latency=173500 cycles
Heartbeat CPU 0 instructions: 660000108 cycles: 1983811718 heartbeat IPC: 0.3299 cumulative IPC: 0.3327 (Simulation time: 03 hr 07 min 14 sec)
[ERROR_CYCLE] Error added at CPU cycle 1985788571, next at 1987556565, pending count: 1
[DRAM_CYCLE_ERROR] Cycle-based error applied! address=0x1bdf734f30 additional_latency=173500 cycles
[ERROR_CYCLE] Error added at CPU cycle 1987556566, next at 1990261281, pending count: 1
[DRAM_CYCLE_ERROR] Cycle-based error applied! address=0x1edd3fa688 additional_latency=173500 cycles
[ERROR_CYCLE] Error added at CPU cycle 1990261282, next at 1993701914, pending count: 1
[DRAM_CYCLE_ERROR] Cycle-based error applied! address=0x8e9d10a0 additional_latency=173500 cycles
[ERROR_CYCLE] Error added at CPU cycle 1993701914, next at 2004551432, pending count: 1
[DRAM_CYCLE_ERROR] Cycle-based error applied! address=0xa709c26d0 additional_latency=173500 cycles
[ERROR_CYCLE] Error added at CPU cycle 2004551432, next at 2012423380, pending count: 1
[DRAM_CYCLE_ERROR] Cycle-based error applied! address=0x1dc25f3950 additional_latency=173500 cycles
[ERROR_CYCLE] Error added at CPU cycle 2012423380, next at 2016554019, pending count: 1
[DRAM_CYCLE_ERROR] Cycle-based error applied! address=0x1735105c8 additional_latency=173500 cycles
Heartbeat CPU 0 instructions: 670000109 cycles: 2013747706 heartbeat IPC: 0.334 cumulative IPC: 0.3327 (Simulation time: 03 hr 09 min 48 sec)
[ERROR_CYCLE] Error added at CPU cycle 2016554019, next at 2021582144, pending count: 1
[DRAM_CYCLE_ERROR] Cycle-based error applied! address=0xc82bf0108 additional_latency=173500 cycles
[ERROR_CYCLE] Error added at CPU cycle 2021582145, next at 2027830179, pending count: 1
[DRAM_CYCLE_ERROR] Cycle-based error applied! address=0x184e6dd360 additional_latency=173500 cycles
[ERROR_CYCLE] Error added at CPU cycle 2027830180, next at 2031708010, pending count: 1
[DRAM_CYCLE_ERROR] Cycle-based error applied! address=0x1284f5c8d0 additional_latency=173500 cycles
[ERROR_CYCLE] Error added at CPU cycle 2031708011, next at 2033085878, pending count: 1
[DRAM_CYCLE_ERROR] Cycle-based error applied! address=0xb42d460c8 additional_latency=173500 cycles
[ERROR_CYCLE] Error added at CPU cycle 2033085879, next at 2050412514, pending count: 1
[DRAM_CYCLE_ERROR] Cycle-based error applied! address=0x16e7916558 additional_latency=173500 cycles
Heartbeat CPU 0 instructions: 680000110 cycles: 2043621994 heartbeat IPC: 0.3347 cumulative IPC: 0.3327 (Simulation time: 03 hr 12 min 21 sec)
[ERROR_CYCLE] Error added at CPU cycle 2050412514, next at 2059398746, pending count: 1
[DRAM_CYCLE_ERROR] Cycle-based error applied! address=0x127775448 additional_latency=173500 cycles
[ERROR_CYCLE] Error added at CPU cycle 2059398746, next at 2067629437, pending count: 1
[DRAM_CYCLE_ERROR] Cycle-based error applied! address=0xb02790010 additional_latency=173500 cycles
[ERROR_CYCLE] Error added at CPU cycle 2067629437, next at 2106934259, pending count: 1
[DRAM_CYCLE_ERROR] Cycle-based error applied! address=0x1d8b0704b8 additional_latency=173500 cycles
Heartbeat CPU 0 instructions: 690000111 cycles: 2073405143 heartbeat IPC: 0.3358 cumulative IPC: 0.3328 (Simulation time: 03 hr 15 min 09 sec)
Heartbeat CPU 0 instructions: 700000115 cycles: 2103157773 heartbeat IPC: 0.3361 cumulative IPC: 0.3328 (Simulation time: 03 hr 18 min 10 sec)
[ERROR_CYCLE] Error added at CPU cycle 2106934259, next at 2110315627, pending count: 1
[DRAM_CYCLE_ERROR] Cycle-based error applied! address=0x7f1cb1f00 additional_latency=173500 cycles
[ERROR_CYCLE] Error added at CPU cycle 2110315627, next at 2118569518, pending count: 1
[DRAM_CYCLE_ERROR] Cycle-based error applied! address=0x40db64400 additional_latency=173500 cycles
[ERROR_CYCLE] Error added at CPU cycle 2118569518, next at 2119210001, pending count: 1
[DRAM_CYCLE_ERROR] Cycle-based error applied! address=0x1c09b76250 additional_latency=173500 cycles
[ERROR_CYCLE] Error added at CPU cycle 2119210001, next at 2124520168, pending count: 1
[DRAM_CYCLE_ERROR] Cycle-based error applied! address=0x1d6a44fe10 additional_latency=173500 cycles
[ERROR_CYCLE] Error added at CPU cycle 2124520168, next at 2130820746, pending count: 1
[DRAM_CYCLE_ERROR] Cycle-based error applied! address=0x115e13ec60 additional_latency=173500 cycles
[ERROR_CYCLE] Error added at CPU cycle 2130820746, next at 2149422911, pending count: 1
[DRAM_CYCLE_ERROR] Cycle-based error applied! address=0xb14a33710 additional_latency=173500 cycles
Heartbeat CPU 0 instructions: 710000116 cycles: 2132945697 heartbeat IPC: 0.3357 cumulative IPC: 0.3329 (Simulation time: 03 hr 21 min 10 sec)
[ERROR_CYCLE] Error added at CPU cycle 2149422912, next at 2165592258, pending count: 1
[DRAM_CYCLE_ERROR] Cycle-based error applied! address=0x179bb53ba0 additional_latency=173500 cycles
Heartbeat CPU 0 instructions: 720000117 cycles: 2162692969 heartbeat IPC: 0.3362 cumulative IPC: 0.3329 (Simulation time: 03 hr 24 min 09 sec)
[ERROR_CYCLE] Error added at CPU cycle 2165592259, next at 2166000139, pending count: 1
[DRAM_CYCLE_ERROR] Cycle-based error applied! address=0xb47e40300 additional_latency=173500 cycles
[ERROR_CYCLE] Error added at CPU cycle 2166000139, next at 2169428774, pending count: 1
[DRAM_CYCLE_ERROR] Cycle-based error applied! address=0x64bf7ab08 additional_latency=173500 cycles
[ERROR_CYCLE] Error added at CPU cycle 2169428774, next at 2177935414, pending count: 1
[DRAM_CYCLE_ERROR] Cycle-based error applied! address=0x4033b1498 additional_latency=173500 cycles
[ERROR_CYCLE] Error added at CPU cycle 2177935415, next at 2187353454, pending count: 1
[DRAM_CYCLE_ERROR] Cycle-based error applied! address=0x678d58248 additional_latency=173500 cycles
[ERROR_CYCLE] Error added at CPU cycle 2187353454, next at 2210064718, pending count: 1
[DRAM_CYCLE_ERROR] Cycle-based error applied! address=0xbb41559c0 additional_latency=173500 cycles
Heartbeat CPU 0 instructions: 730000120 cycles: 2192584804 heartbeat IPC: 0.3345 cumulative IPC: 0.3329 (Simulation time: 03 hr 27 min 07 sec)
[ERROR_CYCLE] Error added at CPU cycle 2210064719, next at 2214888135, pending count: 1
[DRAM_CYCLE_ERROR] Cycle-based error applied! address=0xccb94c098 additional_latency=173500 cycles
[ERROR_CYCLE] Error added at CPU cycle 2214888136, next at 2227682588, pending count: 1
[DRAM_CYCLE_ERROR] Cycle-based error applied! address=0xafd88dcc0 additional_latency=173500 cycles
Heartbeat CPU 0 instructions: 740000121 cycles: 2222497483 heartbeat IPC: 0.3343 cumulative IPC: 0.333 (Simulation time: 03 hr 30 min 02 sec)
[ERROR_CYCLE] Error added at CPU cycle 2227682589, next at 2233464834, pending count: 1
[DRAM_CYCLE_ERROR] Cycle-based error applied! address=0x1ec1429208 additional_latency=173500 cycles
[ERROR_CYCLE] Error added at CPU cycle 2233464834, next at 2241434258, pending count: 1
[DRAM_CYCLE_ERROR] Cycle-based error applied! address=0x418012540 additional_latency=173500 cycles
[ERROR_CYCLE] Error added at CPU cycle 2241434259, next at 2241811042, pending count: 1
[DRAM_CYCLE_ERROR] Cycle-based error applied! address=0x1e8bf89c20 additional_latency=173500 cycles
[ERROR_CYCLE] Error added at CPU cycle 2241811042, next at 2244262384, pending count: 1
[DRAM_CYCLE_ERROR] Cycle-based error applied! address=0x1c93cc39d8 additional_latency=173500 cycles
[ERROR_CYCLE] Error added at CPU cycle 2244262384, next at 2247145011, pending count: 1
[DRAM_CYCLE_ERROR] Cycle-based error applied! address=0xce160a6c0 additional_latency=173500 cycles
[ERROR_CYCLE] Error added at CPU cycle 2247145011, next at 2253047404, pending count: 1
[DRAM_CYCLE_ERROR] Cycle-based error applied! address=0xd97739b90 additional_latency=173500 cycles
Heartbeat CPU 0 instructions: 750000122 cycles: 2252396494 heartbeat IPC: 0.3345 cumulative IPC: 0.333 (Simulation time: 03 hr 32 min 35 sec)
[ERROR_CYCLE] Error added at CPU cycle 2253047405, next at 2261281241, pending count: 1
[DRAM_CYCLE_ERROR] Cycle-based error applied! address=0x14c1b69650 additional_latency=173500 cycles
[ERROR_CYCLE] Error added at CPU cycle 2261281241, next at 2288732855, pending count: 1
[DRAM_CYCLE_ERROR] Cycle-based error applied! address=0x1be62e2050 additional_latency=173500 cycles
Heartbeat CPU 0 instructions: 760000122 cycles: 2282358588 heartbeat IPC: 0.3338 cumulative IPC: 0.333 (Simulation time: 03 hr 35 min 11 sec)
[ERROR_CYCLE] Error added at CPU cycle 2288732855, next at 2296178606, pending count: 1
[DRAM_CYCLE_ERROR] Cycle-based error applied! address=0xc4c5b40d8 additional_latency=173500 cycles
[ERROR_CYCLE] Error added at CPU cycle 2296178606, next at 2307270106, pending count: 1
[DRAM_CYCLE_ERROR] Cycle-based error applied! address=0x1122d86210 additional_latency=173500 cycles
[ERROR_CYCLE] Error added at CPU cycle 2307270106, next at 2314261925, pending count: 1
[DRAM_CYCLE_ERROR] Cycle-based error applied! address=0x381c1eac8 additional_latency=173500 cycles
Heartbeat CPU 0 instructions: 770000122 cycles: 2312326248 heartbeat IPC: 0.3337 cumulative IPC: 0.333 (Simulation time: 03 hr 38 min 07 sec)
[ERROR_CYCLE] Error added at CPU cycle 2314261925, next at 2319922213, pending count: 1
[DRAM_CYCLE_ERROR] Cycle-based error applied! address=0xe93796c40 additional_latency=173500 cycles
[ERROR_CYCLE] Error added at CPU cycle 2319922214, next at 2337341922, pending count: 1
[DRAM_CYCLE_ERROR] Cycle-based error applied! address=0xe46f95610 additional_latency=173500 cycles
[ERROR_CYCLE] Error added at CPU cycle 2337341923, next at 2341021142, pending count: 1
[DRAM_CYCLE_ERROR] Cycle-based error applied! address=0x11245b4ec8 additional_latency=173500 cycles
[ERROR_CYCLE] Error added at CPU cycle 2341021143, next at 2353732863, pending count: 1
[DRAM_CYCLE_ERROR] Cycle-based error applied! address=0x9a49e1ec0 additional_latency=173500 cycles
Heartbeat CPU 0 instructions: 780000124 cycles: 2342185527 heartbeat IPC: 0.3349 cumulative IPC: 0.333 (Simulation time: 03 hr 40 min 54 sec)
[ERROR_CYCLE] Error added at CPU cycle 2353732863, next at 2354242305, pending count: 1
[DRAM_CYCLE_ERROR] Cycle-based error applied! address=0x5b79852d8 additional_latency=173500 cycles
[ERROR_CYCLE] Error added at CPU cycle 2354242305, next at 2366128568, pending count: 1
[DRAM_CYCLE_ERROR] Cycle-based error applied! address=0x1370d3ecd8 additional_latency=173500 cycles
[ERROR_CYCLE] Error added at CPU cycle 2366128568, next at 2378498969, pending count: 1
[DRAM_CYCLE_ERROR] Cycle-based error applied! address=0xd691d08 additional_latency=173500 cycles
Heartbeat CPU 0 instructions: 790000127 cycles: 2371946427 heartbeat IPC: 0.336 cumulative IPC: 0.3331 (Simulation time: 03 hr 43 min 28 sec)
[ERROR_CYCLE] Error added at CPU cycle 2378498969, next at 2389561859, pending count: 1
[DRAM_CYCLE_ERROR] Cycle-based error applied! address=0x7f9e2ec48 additional_latency=173500 cycles
[ERROR_CYCLE] Error added at CPU cycle 2389561860, next at 2419565806, pending count: 1
[DRAM_CYCLE_ERROR] Cycle-based error applied! address=0x17d124eed0 additional_latency=173500 cycles
Heartbeat CPU 0 instructions: 800000128 cycles: 2401855752 heartbeat IPC: 0.3343 cumulative IPC: 0.3331 (Simulation time: 03 hr 45 min 55 sec)
[ERROR_CYCLE] Error added at CPU cycle 2419565807, next at 2420105318, pending count: 1
[DRAM_CYCLE_ERROR] Cycle-based error applied! address=0x134d917e80 additional_latency=173500 cycles
[ERROR_CYCLE] Error added at CPU cycle 2420105319, next at 2431250999, pending count: 1
[DRAM_CYCLE_ERROR] Cycle-based error applied! address=0x190973eb00 additional_latency=173500 cycles
[ERROR_CYCLE] Error added at CPU cycle 2431250999, next at 2433725303, pending count: 1
[DRAM_CYCLE_ERROR] Cycle-based error applied! address=0x1f3da3c500 additional_latency=173500 cycles
Heartbeat CPU 0 instructions: 810000128 cycles: 2431770210 heartbeat IPC: 0.3343 cumulative IPC: 0.3331 (Simulation time: 03 hr 48 min 39 sec)
[ERROR_CYCLE] Error added at CPU cycle 2433725304, next at 2439322859, pending count: 1
[DRAM_CYCLE_ERROR] Cycle-based error applied! address=0x88b27c618 additional_latency=173500 cycles
[ERROR_CYCLE] Error added at CPU cycle 2439322860, next at 2457183998, pending count: 1
[DRAM_CYCLE_ERROR] Cycle-based error applied! address=0xf493fb408 additional_latency=173500 cycles
[ERROR_CYCLE] Error added at CPU cycle 2457183998, next at 2460351086, pending count: 1
[DRAM_CYCLE_ERROR] Cycle-based error applied! address=0x182550f060 additional_latency=173500 cycles
[ERROR_CYCLE] Error added at CPU cycle 2460351086, next at 2481283387, pending count: 1
[DRAM_CYCLE_ERROR] Cycle-based error applied! address=0x147cd52700 additional_latency=173500 cycles
Heartbeat CPU 0 instructions: 820000128 cycles: 2461744020 heartbeat IPC: 0.3336 cumulative IPC: 0.3331 (Simulation time: 03 hr 51 min 40 sec)
[ERROR_CYCLE] Error added at CPU cycle 2481283387, next at 2484187671, pending count: 1
[DRAM_CYCLE_ERROR] Cycle-based error applied! address=0xbc0714d10 additional_latency=173500 cycles
[ERROR_CYCLE] Error added at CPU cycle 2484187671, next at 2496585366, pending count: 1
[DRAM_CYCLE_ERROR] Cycle-based error applied! address=0xa06281ee0 additional_latency=173500 cycles
Heartbeat CPU 0 instructions: 830000128 cycles: 2491656163 heartbeat IPC: 0.3343 cumulative IPC: 0.3331 (Simulation time: 03 hr 54 min 31 sec)
[ERROR_CYCLE] Error added at CPU cycle 2496585366, next at 2518974390, pending count: 1
[DRAM_CYCLE_ERROR] Cycle-based error applied! address=0xcbf6a2608 additional_latency=173500 cycles
[ERROR_CYCLE] Error added at CPU cycle 2518974390, next at 2519350462, pending count: 1
[DRAM_CYCLE_ERROR] Cycle-based error applied! address=0xfb80f6d98 additional_latency=173500 cycles
[ERROR_CYCLE] Error added at CPU cycle 2519350462, next at 2529791563, pending count: 1
[DRAM_CYCLE_ERROR] Cycle-based error applied! address=0x6c34f7ea0 additional_latency=173500 cycles
Heartbeat CPU 0 instructions: 840000128 cycles: 2521530060 heartbeat IPC: 0.3347 cumulative IPC: 0.3331 (Simulation time: 03 hr 57 min 28 sec)
[ERROR_CYCLE] Error added at CPU cycle 2529791563, next at 2535624350, pending count: 1
[DRAM_CYCLE_ERROR] Cycle-based error applied! address=0x6e1ec2940 additional_latency=173500 cycles
[ERROR_CYCLE] Error added at CPU cycle 2535624351, next at 2537193033, pending count: 1
[DRAM_CYCLE_ERROR] Cycle-based error applied! address=0x6a2028a58 additional_latency=173500 cycles
[ERROR_CYCLE] Error added at CPU cycle 2537193033, next at 2539406753, pending count: 1
[DRAM_CYCLE_ERROR] Cycle-based error applied! address=0x1145f82618 additional_latency=173500 cycles
[ERROR_CYCLE] Error added at CPU cycle 2539406754, next at 2545392493, pending count: 1
[DRAM_CYCLE_ERROR] Cycle-based error applied! address=0x5dc3c33c8 additional_latency=173500 cycles
[ERROR_CYCLE] Error added at CPU cycle 2545392493, next at 2547873819, pending count: 1
[DRAM_CYCLE_ERROR] Cycle-based error applied! address=0x1b30984508 additional_latency=173500 cycles
[ERROR_CYCLE] Error added at CPU cycle 2547873820, next at 2553808031, pending count: 1
[DRAM_CYCLE_ERROR] Cycle-based error applied! address=0x1d1f4bc68 additional_latency=173500 cycles
Heartbeat CPU 0 instructions: 850000131 cycles: 2551408933 heartbeat IPC: 0.3347 cumulative IPC: 0.3331 (Simulation time: 04 hr 00 min 24 sec)
[ERROR_CYCLE] Error added at CPU cycle 2553808032, next at 2557993327, pending count: 1
[DRAM_CYCLE_ERROR] Cycle-based error applied! address=0x5db6b9ac8 additional_latency=173500 cycles
[ERROR_CYCLE] Error added at CPU cycle 2557993328, next at 2559354305, pending count: 1
[DRAM_CYCLE_ERROR] Cycle-based error applied! address=0xfab31af40 additional_latency=173500 cycles
[ERROR_CYCLE] Error added at CPU cycle 2559354305, next at 2565617397, pending count: 1
[DRAM_CYCLE_ERROR] Cycle-based error applied! address=0x1f049e5c0 additional_latency=173500 cycles
[ERROR_CYCLE] Error added at CPU cycle 2565617398, next at 2589075952, pending count: 1
[DRAM_CYCLE_ERROR] Cycle-based error applied! address=0x13c4af20c0 additional_latency=173500 cycles
Heartbeat CPU 0 instructions: 860000134 cycles: 2581166840 heartbeat IPC: 0.336 cumulative IPC: 0.3332 (Simulation time: 04 hr 03 min 21 sec)
[ERROR_CYCLE] Error added at CPU cycle 2589075953, next at 2593877875, pending count: 1
[DRAM_CYCLE_ERROR] Cycle-based error applied! address=0x1fd6047220 additional_latency=173500 cycles
[ERROR_CYCLE] Error added at CPU cycle 2593877876, next at 2606344063, pending count: 1
[DRAM_CYCLE_ERROR] Cycle-based error applied! address=0xda4883688 additional_latency=173500 cycles
[ERROR_CYCLE] Error added at CPU cycle 2606344063, next at 2610704056, pending count: 1
[DRAM_CYCLE_ERROR] Cycle-based error applied! address=0xf618db300 additional_latency=173500 cycles
[ERROR_CYCLE] Error added at CPU cycle 2610704056, next at 2630475245, pending count: 1
[DRAM_CYCLE_ERROR] Cycle-based error applied! address=0x1b7c04e710 additional_latency=173500 cycles
Heartbeat CPU 0 instructions: 870000134 cycles: 2610905584 heartbeat IPC: 0.3363 cumulative IPC: 0.3332 (Simulation time: 04 hr 06 min 19 sec)
[ERROR_CYCLE] Error added at CPU cycle 2630475246, next at 2640791493, pending count: 1
[DRAM_CYCLE_ERROR] Cycle-based error applied! address=0x758745188 additional_latency=173500 cycles
Heartbeat CPU 0 instructions: 880000136 cycles: 2640627239 heartbeat IPC: 0.3365 cumulative IPC: 0.3333 (Simulation time: 04 hr 09 min 20 sec)
[ERROR_CYCLE] Error added at CPU cycle 2640791494, next at 2644247825, pending count: 1
[DRAM_CYCLE_ERROR] Cycle-based error applied! address=0x1ebde58f08 additional_latency=173500 cycles
[ERROR_CYCLE] Error added at CPU cycle 2644247825, next at 2656939740, pending count: 1
[DRAM_CYCLE_ERROR] Cycle-based error applied! address=0x141dbe9700 additional_latency=173500 cycles
[ERROR_CYCLE] Error added at CPU cycle 2656939740, next at 2661483893, pending count: 1
[DRAM_CYCLE_ERROR] Cycle-based error applied! address=0x1bd01cdcc0 additional_latency=173500 cycles
[ERROR_CYCLE] Error added at CPU cycle 2661483893, next at 2674328280, pending count: 1
[DRAM_CYCLE_ERROR] Cycle-based error applied! address=0xa06a54690 additional_latency=173500 cycles
Heartbeat CPU 0 instructions: 890000137 cycles: 2670396023 heartbeat IPC: 0.3359 cumulative IPC: 0.3333 (Simulation time: 04 hr 12 min 22 sec)
[ERROR_CYCLE] Error added at CPU cycle 2674328280, next at 2679170229, pending count: 1
[DRAM_CYCLE_ERROR] Cycle-based error applied! address=0x41a7d2ed0 additional_latency=173500 cycles
[ERROR_CYCLE] Error added at CPU cycle 2679170229, next at 2680204502, pending count: 1
[DRAM_CYCLE_ERROR] Cycle-based error applied! address=0x17f9fb52c8 additional_latency=173500 cycles
[ERROR_CYCLE] Error added at CPU cycle 2680204502, next at 2680931504, pending count: 1
[DRAM_CYCLE_ERROR] Cycle-based error applied! address=0x1e699aacf0 additional_latency=173500 cycles
[ERROR_CYCLE] Error added at CPU cycle 2680931505, next at 2683649452, pending count: 1
[DRAM_CYCLE_ERROR] Cycle-based error applied! address=0x1aae8ddd08 additional_latency=173500 cycles
[ERROR_CYCLE] Error added at CPU cycle 2683649453, next at 2691489675, pending count: 1
[DRAM_CYCLE_ERROR] Cycle-based error applied! address=0x1b0fe79d8 additional_latency=173500 cycles
[ERROR_CYCLE] Error added at CPU cycle 2691489675, next at 2695565770, pending count: 1
[DRAM_CYCLE_ERROR] Cycle-based error applied! address=0xad3ff2310 additional_latency=173500 cycles
[ERROR_CYCLE] Error added at CPU cycle 2695565771, next at 2722764317, pending count: 1
[DRAM_CYCLE_ERROR] Cycle-based error applied! address=0x1599c11b18 additional_latency=173500 cycles
Heartbeat CPU 0 instructions: 900000137 cycles: 2700204737 heartbeat IPC: 0.3355 cumulative IPC: 0.3333 (Simulation time: 04 hr 15 min 21 sec)
[ERROR_CYCLE] Error added at CPU cycle 2722764317, next at 2723650833, pending count: 1
[DRAM_CYCLE_ERROR] Cycle-based error applied! address=0x522aa6698 additional_latency=173500 cycles
[ERROR_CYCLE] Error added at CPU cycle 2723650833, next at 2729058022, pending count: 1
[DRAM_CYCLE_ERROR] Cycle-based error applied! address=0xcc7f59f40 additional_latency=173500 cycles
[...]
[ERROR_CYCLE] Error added at CPU cycle 5370815237, next at 5392771863, pending count: 1
[DRAM_CYCLE_ERROR] Cycle-based error applied! address=0x453b71748 additional_latency=173500 cycles
Heartbeat CPU 0 instructions: 1810000253 cycles: 5389399343 heartbeat IPC: 0.3482 cumulative IPC: 0.3358 (Simulation time: 08 hr 30 min 17 sec)
[ERROR_CYCLE] Error added at CPU cycle 5392771864, next at 5424328695, pending count: 1
[DRAM_CYCLE_ERROR] Cycle-based error applied! address=0x17cd99dfd8 additional_latency=173500 cycles
Heartbeat CPU 0 instructions: 1820000255 cycles: 5418097748 heartbeat IPC: 0.3485 cumulative IPC: 0.3359 (Simulation time: 08 hr 32 min 50 sec)
[ERROR_CYCLE] Error added at CPU cycle 5424328695, next at 5447052050, pending count: 1
[DRAM_CYCLE_ERROR] Cycle-based error applied! address=0xf44840fa0 additional_latency=173500 cycles
Heartbeat CPU 0 instructions: 1830000257 cycles: 5446777275 heartbeat IPC: 0.3487 cumulative IPC: 0.336 (Simulation time: 08 hr 35 min 45 sec)
[ERROR_CYCLE] Error added at CPU cycle 5447052051, next at 5448202294, pending count: 1
[DRAM_CYCLE_ERROR] Cycle-based error applied! address=0xc5ebe61d0 additional_latency=173500 cycles
[ERROR_CYCLE] Error added at CPU cycle 5448202294, next at 5478298901, pending count: 1
[DRAM_CYCLE_ERROR] Cycle-based error applied! address=0x1d29c8fec0 additional_latency=173500 cycles
Heartbeat CPU 0 instructions: 1840000259 cycles: 5475487110 heartbeat IPC: 0.3483 cumulative IPC: 0.336 (Simulation time: 08 hr 38 min 39 sec)
[ERROR_CYCLE] Error added at CPU cycle 5478298901, next at 5488967470, pending count: 1
[DRAM_CYCLE_ERROR] Cycle-based error applied! address=0xf765a56a0 additional_latency=173500 cycles
[ERROR_CYCLE] Error added at CPU cycle 5488967471, next at 5493848346, pending count: 1
[DRAM_CYCLE_ERROR] Cycle-based error applied! address=0x9265f0780 additional_latency=173500 cycles
[ERROR_CYCLE] Error added at CPU cycle 5493848347, next at 5494684621, pending count: 1
[DRAM_CYCLE_ERROR] Cycle-based error applied! address=0x185e276dc8 additional_latency=173500 cycles
[ERROR_CYCLE] Error added at CPU cycle 5494684622, next at 5495217819, pending count: 1
[DRAM_CYCLE_ERROR] Cycle-based error applied! address=0x1055832c60 additional_latency=173500 cycles
[ERROR_CYCLE] Error added at CPU cycle 5495217819, next at 5508397346, pending count: 1
[DRAM_CYCLE_ERROR] Cycle-based error applied! address=0x461a84c88 additional_latency=173500 cycles
Heartbeat CPU 0 instructions: 1850000259 cycles: 5504198267 heartbeat IPC: 0.3483 cumulative IPC: 0.3361 (Simulation time: 08 hr 41 min 35 sec)
[ERROR_CYCLE] Error added at CPU cycle 5508397346, next at 5510294520, pending count: 1
[DRAM_CYCLE_ERROR] Cycle-based error applied! address=0x167db82440 additional_latency=173500 cycles
[ERROR_CYCLE] Error added at CPU cycle 5510294521, next at 5534864816, pending count: 1
[DRAM_CYCLE_ERROR] Cycle-based error applied! address=0x66f6f0148 additional_latency=173500 cycles
Heartbeat CPU 0 instructions: 1860000262 cycles: 5532939787 heartbeat IPC: 0.3479 cumulative IPC: 0.3362 (Simulation time: 08 hr 44 min 15 sec)
[ERROR_CYCLE] Error added at CPU cycle 5534864816, next at 5578479641, pending count: 1
[DRAM_CYCLE_ERROR] Cycle-based error applied! address=0x554194de0 additional_latency=173500 cycles
Heartbeat CPU 0 instructions: 1870000263 cycles: 5561616189 heartbeat IPC: 0.3487 cumulative IPC: 0.3362 (Simulation time: 08 hr 47 min 09 sec)
[ERROR_CYCLE] Error added at CPU cycle 5578479642, next at 5583762269, pending count: 1
[DRAM_CYCLE_ERROR] Cycle-based error applied! address=0x8726f7618 additional_latency=173500 cycles
[ERROR_CYCLE] Error added at CPU cycle 5583762269, next at 5594700965, pending count: 1
[DRAM_CYCLE_ERROR] Cycle-based error applied! address=0x1f45389f88 additional_latency=173500 cycles
Heartbeat CPU 0 instructions: 1880000264 cycles: 5590319414 heartbeat IPC: 0.3484 cumulative IPC: 0.3363 (Simulation time: 08 hr 50 min 03 sec)
[ERROR_CYCLE] Error added at CPU cycle 5594700966, next at 5609845163, pending count: 1
[DRAM_CYCLE_ERROR] Cycle-based error applied! address=0x1911c49c90 additional_latency=173500 cycles
[ERROR_CYCLE] Error added at CPU cycle 5609845163, next at 5625307705, pending count: 1
[DRAM_CYCLE_ERROR] Cycle-based error applied! address=0x13d8824720 additional_latency=173500 cycles
Heartbeat CPU 0 instructions: 1890000267 cycles: 5619007633 heartbeat IPC: 0.3486 cumulative IPC: 0.3364 (Simulation time: 08 hr 52 min 55 sec)
[ERROR_CYCLE] Error added at CPU cycle 5625307705, next at 5630131237, pending count: 1
[DRAM_CYCLE_ERROR] Cycle-based error applied! address=0x139a2ef058 additional_latency=173500 cycles
[ERROR_CYCLE] Error added at CPU cycle 5630131237, next at 5633691021, pending count: 1
[DRAM_CYCLE_ERROR] Cycle-based error applied! address=0x382f96d50 additional_latency=173500 cycles
[ERROR_CYCLE] Error added at CPU cycle 5633691022, next at 5645246612, pending count: 1
[DRAM_CYCLE_ERROR] Cycle-based error applied! address=0xa36796908 additional_latency=173500 cycles
[ERROR_CYCLE] Error added at CPU cycle 5645246612, next at 5658780233, pending count: 1
[DRAM_CYCLE_ERROR] Cycle-based error applied! address=0x157ae84f40 additional_latency=173500 cycles
Heartbeat CPU 0 instructions: 1900000271 cycles: 5647696564 heartbeat IPC: 0.3486 cumulative IPC: 0.3364 (Simulation time: 08 hr 55 min 08 sec)
[ERROR_CYCLE] Error added at CPU cycle 5658780233, next at 5675903779, pending count: 1
[DRAM_CYCLE_ERROR] Cycle-based error applied! address=0x1d95dc7be0 additional_latency=173500 cycles
[ERROR_CYCLE] Error added at CPU cycle 5675903780, next at 5677987004, pending count: 1
[DRAM_CYCLE_ERROR] Cycle-based error applied! address=0x1b907e2d60 additional_latency=173500 cycles
Heartbeat CPU 0 instructions: 1910000274 cycles: 5676412422 heartbeat IPC: 0.3482 cumulative IPC: 0.3365 (Simulation time: 08 hr 57 min 52 sec)
[ERROR_CYCLE] Error added at CPU cycle 5677987005, next at 5680468267, pending count: 1
[DRAM_CYCLE_ERROR] Cycle-based error applied! address=0xc2777d448 additional_latency=173500 cycles
[ERROR_CYCLE] Error added at CPU cycle 5680468267, next at 5707426427, pending count: 1
[DRAM_CYCLE_ERROR] Cycle-based error applied! address=0x15b7989fc0 additional_latency=173500 cycles
Heartbeat CPU 0 instructions: 1920000278 cycles: 5705135467 heartbeat IPC: 0.3482 cumulative IPC: 0.3365 (Simulation time: 09 hr 00 min 48 sec)
[ERROR_CYCLE] Error added at CPU cycle 5707426428, next at 5708861478, pending count: 1
[DRAM_CYCLE_ERROR] Cycle-based error applied! address=0xc3436f490 additional_latency=173500 cycles
[ERROR_CYCLE] Error added at CPU cycle 5708861478, next at 5711454655, pending count: 1
[DRAM_CYCLE_ERROR] Cycle-based error applied! address=0x17708b4588 additional_latency=173500 cycles
[ERROR_CYCLE] Error added at CPU cycle 5711454656, next at 5716853052, pending count: 1
[DRAM_CYCLE_ERROR] Cycle-based error applied! address=0xae69b2c90 additional_latency=173500 cycles
[ERROR_CYCLE] Error added at CPU cycle 5716853053, next at 5736465651, pending count: 1
[DRAM_CYCLE_ERROR] Cycle-based error applied! address=0x537d21ce0 additional_latency=173500 cycles
Heartbeat CPU 0 instructions: 1930000280 cycles: 5733876342 heartbeat IPC: 0.3479 cumulative IPC: 0.3366 (Simulation time: 09 hr 03 min 44 sec)
[ERROR_CYCLE] Error added at CPU cycle 5736465651, next at 5741573713, pending count: 1
[DRAM_CYCLE_ERROR] Cycle-based error applied! address=0x5da089490 additional_latency=173500 cycles
[ERROR_CYCLE] Error added at CPU cycle 5741573713, next at 5742686502, pending count: 1
[DRAM_CYCLE_ERROR] Cycle-based error applied! address=0xa13a4c380 additional_latency=173500 cycles
[ERROR_CYCLE] Error added at CPU cycle 5742686503, next at 5753492505, pending count: 1
[DRAM_CYCLE_ERROR] Cycle-based error applied! address=0x174e658010 additional_latency=173500 cycles
[ERROR_CYCLE] Error added at CPU cycle 5753492506, next at 5756929185, pending count: 1
[DRAM_CYCLE_ERROR] Cycle-based error applied! address=0x153dffbfd0 additional_latency=173500 cycles
[ERROR_CYCLE] Error added at CPU cycle 5756929185, next at 5759662932, pending count: 1
[DRAM_CYCLE_ERROR] Cycle-based error applied! address=0x6486dbbd0 additional_latency=173500 cycles
[ERROR_CYCLE] Error added at CPU cycle 5759662932, next at 5773903196, pending count: 1
[DRAM_CYCLE_ERROR] Cycle-based error applied! address=0xb3b461610 additional_latency=173500 cycles
Heartbeat CPU 0 instructions: 1940000280 cycles: 5762643210 heartbeat IPC: 0.3476 cumulative IPC: 0.3367 (Simulation time: 09 hr 06 min 31 sec)
[ERROR_CYCLE] Error added at CPU cycle 5773903196, next at 5774938343, pending count: 1
[DRAM_CYCLE_ERROR] Cycle-based error applied! address=0x1113012018 additional_latency=173500 cycles
[ERROR_CYCLE] Error added at CPU cycle 5774938344, next at 5776165031, pending count: 1
[DRAM_CYCLE_ERROR] Cycle-based error applied! address=0x94c9c9fa0 additional_latency=173500 cycles
[ERROR_CYCLE] Error added at CPU cycle 5776165031, next at 5794148278, pending count: 1
[DRAM_CYCLE_ERROR] Cycle-based error applied! address=0x13dee417d8 additional_latency=173500 cycles
Heartbeat CPU 0 instructions: 1950000281 cycles: 5791363656 heartbeat IPC: 0.3482 cumulative IPC: 0.3367 (Simulation time: 09 hr 09 min 27 sec)
[ERROR_CYCLE] Error added at CPU cycle 5794148279, next at 5804235352, pending count: 1
[DRAM_CYCLE_ERROR] Cycle-based error applied! address=0xd43a9ecc8 additional_latency=173500 cycles
[ERROR_CYCLE] Error added at CPU cycle 5804235352, next at 5805903364, pending count: 1
[DRAM_CYCLE_ERROR] Cycle-based error applied! address=0x56a596918 additional_latency=173500 cycles
[ERROR_CYCLE] Error added at CPU cycle 5805903364, next at 5807765797, pending count: 1
[DRAM_CYCLE_ERROR] Cycle-based error applied! address=0x1ea0fbb648 additional_latency=173500 cycles
[ERROR_CYCLE] Error added at CPU cycle 5807765798, next at 5826376344, pending count: 1
[DRAM_CYCLE_ERROR] Cycle-based error applied! address=0x93016fb40 additional_latency=173500 cycles
Heartbeat CPU 0 instructions: 1960000284 cycles: 5820075418 heartbeat IPC: 0.3483 cumulative IPC: 0.3368 (Simulation time: 09 hr 12 min 13 sec)
[ERROR_CYCLE] Error added at CPU cycle 5826376345, next at 5833771326, pending count: 1
[DRAM_CYCLE_ERROR] Cycle-based error applied! address=0x18614a8790 additional_latency=173500 cycles
[ERROR_CYCLE] Error added at CPU cycle 5833771327, next at 5849673083, pending count: 1
[DRAM_CYCLE_ERROR] Cycle-based error applied! address=0x1fd3684240 additional_latency=173500 cycles
Heartbeat CPU 0 instructions: 1970000284 cycles: 5848795929 heartbeat IPC: 0.3482 cumulative IPC: 0.3368 (Simulation time: 09 hr 14 min 50 sec)
[ERROR_CYCLE] Error added at CPU cycle 5849673083, next at 5849744588, pending count: 1
[DRAM_CYCLE_ERROR] Cycle-based error applied! address=0x1edb6970d0 additional_latency=173500 cycles
[ERROR_CYCLE] Error added at CPU cycle 5849744589, next at 5859082726, pending count: 1
[DRAM_CYCLE_ERROR] Cycle-based error applied! address=0xb61af18e0 additional_latency=173500 cycles
[ERROR_CYCLE] Error added at CPU cycle 5859082726, next at 5873384995, pending count: 1
[DRAM_CYCLE_ERROR] Cycle-based error applied! address=0x1c90d82488 additional_latency=173500 cycles
[ERROR_CYCLE] Error added at CPU cycle 5873384995, next at 5881455893, pending count: 1
[DRAM_CYCLE_ERROR] Cycle-based error applied! address=0x72685a648 additional_latency=173500 cycles
Heartbeat CPU 0 instructions: 1980000285 cycles: 5877518760 heartbeat IPC: 0.3482 cumulative IPC: 0.3369 (Simulation time: 09 hr 17 min 47 sec)
[ERROR_CYCLE] Error added at CPU cycle 5881455893, next at 5891401510, pending count: 1
[DRAM_CYCLE_ERROR] Cycle-based error applied! address=0xd6831e5a0 additional_latency=173500 cycles
[ERROR_CYCLE] Error added at CPU cycle 5891401511, next at 5894071816, pending count: 1
[DRAM_CYCLE_ERROR] Cycle-based error applied! address=0x7abc32b60 additional_latency=173500 cycles
[ERROR_CYCLE] Error added at CPU cycle 5894071817, next at 5894265656, pending count: 1
[DRAM_CYCLE_ERROR] Cycle-based error applied! address=0x1b79727840 additional_latency=173500 cycles
[ERROR_CYCLE] Error added at CPU cycle 5894265656, next at 5902807994, pending count: 1
[DRAM_CYCLE_ERROR] Cycle-based error applied! address=0x130c8fe8c0 additional_latency=173500 cycles
[ERROR_CYCLE] Error added at CPU cycle 5902807995, next at 5920843407, pending count: 1
[DRAM_CYCLE_ERROR] Cycle-based error applied! address=0x2fbe752e0 additional_latency=173500 cycles
Heartbeat CPU 0 instructions: 1990000285 cycles: 5906230117 heartbeat IPC: 0.3483 cumulative IPC: 0.3369 (Simulation time: 09 hr 20 min 43 sec)
[ERROR_CYCLE] Error added at CPU cycle 5920843407, next at 5921524246, pending count: 1
[DRAM_CYCLE_ERROR] Cycle-based error applied! address=0x36ebe6cc0 additional_latency=173500 cycles
[ERROR_CYCLE] Error added at CPU cycle 5921524246, next at 5931737783, pending count: 1
[DRAM_CYCLE_ERROR] Cycle-based error applied! address=0x185c2bf708 additional_latency=173500 cycles
[ERROR_CYCLE] Error added at CPU cycle 5931737783, next at 5936046270, pending count: 1
[DRAM_CYCLE_ERROR] Cycle-based error applied! address=0x1115a762d0 additional_latency=173500 cycles

=== ERROR PAGE STATISTICS ===
Mode: CYCLE
Error Cycle Interval: 8000000 CPU cycles
Total Error Accesses: 743
==============================
Simulation finished CPU 0 instructions: 1999999981 cycles: 5934853792 cumulative IPC: 0.337 (Simulation time: 09 hr 23 min 10 sec)
Simulation complete CPU 0 instructions: 1999999981 cycles: 5934853792 cumulative IPC: 0.337 (Simulation time: 09 hr 23 min 10 sec)

ChampSim completed all CPUs

=== Simulation ===
CPU 0 runs test_traces/602.gcc_s-1850B.champsimtrace.xz

Region of Interest Statistics

CPU 0 cumulative IPC: 0.337 instructions: 1999999981 cycles: 5934853792
CPU 0 Branch Prediction Accuracy: 92.26% MPKI: 19.84 Average ROB Occupancy at Mispredict: 28.45
Branch type MPKI
BRANCH_DIRECT_JUMP: 0.0104
BRANCH_INDIRECT: 0
BRANCH_CONDITIONAL: 19.83
BRANCH_DIRECT_CALL: 8.5e-06
BRANCH_INDIRECT_CALL: 0
BRANCH_RETURN: 7e-06

cpu0->cpu0_STLB TOTAL        ACCESS:     748409 HIT:     106518 MISS:     641891 MSHR_MERGE:          0
cpu0->cpu0_STLB LOAD         ACCESS:     748409 HIT:     106518 MISS:     641891 MSHR_MERGE:          0
cpu0->cpu0_STLB RFO          ACCESS:          0 HIT:          0 MISS:          0 MSHR_MERGE:          0
cpu0->cpu0_STLB PREFETCH     ACCESS:          0 HIT:          0 MISS:          0 MSHR_MERGE:          0
cpu0->cpu0_STLB WRITE        ACCESS:          0 HIT:          0 MISS:          0 MSHR_MERGE:          0
cpu0->cpu0_STLB TRANSLATION  ACCESS:          0 HIT:          0 MISS:          0 MSHR_MERGE:          0
cpu0->cpu0_STLB PREFETCH REQUESTED:          0 ISSUED:          0 USEFUL:          0 USELESS:          0
cpu0->cpu0_STLB AVERAGE MISS LATENCY: 472.9 cycles
cpu0->cpu0_L2C TOTAL        ACCESS:   48249093 HIT:   12592235 MISS:   35656858 MSHR_MERGE:          0
cpu0->cpu0_L2C LOAD         ACCESS:   48104366 HIT:   12464387 MISS:   35639979 MSHR_MERGE:          0
cpu0->cpu0_L2C RFO          ACCESS:      16940 HIT:        110 MISS:      16830 MSHR_MERGE:          0
cpu0->cpu0_L2C PREFETCH     ACCESS:          0 HIT:          0 MISS:          0 MSHR_MERGE:          0
cpu0->cpu0_L2C WRITE        ACCESS:     127787 HIT:     127738 MISS:         49 MSHR_MERGE:          0
cpu0->cpu0_L2C TRANSLATION  ACCESS:          0 HIT:          0 MISS:          0 MSHR_MERGE:          0
cpu0->cpu0_L2C PREFETCH REQUESTED:          0 ISSUED:          0 USEFUL:          0 USELESS:          0
cpu0->cpu0_L2C AVERAGE MISS LATENCY: 106.2 cycles
cpu0->cpu0_L1I TOTAL        ACCESS:      78830 HIT:      78770 MISS:         60 MSHR_MERGE:          3
cpu0->cpu0_L1I LOAD         ACCESS:      78830 HIT:      78770 MISS:         60 MSHR_MERGE:          3
cpu0->cpu0_L1I RFO          ACCESS:          0 HIT:          0 MISS:          0 MSHR_MERGE:          0
cpu0->cpu0_L1I PREFETCH     ACCESS:          0 HIT:          0 MISS:          0 MSHR_MERGE:          0
cpu0->cpu0_L1I WRITE        ACCESS:          0 HIT:          0 MISS:          0 MSHR_MERGE:          0
cpu0->cpu0_L1I TRANSLATION  ACCESS:          0 HIT:          0 MISS:          0 MSHR_MERGE:          0
cpu0->cpu0_L1I PREFETCH REQUESTED:          0 ISSUED:          0 USEFUL:          0 USELESS:          0
cpu0->cpu0_L1I AVERAGE MISS LATENCY: 112.4 cycles
cpu0->cpu0_L1D TOTAL        ACCESS:  605677995 HIT:  522293724 MISS:   83384271 MSHR_MERGE:   35263022
cpu0->cpu0_L1D LOAD         ACCESS:  433055425 HIT:  349688604 MISS:   83366821 MSHR_MERGE:   35262512
cpu0->cpu0_L1D RFO          ACCESS:          0 HIT:          0 MISS:          0 MSHR_MERGE:          0
cpu0->cpu0_L1D PREFETCH     ACCESS:          0 HIT:          0 MISS:          0 MSHR_MERGE:          0
cpu0->cpu0_L1D WRITE        ACCESS:  172622570 HIT:  172605120 MISS:      17450 MSHR_MERGE:        510
cpu0->cpu0_L1D TRANSLATION  ACCESS:          0 HIT:          0 MISS:          0 MSHR_MERGE:          0
cpu0->cpu0_L1D PREFETCH REQUESTED:          0 ISSUED:          0 USEFUL:          0 USELESS:          0
cpu0->cpu0_L1D AVERAGE MISS LATENCY: 87.41 cycles
cpu0->cpu0_ITLB TOTAL        ACCESS:      74129 HIT:      74120 MISS:          9 MSHR_MERGE:          3
cpu0->cpu0_ITLB LOAD         ACCESS:      74129 HIT:      74120 MISS:          9 MSHR_MERGE:          3
cpu0->cpu0_ITLB RFO          ACCESS:          0 HIT:          0 MISS:          0 MSHR_MERGE:          0
cpu0->cpu0_ITLB PREFETCH     ACCESS:          0 HIT:          0 MISS:          0 MSHR_MERGE:          0
cpu0->cpu0_ITLB WRITE        ACCESS:          0 HIT:          0 MISS:          0 MSHR_MERGE:          0
cpu0->cpu0_ITLB TRANSLATION  ACCESS:          0 HIT:          0 MISS:          0 MSHR_MERGE:          0
cpu0->cpu0_ITLB PREFETCH REQUESTED:          0 ISSUED:          0 USEFUL:          0 USELESS:          0
cpu0->cpu0_ITLB AVERAGE MISS LATENCY: 787.8 cycles
cpu0->cpu0_DTLB TOTAL        ACCESS:  552104856 HIT:  550734515 MISS:    1370341 MSHR_MERGE:     621938
cpu0->cpu0_DTLB LOAD         ACCESS:  552104856 HIT:  550734515 MISS:    1370341 MSHR_MERGE:     621938
cpu0->cpu0_DTLB RFO          ACCESS:          0 HIT:          0 MISS:          0 MSHR_MERGE:          0
cpu0->cpu0_DTLB PREFETCH     ACCESS:          0 HIT:          0 MISS:          0 MSHR_MERGE:          0
cpu0->cpu0_DTLB WRITE        ACCESS:          0 HIT:          0 MISS:          0 MSHR_MERGE:          0
cpu0->cpu0_DTLB TRANSLATION  ACCESS:          0 HIT:          0 MISS:          0 MSHR_MERGE:          0
cpu0->cpu0_DTLB PREFETCH REQUESTED:          0 ISSUED:          0 USEFUL:          0 USELESS:          0
cpu0->cpu0_DTLB AVERAGE MISS LATENCY: 411.4 cycles
cpu0->LLC TOTAL        ACCESS:   35706991 HIT:     117421 MISS:   35589570 MSHR_MERGE:          0
cpu0->LLC LOAD         ACCESS:   35639979 HIT:      67523 MISS:   35572456 MSHR_MERGE:          0
cpu0->LLC RFO          ACCESS:      16830 HIT:         59 MISS:      16771 MSHR_MERGE:          0
cpu0->LLC PREFETCH     ACCESS:          0 HIT:          0 MISS:          0 MSHR_MERGE:          0
cpu0->LLC WRITE        ACCESS:      50182 HIT:      49839 MISS:        343 MSHR_MERGE:          0
cpu0->LLC TRANSLATION  ACCESS:          0 HIT:          0 MISS:          0 MSHR_MERGE:          0
cpu0->LLC PREFETCH REQUESTED:          0 ISSUED:          0 USEFUL:          0 USELESS:          0
cpu0->LLC AVERAGE MISS LATENCY: 90.34 cycles

DRAM Statistics

Channel 0 RQ ROW_BUFFER_HIT:       7350
  ROW_BUFFER_MISS:   18436046
  AVG DBUS CONGESTED CYCLE: 11.73
Channel 0 WQ ROW_BUFFER_HIT:       2868
  ROW_BUFFER_MISS:      22306
  FULL:          0
Channel 0 REFRESHES ISSUED:     494539

Channel 1 RQ ROW_BUFFER_HIT:       7903
  ROW_BUFFER_MISS:   18437023
  AVG DBUS CONGESTED CYCLE: 11.77
Channel 1 WQ ROW_BUFFER_HIT:       2869
  ROW_BUFFER_MISS:      22077
  FULL:          0
Channel 1 REFRESHES ISSUED:     494539
