[VMEM] WARNING: physical memory size is smaller than virtual memory size.

*** ChampSim Multicore Out-of-Order Simulator ***
Warmup Instructions: 0
Simulation Instructions: 9223372036854775807
Number of CPUs: 1
Page size: 2097152

Off-chip DRAM Size: 32 GiB Channels: 2 Width: 32-bit Data Rate: 4807 MT/s
[ERROR_PAGE_MANAGER] Error latency: 1990500 
[ERROR_PAGE_MANAGER] Random seed: 54321 (fixed for preload reproducibility)
[ERROR_PAGE_MANAGER] Cycle-based error modeling enabled
[ERROR_PAGE_MANAGER] Errors per interval: 1
[ERROR_PAGE_MANAGER] Error cycle interval: 200000000 cycles

=== ERROR PAGE STATISTICS ===
Mode: CYCLE
Error Cycle Interval: 200000000 CPU cycles
Total Error Accesses: 0
==============================
Warmup finished CPU 0 instructions: 0 cycles: 1 cumulative IPC: 0 (Simulation time: 00 hr 00 min 00 sec)
Warmup complete CPU 0 instructions: 0 cycles: 1 cumulative IPC: 0 (Simulation time: 00 hr 00 min 00 sec)
Heartbeat CPU 0 instructions: 10000001 cycles: 10917800 heartbeat IPC: 0.9159 cumulative IPC: 0.9159 (Simulation time: 00 hr 01 min 31 sec)
Heartbeat CPU 0 instructions: 20000004 cycles: 21708684 heartbeat IPC: 0.9267 cumulative IPC: 0.9213 (Simulation time: 00 hr 03 min 16 sec)
Heartbeat CPU 0 instructions: 30000005 cycles: 32490287 heartbeat IPC: 0.9275 cumulative IPC: 0.9234 (Simulation time: 00 hr 04 min 59 sec)
Heartbeat CPU 0 instructions: 40000008 cycles: 43388029 heartbeat IPC: 0.9176 cumulative IPC: 0.9219 (Simulation time: 00 hr 06 min 44 sec)
Heartbeat CPU 0 instructions: 50000010 cycles: 54203516 heartbeat IPC: 0.9246 cumulative IPC: 0.9224 (Simulation time: 00 hr 08 min 28 sec)
Heartbeat CPU 0 instructions: 60000010 cycles: 64992420 heartbeat IPC: 0.9269 cumulative IPC: 0.9232 (Simulation time: 00 hr 10 min 13 sec)
Heartbeat CPU 0 instructions: 70000012 cycles: 75758783 heartbeat IPC: 0.9288 cumulative IPC: 0.924 (Simulation time: 00 hr 11 min 56 sec)
Heartbeat CPU 0 instructions: 80000015 cycles: 86659761 heartbeat IPC: 0.9173 cumulative IPC: 0.9232 (Simulation time: 00 hr 13 min 41 sec)
Heartbeat CPU 0 instructions: 90000018 cycles: 97437894 heartbeat IPC: 0.9278 cumulative IPC: 0.9237 (Simulation time: 00 hr 15 min 15 sec)
Heartbeat CPU 0 instructions: 100000021 cycles: 108314319 heartbeat IPC: 0.9194 cumulative IPC: 0.9232 (Simulation time: 00 hr 16 min 57 sec)
Heartbeat CPU 0 instructions: 110000022 cycles: 119270009 heartbeat IPC: 0.9128 cumulative IPC: 0.9223 (Simulation time: 00 hr 18 min 31 sec)
Heartbeat CPU 0 instructions: 120000025 cycles: 130332001 heartbeat IPC: 0.904 cumulative IPC: 0.9207 (Simulation time: 00 hr 20 min 14 sec)
Heartbeat CPU 0 instructions: 130000029 cycles: 141152478 heartbeat IPC: 0.9242 cumulative IPC: 0.921 (Simulation time: 00 hr 21 min 59 sec)
[ERROR_CYCLE] Error added at CPU cycle 142556113, next at 183066125, pending count: 1
[DRAM_CYCLE_ERROR] Cycle-based error applied! address=0x6a321fcc0 additional_latency=1990500 cycles
Heartbeat CPU 0 instructions: 140000029 cycles: 151973030 heartbeat IPC: 0.9242 cumulative IPC: 0.9212 (Simulation time: 00 hr 23 min 43 sec)
Heartbeat CPU 0 instructions: 150000029 cycles: 162788026 heartbeat IPC: 0.9246 cumulative IPC: 0.9214 (Simulation time: 00 hr 25 min 28 sec)
Heartbeat CPU 0 instructions: 160000031 cycles: 173648043 heartbeat IPC: 0.9208 cumulative IPC: 0.9214 (Simulation time: 00 hr 27 min 13 sec)
[ERROR_CYCLE] Error added at CPU cycle 183066126, next at 513921280, pending count: 1
[DRAM_CYCLE_ERROR] Cycle-based error applied! address=0x4a314a808 additional_latency=1990500 cycles
Heartbeat CPU 0 instructions: 170000031 cycles: 184498801 heartbeat IPC: 0.9216 cumulative IPC: 0.9214 (Simulation time: 00 hr 28 min 58 sec)
Heartbeat CPU 0 instructions: 180000032 cycles: 195424041 heartbeat IPC: 0.9153 cumulative IPC: 0.9211 (Simulation time: 00 hr 30 min 43 sec)
Heartbeat CPU 0 instructions: 190000036 cycles: 206334089 heartbeat IPC: 0.9166 cumulative IPC: 0.9208 (Simulation time: 00 hr 32 min 29 sec)
Heartbeat CPU 0 instructions: 200000039 cycles: 217110131 heartbeat IPC: 0.928 cumulative IPC: 0.9212 (Simulation time: 00 hr 34 min 01 sec)
Heartbeat CPU 0 instructions: 210000041 cycles: 228029201 heartbeat IPC: 0.9158 cumulative IPC: 0.9209 (Simulation time: 00 hr 35 min 28 sec)
Heartbeat CPU 0 instructions: 220000041 cycles: 238830728 heartbeat IPC: 0.9258 cumulative IPC: 0.9212 (Simulation time: 00 hr 37 min 13 sec)
Heartbeat CPU 0 instructions: 230000044 cycles: 249637227 heartbeat IPC: 0.9254 cumulative IPC: 0.9213 (Simulation time: 00 hr 38 min 59 sec)
Heartbeat CPU 0 instructions: 240000044 cycles: 260438094 heartbeat IPC: 0.9259 cumulative IPC: 0.9215 (Simulation time: 00 hr 40 min 45 sec)
Heartbeat CPU 0 instructions: 250000048 cycles: 271255326 heartbeat IPC: 0.9245 cumulative IPC: 0.9216 (Simulation time: 00 hr 42 min 31 sec)
Heartbeat CPU 0 instructions: 260000052 cycles: 282038129 heartbeat IPC: 0.9274 cumulative IPC: 0.9219 (Simulation time: 00 hr 44 min 03 sec)
Heartbeat CPU 0 instructions: 270000052 cycles: 292836768 heartbeat IPC: 0.926 cumulative IPC: 0.922 (Simulation time: 00 hr 45 min 34 sec)
Heartbeat CPU 0 instructions: 280000054 cycles: 309685814 heartbeat IPC: 0.5935 cumulative IPC: 0.9041 (Simulation time: 00 hr 48 min 18 sec)
Heartbeat CPU 0 instructions: 290000054 cycles: 327901468 heartbeat IPC: 0.549 cumulative IPC: 0.8844 (Simulation time: 00 hr 51 min 08 sec)
Heartbeat CPU 0 instructions: 300000058 cycles: 339232318 heartbeat IPC: 0.8825 cumulative IPC: 0.8843 (Simulation time: 00 hr 52 min 35 sec)
Heartbeat CPU 0 instructions: 310000059 cycles: 350413231 heartbeat IPC: 0.8944 cumulative IPC: 0.8847 (Simulation time: 00 hr 54 min 06 sec)
Heartbeat CPU 0 instructions: 320000059 cycles: 361564002 heartbeat IPC: 0.8968 cumulative IPC: 0.885 (Simulation time: 00 hr 55 min 47 sec)
Heartbeat CPU 0 instructions: 330000061 cycles: 372629032 heartbeat IPC: 0.9037 cumulative IPC: 0.8856 (Simulation time: 00 hr 57 min 17 sec)
Heartbeat CPU 0 instructions: 340000061 cycles: 383639120 heartbeat IPC: 0.9083 cumulative IPC: 0.8862 (Simulation time: 00 hr 59 min 04 sec)
Heartbeat CPU 0 instructions: 350000062 cycles: 394608067 heartbeat IPC: 0.9117 cumulative IPC: 0.887 (Simulation time: 01 hr 00 min 28 sec)
Heartbeat CPU 0 instructions: 360000066 cycles: 405576774 heartbeat IPC: 0.9117 cumulative IPC: 0.8876 (Simulation time: 01 hr 02 min 12 sec)
Heartbeat CPU 0 instructions: 370000067 cycles: 416535527 heartbeat IPC: 0.9125 cumulative IPC: 0.8883 (Simulation time: 01 hr 03 min 58 sec)
Heartbeat CPU 0 instructions: 380000068 cycles: 427518089 heartbeat IPC: 0.9105 cumulative IPC: 0.8889 (Simulation time: 01 hr 05 min 43 sec)
Heartbeat CPU 0 instructions: 390000069 cycles: 438640479 heartbeat IPC: 0.8991 cumulative IPC: 0.8891 (Simulation time: 01 hr 07 min 21 sec)
Heartbeat CPU 0 instructions: 400000073 cycles: 449607872 heartbeat IPC: 0.9118 cumulative IPC: 0.8897 (Simulation time: 01 hr 08 min 44 sec)
Heartbeat CPU 0 instructions: 410000073 cycles: 460609951 heartbeat IPC: 0.9089 cumulative IPC: 0.8901 (Simulation time: 01 hr 10 min 17 sec)
Heartbeat CPU 0 instructions: 420000075 cycles: 471687419 heartbeat IPC: 0.9027 cumulative IPC: 0.8904 (Simulation time: 01 hr 11 min 59 sec)
Heartbeat CPU 0 instructions: 430000079 cycles: 482660628 heartbeat IPC: 0.9113 cumulative IPC: 0.8909 (Simulation time: 01 hr 13 min 42 sec)
Heartbeat CPU 0 instructions: 440000082 cycles: 493628853 heartbeat IPC: 0.9117 cumulative IPC: 0.8914 (Simulation time: 01 hr 15 min 25 sec)
Heartbeat CPU 0 instructions: 450000086 cycles: 504592639 heartbeat IPC: 0.9121 cumulative IPC: 0.8918 (Simulation time: 01 hr 17 min 09 sec)
[ERROR_CYCLE] Error added at CPU cycle 513921281, next at 1069353794, pending count: 1
[DRAM_CYCLE_ERROR] Cycle-based error applied! address=0x4d5b7cf18 additional_latency=1990500 cycles
Heartbeat CPU 0 instructions: 460000087 cycles: 515562259 heartbeat IPC: 0.9116 cumulative IPC: 0.8922 (Simulation time: 01 hr 18 min 52 sec)
Heartbeat CPU 0 instructions: 470000089 cycles: 526513386 heartbeat IPC: 0.9131 cumulative IPC: 0.8927 (Simulation time: 01 hr 20 min 35 sec)
Heartbeat CPU 0 instructions: 480000089 cycles: 537476738 heartbeat IPC: 0.9121 cumulative IPC: 0.8931 (Simulation time: 01 hr 22 min 18 sec)
Heartbeat CPU 0 instructions: 490000091 cycles: 548424082 heartbeat IPC: 0.9135 cumulative IPC: 0.8935 (Simulation time: 01 hr 24 min 01 sec)
Heartbeat CPU 0 instructions: 500000094 cycles: 559406324 heartbeat IPC: 0.9106 cumulative IPC: 0.8938 (Simulation time: 01 hr 25 min 45 sec)
Heartbeat CPU 0 instructions: 510000098 cycles: 570377194 heartbeat IPC: 0.9115 cumulative IPC: 0.8941 (Simulation time: 01 hr 27 min 13 sec)
Heartbeat CPU 0 instructions: 520000101 cycles: 581334499 heartbeat IPC: 0.9126 cumulative IPC: 0.8945 (Simulation time: 01 hr 28 min 59 sec)
Heartbeat CPU 0 instructions: 530000102 cycles: 592299951 heartbeat IPC: 0.912 cumulative IPC: 0.8948 (Simulation time: 01 hr 30 min 33 sec)
Heartbeat CPU 0 instructions: 540000103 cycles: 603271465 heartbeat IPC: 0.9115 cumulative IPC: 0.8951 (Simulation time: 01 hr 31 min 53 sec)
Heartbeat CPU 0 instructions: 550000105 cycles: 614254565 heartbeat IPC: 0.9105 cumulative IPC: 0.8954 (Simulation time: 01 hr 33 min 37 sec)
Heartbeat CPU 0 instructions: 560000106 cycles: 625229255 heartbeat IPC: 0.9112 cumulative IPC: 0.8957 (Simulation time: 01 hr 35 min 22 sec)
Heartbeat CPU 0 instructions: 570000106 cycles: 636204002 heartbeat IPC: 0.9112 cumulative IPC: 0.8959 (Simulation time: 01 hr 37 min 07 sec)
Heartbeat CPU 0 instructions: 580000106 cycles: 647176131 heartbeat IPC: 0.9114 cumulative IPC: 0.8962 (Simulation time: 01 hr 38 min 46 sec)
Heartbeat CPU 0 instructions: 590000109 cycles: 658265736 heartbeat IPC: 0.9017 cumulative IPC: 0.8963 (Simulation time: 01 hr 39 min 59 sec)
Heartbeat CPU 0 instructions: 600000110 cycles: 669281691 heartbeat IPC: 0.9078 cumulative IPC: 0.8965 (Simulation time: 01 hr 41 min 09 sec)
Heartbeat CPU 0 instructions: 610000110 cycles: 680350364 heartbeat IPC: 0.9035 cumulative IPC: 0.8966 (Simulation time: 01 hr 42 min 20 sec)
Heartbeat CPU 0 instructions: 620000110 cycles: 691450158 heartbeat IPC: 0.9009 cumulative IPC: 0.8967 (Simulation time: 01 hr 43 min 40 sec)
Heartbeat CPU 0 instructions: 630000110 cycles: 702526370 heartbeat IPC: 0.9028 cumulative IPC: 0.8968 (Simulation time: 01 hr 45 min 06 sec)
Heartbeat CPU 0 instructions: 640000110 cycles: 713610538 heartbeat IPC: 0.9022 cumulative IPC: 0.8968 (Simulation time: 01 hr 46 min 33 sec)
Heartbeat CPU 0 instructions: 650000111 cycles: 724701489 heartbeat IPC: 0.9016 cumulative IPC: 0.8969 (Simulation time: 01 hr 47 min 59 sec)
Heartbeat CPU 0 instructions: 660000112 cycles: 735753765 heartbeat IPC: 0.9048 cumulative IPC: 0.897 (Simulation time: 01 hr 49 min 46 sec)
Heartbeat CPU 0 instructions: 670000112 cycles: 746839092 heartbeat IPC: 0.9021 cumulative IPC: 0.8971 (Simulation time: 01 hr 51 min 18 sec)
Heartbeat CPU 0 instructions: 680000115 cycles: 758050733 heartbeat IPC: 0.8919 cumulative IPC: 0.897 (Simulation time: 01 hr 52 min 50 sec)
Heartbeat CPU 0 instructions: 690000119 cycles: 769549653 heartbeat IPC: 0.8696 cumulative IPC: 0.8966 (Simulation time: 01 hr 54 min 15 sec)
Heartbeat CPU 0 instructions: 700000119 cycles: 780393840 heartbeat IPC: 0.9222 cumulative IPC: 0.897 (Simulation time: 01 hr 55 min 52 sec)
Heartbeat CPU 0 instructions: 710000122 cycles: 791250984 heartbeat IPC: 0.9211 cumulative IPC: 0.8973 (Simulation time: 01 hr 57 min 31 sec)
Heartbeat CPU 0 instructions: 720000126 cycles: 802077127 heartbeat IPC: 0.9237 cumulative IPC: 0.8977 (Simulation time: 01 hr 59 min 10 sec)
Heartbeat CPU 0 instructions: 730000126 cycles: 812925938 heartbeat IPC: 0.9218 cumulative IPC: 0.898 (Simulation time: 02 hr 00 min 54 sec)
Heartbeat CPU 0 instructions: 740000128 cycles: 823750795 heartbeat IPC: 0.9238 cumulative IPC: 0.8983 (Simulation time: 02 hr 02 min 18 sec)
Heartbeat CPU 0 instructions: 750000128 cycles: 834580102 heartbeat IPC: 0.9234 cumulative IPC: 0.8987 (Simulation time: 02 hr 03 min 38 sec)
Heartbeat CPU 0 instructions: 760000131 cycles: 845443185 heartbeat IPC: 0.9205 cumulative IPC: 0.8989 (Simulation time: 02 hr 05 min 14 sec)
Heartbeat CPU 0 instructions: 770000134 cycles: 856428174 heartbeat IPC: 0.9103 cumulative IPC: 0.8991 (Simulation time: 02 hr 06 min 46 sec)
Heartbeat CPU 0 instructions: 780000135 cycles: 868536371 heartbeat IPC: 0.8259 cumulative IPC: 0.8981 (Simulation time: 02 hr 08 min 38 sec)
Heartbeat CPU 0 instructions: 790000138 cycles: 880653042 heartbeat IPC: 0.8253 cumulative IPC: 0.8971 (Simulation time: 02 hr 10 min 33 sec)
Heartbeat CPU 0 instructions: 800000142 cycles: 892776479 heartbeat IPC: 0.8248 cumulative IPC: 0.8961 (Simulation time: 02 hr 12 min 32 sec)
Heartbeat CPU 0 instructions: 810000146 cycles: 904874227 heartbeat IPC: 0.8266 cumulative IPC: 0.8952 (Simulation time: 02 hr 14 min 31 sec)
Heartbeat CPU 0 instructions: 820000150 cycles: 916523285 heartbeat IPC: 0.8584 cumulative IPC: 0.8947 (Simulation time: 02 hr 16 min 27 sec)
Heartbeat CPU 0 instructions: 830000153 cycles: 928050243 heartbeat IPC: 0.8675 cumulative IPC: 0.8943 (Simulation time: 02 hr 18 min 18 sec)
Heartbeat CPU 0 instructions: 840000154 cycles: 939631929 heartbeat IPC: 0.8634 cumulative IPC: 0.894 (Simulation time: 02 hr 20 min 13 sec)
Heartbeat CPU 0 instructions: 850000154 cycles: 951213513 heartbeat IPC: 0.8634 cumulative IPC: 0.8936 (Simulation time: 02 hr 22 min 04 sec)
Heartbeat CPU 0 instructions: 860000154 cycles: 963089116 heartbeat IPC: 0.8421 cumulative IPC: 0.893 (Simulation time: 02 hr 23 min 38 sec)
Heartbeat CPU 0 instructions: 870000155 cycles: 975139799 heartbeat IPC: 0.8298 cumulative IPC: 0.8922 (Simulation time: 02 hr 25 min 10 sec)
Heartbeat CPU 0 instructions: 880000157 cycles: 987258672 heartbeat IPC: 0.8252 cumulative IPC: 0.8914 (Simulation time: 02 hr 27 min 07 sec)
Heartbeat CPU 0 instructions: 890000158 cycles: 999476406 heartbeat IPC: 0.8185 cumulative IPC: 0.8905 (Simulation time: 02 hr 29 min 07 sec)
Heartbeat CPU 0 instructions: 900000160 cycles: 1011493564 heartbeat IPC: 0.8321 cumulative IPC: 0.8898 (Simulation time: 02 hr 31 min 05 sec)
Heartbeat CPU 0 instructions: 910000160 cycles: 1023157273 heartbeat IPC: 0.8574 cumulative IPC: 0.8894 (Simulation time: 02 hr 32 min 54 sec)
Heartbeat CPU 0 instructions: 920000160 cycles: 1034767907 heartbeat IPC: 0.8613 cumulative IPC: 0.8891 (Simulation time: 02 hr 34 min 47 sec)
Heartbeat CPU 0 instructions: 930000163 cycles: 1046259489 heartbeat IPC: 0.8702 cumulative IPC: 0.8889 (Simulation time: 02 hr 36 min 07 sec)
Heartbeat CPU 0 instructions: 940000163 cycles: 1057817815 heartbeat IPC: 0.8652 cumulative IPC: 0.8886 (Simulation time: 02 hr 37 min 50 sec)
[ERROR_CYCLE] Error added at CPU cycle 1069353795, next at 1075364498, pending count: 1
[DRAM_CYCLE_ERROR] Cycle-based error applied! address=0x6546be180 additional_latency=1990500 cycles
Heartbeat CPU 0 instructions: 950000166 cycles: 1070038053 heartbeat IPC: 0.8183 cumulative IPC: 0.8878 (Simulation time: 02 hr 39 min 40 sec)
[ERROR_CYCLE] Error added at CPU cycle 1075364499, next at 1382772839, pending count: 1
[DRAM_CYCLE_ERROR] Cycle-based error applied! address=0x20e6bd580 additional_latency=1990500 cycles
Heartbeat CPU 0 instructions: 960000168 cycles: 1082305876 heartbeat IPC: 0.8151 cumulative IPC: 0.887 (Simulation time: 02 hr 41 min 30 sec)
Heartbeat CPU 0 instructions: 970000172 cycles: 1094401433 heartbeat IPC: 0.8268 cumulative IPC: 0.8863 (Simulation time: 02 hr 43 min 26 sec)
Heartbeat CPU 0 instructions: 980000172 cycles: 1106476492 heartbeat IPC: 0.8282 cumulative IPC: 0.8857 (Simulation time: 02 hr 45 min 23 sec)
Heartbeat CPU 0 instructions: 990000175 cycles: 1118209751 heartbeat IPC: 0.8523 cumulative IPC: 0.8853 (Simulation time: 02 hr 47 min 17 sec)
Heartbeat CPU 0 instructions: 1000000175 cycles: 1129746980 heartbeat IPC: 0.8668 cumulative IPC: 0.8852 (Simulation time: 02 hr 49 min 08 sec)
Heartbeat CPU 0 instructions: 1010000179 cycles: 1141299771 heartbeat IPC: 0.8656 cumulative IPC: 0.885 (Simulation time: 02 hr 51 min 00 sec)
Heartbeat CPU 0 instructions: 1020000182 cycles: 1152812792 heartbeat IPC: 0.8686 cumulative IPC: 0.8848 (Simulation time: 02 hr 52 min 52 sec)
Heartbeat CPU 0 instructions: 1030000182 cycles: 1166178639 heartbeat IPC: 0.7482 cumulative IPC: 0.8832 (Simulation time: 02 hr 54 min 54 sec)
Heartbeat CPU 0 instructions: 1040000182 cycles: 1178294589 heartbeat IPC: 0.8254 cumulative IPC: 0.8826 (Simulation time: 02 hr 56 min 49 sec)
Heartbeat CPU 0 instructions: 1050000185 cycles: 1190047161 heartbeat IPC: 0.8509 cumulative IPC: 0.8823 (Simulation time: 02 hr 58 min 42 sec)
Heartbeat CPU 0 instructions: 1060000186 cycles: 1201818629 heartbeat IPC: 0.8495 cumulative IPC: 0.882 (Simulation time: 03 hr 00 min 27 sec)
Heartbeat CPU 0 instructions: 1070000187 cycles: 1213530315 heartbeat IPC: 0.8538 cumulative IPC: 0.8817 (Simulation time: 03 hr 02 min 19 sec)
Heartbeat CPU 0 instructions: 1080000188 cycles: 1225078730 heartbeat IPC: 0.8659 cumulative IPC: 0.8816 (Simulation time: 03 hr 04 min 03 sec)
Heartbeat CPU 0 instructions: 1090000188 cycles: 1236480509 heartbeat IPC: 0.8771 cumulative IPC: 0.8815 (Simulation time: 03 hr 05 min 27 sec)
Heartbeat CPU 0 instructions: 1100000191 cycles: 1247834719 heartbeat IPC: 0.8807 cumulative IPC: 0.8815 (Simulation time: 03 hr 07 min 01 sec)
Heartbeat CPU 0 instructions: 1110000193 cycles: 1259088275 heartbeat IPC: 0.8886 cumulative IPC: 0.8816 (Simulation time: 03 hr 08 min 20 sec)
Heartbeat CPU 0 instructions: 1120000193 cycles: 1270345721 heartbeat IPC: 0.8883 cumulative IPC: 0.8816 (Simulation time: 03 hr 10 min 05 sec)
Heartbeat CPU 0 instructions: 1130000194 cycles: 1282247405 heartbeat IPC: 0.8402 cumulative IPC: 0.8813 (Simulation time: 03 hr 11 min 58 sec)
Heartbeat CPU 0 instructions: 1140000194 cycles: 1294167177 heartbeat IPC: 0.8389 cumulative IPC: 0.8809 (Simulation time: 03 hr 13 min 51 sec)
Heartbeat CPU 0 instructions: 1150000196 cycles: 1305862004 heartbeat IPC: 0.8551 cumulative IPC: 0.8806 (Simulation time: 03 hr 15 min 43 sec)
Heartbeat CPU 0 instructions: 1160000196 cycles: 1317542181 heartbeat IPC: 0.8562 cumulative IPC: 0.8804 (Simulation time: 03 hr 17 min 36 sec)
Heartbeat CPU 0 instructions: 1170000199 cycles: 1328919659 heartbeat IPC: 0.8789 cumulative IPC: 0.8804 (Simulation time: 03 hr 19 min 26 sec)
Heartbeat CPU 0 instructions: 1180000199 cycles: 1340329899 heartbeat IPC: 0.8764 cumulative IPC: 0.8804 (Simulation time: 03 hr 21 min 16 sec)
Heartbeat CPU 0 instructions: 1190000203 cycles: 1351747177 heartbeat IPC: 0.8759 cumulative IPC: 0.8803 (Simulation time: 03 hr 23 min 07 sec)
Heartbeat CPU 0 instructions: 1200000206 cycles: 1362977141 heartbeat IPC: 0.8905 cumulative IPC: 0.8804 (Simulation time: 03 hr 24 min 56 sec)
Heartbeat CPU 0 instructions: 1210000210 cycles: 1374352522 heartbeat IPC: 0.8791 cumulative IPC: 0.8804 (Simulation time: 03 hr 26 min 46 sec)
[ERROR_CYCLE] Error added at CPU cycle 1382772839, next at 1418568864, pending count: 1
[DRAM_CYCLE_ERROR] Cycle-based error applied! address=0x7ec639780 additional_latency=1990500 cycles
Heartbeat CPU 0 instructions: 1220000210 cycles: 1386199041 heartbeat IPC: 0.8441 cumulative IPC: 0.8801 (Simulation time: 03 hr 28 min 40 sec)
Heartbeat CPU 0 instructions: 1230000212 cycles: 1398081180 heartbeat IPC: 0.8416 cumulative IPC: 0.8798 (Simulation time: 03 hr 30 min 33 sec)
Heartbeat CPU 0 instructions: 1240000213 cycles: 1409864089 heartbeat IPC: 0.8487 cumulative IPC: 0.8795 (Simulation time: 03 hr 32 min 26 sec)
[ERROR_CYCLE] Error added at CPU cycle 1418568864, next at 1532348430, pending count: 1
[DRAM_CYCLE_ERROR] Cycle-based error applied! address=0x3242e3d00 additional_latency=1990500 cycles
Heartbeat CPU 0 instructions: 1250000215 cycles: 1421585341 heartbeat IPC: 0.8532 cumulative IPC: 0.8793 (Simulation time: 03 hr 34 min 18 sec)
Heartbeat CPU 0 instructions: 1260000215 cycles: 1433016122 heartbeat IPC: 0.8748 cumulative IPC: 0.8793 (Simulation time: 03 hr 36 min 09 sec)
Heartbeat CPU 0 instructions: 1270000215 cycles: 1444389628 heartbeat IPC: 0.8792 cumulative IPC: 0.8793 (Simulation time: 03 hr 37 min 58 sec)
Heartbeat CPU 0 instructions: 1280000219 cycles: 1455641221 heartbeat IPC: 0.8888 cumulative IPC: 0.8793 (Simulation time: 03 hr 39 min 47 sec)
Heartbeat CPU 0 instructions: 1290000222 cycles: 1466856682 heartbeat IPC: 0.8916 cumulative IPC: 0.8794 (Simulation time: 03 hr 41 min 36 sec)
Heartbeat CPU 0 instructions: 1300000222 cycles: 1494313336 heartbeat IPC: 0.3642 cumulative IPC: 0.87 (Simulation time: 03 hr 45 min 22 sec)
Heartbeat CPU 0 instructions: 1310000224 cycles: 1506771341 heartbeat IPC: 0.8027 cumulative IPC: 0.8694 (Simulation time: 03 hr 46 min 50 sec)
Heartbeat CPU 0 instructions: 1320000224 cycles: 1518492048 heartbeat IPC: 0.8532 cumulative IPC: 0.8693 (Simulation time: 03 hr 48 min 36 sec)
Heartbeat CPU 0 instructions: 1330000224 cycles: 1530164860 heartbeat IPC: 0.8567 cumulative IPC: 0.8692 (Simulation time: 03 hr 50 min 23 sec)
[ERROR_CYCLE] Error added at CPU cycle 1532348430, next at 1703137205, pending count: 1
[DRAM_CYCLE_ERROR] Cycle-based error applied! address=0x3dc052508 additional_latency=1990500 cycles
Heartbeat CPU 0 instructions: 1340000226 cycles: 1541962934 heartbeat IPC: 0.8476 cumulative IPC: 0.869 (Simulation time: 03 hr 52 min 11 sec)
Heartbeat CPU 0 instructions: 1350000226 cycles: 1553934533 heartbeat IPC: 0.8353 cumulative IPC: 0.8688 (Simulation time: 03 hr 54 min 00 sec)
Heartbeat CPU 0 instructions: 1360000227 cycles: 1565505859 heartbeat IPC: 0.8642 cumulative IPC: 0.8687 (Simulation time: 03 hr 55 min 46 sec)
Heartbeat CPU 0 instructions: 1370000227 cycles: 1576758794 heartbeat IPC: 0.8887 cumulative IPC: 0.8689 (Simulation time: 03 hr 57 min 29 sec)
Heartbeat CPU 0 instructions: 1380000231 cycles: 1588386185 heartbeat IPC: 0.86 cumulative IPC: 0.8688 (Simulation time: 03 hr 59 min 15 sec)
Heartbeat CPU 0 instructions: 1390000235 cycles: 1600005027 heartbeat IPC: 0.8607 cumulative IPC: 0.8687 (Simulation time: 04 hr 01 min 01 sec)
Heartbeat CPU 0 instructions: 1400000236 cycles: 1611680195 heartbeat IPC: 0.8565 cumulative IPC: 0.8687 (Simulation time: 04 hr 02 min 48 sec)
Heartbeat CPU 0 instructions: 1410000236 cycles: 1623593265 heartbeat IPC: 0.8394 cumulative IPC: 0.8684 (Simulation time: 04 hr 04 min 36 sec)
Heartbeat CPU 0 instructions: 1420000237 cycles: 1635845884 heartbeat IPC: 0.8162 cumulative IPC: 0.8681 (Simulation time: 04 hr 06 min 22 sec)
Heartbeat CPU 0 instructions: 1430000239 cycles: 1647839310 heartbeat IPC: 0.8338 cumulative IPC: 0.8678 (Simulation time: 04 hr 08 min 03 sec)
Heartbeat CPU 0 instructions: 1440000239 cycles: 1659727386 heartbeat IPC: 0.8412 cumulative IPC: 0.8676 (Simulation time: 04 hr 09 min 51 sec)
Heartbeat CPU 0 instructions: 1450000243 cycles: 1671408462 heartbeat IPC: 0.8561 cumulative IPC: 0.8675 (Simulation time: 04 hr 11 min 37 sec)
Heartbeat CPU 0 instructions: 1460000247 cycles: 1683171002 heartbeat IPC: 0.8502 cumulative IPC: 0.8674 (Simulation time: 04 hr 13 min 07 sec)
Heartbeat CPU 0 instructions: 1470000251 cycles: 1694917589 heartbeat IPC: 0.8513 cumulative IPC: 0.8673 (Simulation time: 04 hr 14 min 18 sec)
[ERROR_CYCLE] Error added at CPU cycle 1703137205, next at 1752067520, pending count: 1
[DRAM_CYCLE_ERROR] Cycle-based error applied! address=0x8d9bb78 additional_latency=1990500 cycles
Heartbeat CPU 0 instructions: 1480000253 cycles: 1706665830 heartbeat IPC: 0.8512 cumulative IPC: 0.8672 (Simulation time: 04 hr 15 min 42 sec)
Heartbeat CPU 0 instructions: 1490000255 cycles: 1718357729 heartbeat IPC: 0.8553 cumulative IPC: 0.8671 (Simulation time: 04 hr 17 min 28 sec)
Heartbeat CPU 0 instructions: 1500000258 cycles: 1729589853 heartbeat IPC: 0.8903 cumulative IPC: 0.8673 (Simulation time: 04 hr 19 min 10 sec)
Heartbeat CPU 0 instructions: 1510000261 cycles: 1741139322 heartbeat IPC: 0.8658 cumulative IPC: 0.8672 (Simulation time: 04 hr 20 min 56 sec)
[ERROR_CYCLE] Error added at CPU cycle 1752067521, next at 2107259108, pending count: 1
[DRAM_CYCLE_ERROR] Cycle-based error applied! address=0x3dffde0c0 additional_latency=1990500 cycles
Heartbeat CPU 0 instructions: 1520000264 cycles: 1752842347 heartbeat IPC: 0.8545 cumulative IPC: 0.8672 (Simulation time: 04 hr 22 min 42 sec)
Heartbeat CPU 0 instructions: 1530000264 cycles: 1764443642 heartbeat IPC: 0.862 cumulative IPC: 0.8671 (Simulation time: 04 hr 24 min 27 sec)
Heartbeat CPU 0 instructions: 1540000266 cycles: 1776130270 heartbeat IPC: 0.8557 cumulative IPC: 0.8671 (Simulation time: 04 hr 26 min 12 sec)
Heartbeat CPU 0 instructions: 1550000267 cycles: 1788234514 heartbeat IPC: 0.8262 cumulative IPC: 0.8668 (Simulation time: 04 hr 27 min 34 sec)
Heartbeat CPU 0 instructions: 1560000267 cycles: 1800279510 heartbeat IPC: 0.8302 cumulative IPC: 0.8665 (Simulation time: 04 hr 28 min 54 sec)
Heartbeat CPU 0 instructions: 1570000269 cycles: 1812229877 heartbeat IPC: 0.8368 cumulative IPC: 0.8663 (Simulation time: 04 hr 30 min 41 sec)
Heartbeat CPU 0 instructions: 1580000271 cycles: 1824011271 heartbeat IPC: 0.8488 cumulative IPC: 0.8662 (Simulation time: 04 hr 32 min 28 sec)
Heartbeat CPU 0 instructions: 1590000274 cycles: 1835739301 heartbeat IPC: 0.8527 cumulative IPC: 0.8661 (Simulation time: 04 hr 34 min 06 sec)
Heartbeat CPU 0 instructions: 1600000274 cycles: 1847351769 heartbeat IPC: 0.8611 cumulative IPC: 0.8661 (Simulation time: 04 hr 35 min 36 sec)
Heartbeat CPU 0 instructions: 1610000277 cycles: 1859003928 heartbeat IPC: 0.8582 cumulative IPC: 0.8661 (Simulation time: 04 hr 37 min 19 sec)
Heartbeat CPU 0 instructions: 1620000279 cycles: 1870767499 heartbeat IPC: 0.8501 cumulative IPC: 0.866 (Simulation time: 04 hr 39 min 07 sec)
Heartbeat CPU 0 instructions: 1630000281 cycles: 1882159862 heartbeat IPC: 0.8778 cumulative IPC: 0.866 (Simulation time: 04 hr 40 min 50 sec)
Heartbeat CPU 0 instructions: 1640000284 cycles: 1893556848 heartbeat IPC: 0.8774 cumulative IPC: 0.8661 (Simulation time: 04 hr 42 min 28 sec)
Heartbeat CPU 0 instructions: 1650000287 cycles: 1905272513 heartbeat IPC: 0.8536 cumulative IPC: 0.866 (Simulation time: 04 hr 44 min 11 sec)
Heartbeat CPU 0 instructions: 1660000291 cycles: 1916955466 heartbeat IPC: 0.8559 cumulative IPC: 0.866 (Simulation time: 04 hr 45 min 32 sec)
Heartbeat CPU 0 instructions: 1670000295 cycles: 1928658759 heartbeat IPC: 0.8545 cumulative IPC: 0.8659 (Simulation time: 04 hr 46 min 55 sec)
Heartbeat CPU 0 instructions: 1680000299 cycles: 1940708466 heartbeat IPC: 0.8299 cumulative IPC: 0.8657 (Simulation time: 04 hr 48 min 42 sec)
Heartbeat CPU 0 instructions: 1690000299 cycles: 1952878670 heartbeat IPC: 0.8217 cumulative IPC: 0.8654 (Simulation time: 04 hr 50 min 08 sec)
Heartbeat CPU 0 instructions: 1700000299 cycles: 1964893161 heartbeat IPC: 0.8323 cumulative IPC: 0.8652 (Simulation time: 04 hr 51 min 42 sec)
Heartbeat CPU 0 instructions: 1710000302 cycles: 1976746063 heartbeat IPC: 0.8437 cumulative IPC: 0.8651 (Simulation time: 04 hr 52 min 55 sec)
Heartbeat CPU 0 instructions: 1720000304 cycles: 1988410007 heartbeat IPC: 0.8573 cumulative IPC: 0.865 (Simulation time: 04 hr 54 min 30 sec)
Heartbeat CPU 0 instructions: 1730000304 cycles: 2000200268 heartbeat IPC: 0.8482 cumulative IPC: 0.8649 (Simulation time: 04 hr 56 min 17 sec)
Heartbeat CPU 0 instructions: 1740000305 cycles: 2012050644 heartbeat IPC: 0.8439 cumulative IPC: 0.8648 (Simulation time: 04 hr 58 min 06 sec)
Heartbeat CPU 0 instructions: 1750000307 cycles: 2023876971 heartbeat IPC: 0.8456 cumulative IPC: 0.8647 (Simulation time: 04 hr 59 min 43 sec)
Heartbeat CPU 0 instructions: 1760000310 cycles: 2035547898 heartbeat IPC: 0.8568 cumulative IPC: 0.8646 (Simulation time: 05 hr 01 min 22 sec)
Heartbeat CPU 0 instructions: 1770000310 cycles: 2047098731 heartbeat IPC: 0.8657 cumulative IPC: 0.8646 (Simulation time: 05 hr 03 min 02 sec)
Heartbeat CPU 0 instructions: 1780000314 cycles: 2058778263 heartbeat IPC: 0.8562 cumulative IPC: 0.8646 (Simulation time: 05 hr 04 min 44 sec)
Heartbeat CPU 0 instructions: 1790000315 cycles: 2070553203 heartbeat IPC: 0.8493 cumulative IPC: 0.8645 (Simulation time: 05 hr 06 min 26 sec)
Heartbeat CPU 0 instructions: 1800000317 cycles: 2082089363 heartbeat IPC: 0.8668 cumulative IPC: 0.8645 (Simulation time: 05 hr 07 min 49 sec)
Heartbeat CPU 0 instructions: 1810000317 cycles: 2093839641 heartbeat IPC: 0.851 cumulative IPC: 0.8644 (Simulation time: 05 hr 09 min 12 sec)
Heartbeat CPU 0 instructions: 1820000320 cycles: 2105976412 heartbeat IPC: 0.8239 cumulative IPC: 0.8642 (Simulation time: 05 hr 10 min 31 sec)
[ERROR_CYCLE] Error added at CPU cycle 2107259108, next at 2178462766, pending count: 1
[DRAM_CYCLE_ERROR] Cycle-based error applied! address=0x1e8559f00 additional_latency=1990500 cycles
Heartbeat CPU 0 instructions: 1830000320 cycles: 2118023170 heartbeat IPC: 0.8301 cumulative IPC: 0.864 (Simulation time: 05 hr 11 min 58 sec)
Heartbeat CPU 0 instructions: 1840000324 cycles: 2130026732 heartbeat IPC: 0.8331 cumulative IPC: 0.8638 (Simulation time: 05 hr 13 min 33 sec)
Heartbeat CPU 0 instructions: 1850000327 cycles: 2141778452 heartbeat IPC: 0.8509 cumulative IPC: 0.8638 (Simulation time: 05 hr 15 min 00 sec)
Heartbeat CPU 0 instructions: 1860000329 cycles: 2153553637 heartbeat IPC: 0.8492 cumulative IPC: 0.8637 (Simulation time: 05 hr 16 min 37 sec)
Heartbeat CPU 0 instructions: 1870000330 cycles: 2165321105 heartbeat IPC: 0.8498 cumulative IPC: 0.8636 (Simulation time: 05 hr 18 min 24 sec)
Heartbeat CPU 0 instructions: 1880000330 cycles: 2177006287 heartbeat IPC: 0.8558 cumulative IPC: 0.8636 (Simulation time: 05 hr 20 min 02 sec)
[ERROR_CYCLE] Error added at CPU cycle 2178462767, next at 2267979990, pending count: 1
[DRAM_CYCLE_ERROR] Cycle-based error applied! address=0x7d5784300 additional_latency=1990500 cycles
Heartbeat CPU 0 instructions: 1890000330 cycles: 2188781908 heartbeat IPC: 0.8492 cumulative IPC: 0.8635 (Simulation time: 05 hr 21 min 30 sec)
Heartbeat CPU 0 instructions: 1900000333 cycles: 2200098423 heartbeat IPC: 0.8837 cumulative IPC: 0.8636 (Simulation time: 05 hr 23 min 12 sec)
Heartbeat CPU 0 instructions: 1910000333 cycles: 2211471478 heartbeat IPC: 0.8793 cumulative IPC: 0.8637 (Simulation time: 05 hr 24 min 55 sec)
Heartbeat CPU 0 instructions: 1920000337 cycles: 2223157721 heartbeat IPC: 0.8557 cumulative IPC: 0.8636 (Simulation time: 05 hr 26 min 40 sec)
Heartbeat CPU 0 instructions: 1930000337 cycles: 2234830545 heartbeat IPC: 0.8567 cumulative IPC: 0.8636 (Simulation time: 05 hr 28 min 25 sec)
Heartbeat CPU 0 instructions: 1940000341 cycles: 2246401768 heartbeat IPC: 0.8642 cumulative IPC: 0.8636 (Simulation time: 05 hr 29 min 59 sec)
Heartbeat CPU 0 instructions: 1950000345 cycles: 2258541614 heartbeat IPC: 0.8237 cumulative IPC: 0.8634 (Simulation time: 05 hr 31 min 13 sec)
[ERROR_CYCLE] Error added at CPU cycle 2267979990, next at 2675036714, pending count: 1
[DRAM_CYCLE_ERROR] Cycle-based error applied! address=0xa8354a48 additional_latency=1990500 cycles
Heartbeat CPU 0 instructions: 1960000348 cycles: 2270760765 heartbeat IPC: 0.8184 cumulative IPC: 0.8631 (Simulation time: 05 hr 32 min 30 sec)
Heartbeat CPU 0 instructions: 1970000349 cycles: 2282756670 heartbeat IPC: 0.8336 cumulative IPC: 0.863 (Simulation time: 05 hr 34 min 00 sec)
Heartbeat CPU 0 instructions: 1980000349 cycles: 2294557520 heartbeat IPC: 0.8474 cumulative IPC: 0.8629 (Simulation time: 05 hr 35 min 46 sec)
Heartbeat CPU 0 instructions: 1990000349 cycles: 2306207228 heartbeat IPC: 0.8584 cumulative IPC: 0.8629 (Simulation time: 05 hr 37 min 31 sec)

=== ERROR PAGE STATISTICS ===
Mode: CYCLE
Error Cycle Interval: 200000000 CPU cycles
Total Error Accesses: 13
==============================
Simulation finished CPU 0 instructions: 1999999509 cycles: 2317895630 cumulative IPC: 0.8629 (Simulation time: 05 hr 39 min 16 sec)
Simulation complete CPU 0 instructions: 1999999509 cycles: 2317895630 cumulative IPC: 0.8629 (Simulation time: 05 hr 39 min 16 sec)

ChampSim completed all CPUs

=== Simulation ===
CPU 0 runs test_traces/649.fotonik3d_s-10881B.champsimtrace.xz

Region of Interest Statistics

CPU 0 cumulative IPC: 0.8629 instructions: 1999999509 cycles: 2317895630
CPU 0 Branch Prediction Accuracy: 97.24% MPKI: 0.2738 Average ROB Occupancy at Mispredict: 264.7
Branch type MPKI
BRANCH_DIRECT_JUMP: 5.5e-06
BRANCH_INDIRECT: 0
BRANCH_CONDITIONAL: 0.2738
BRANCH_DIRECT_CALL: 5e-07
BRANCH_INDIRECT_CALL: 0
BRANCH_RETURN: 5e-07

cpu0->cpu0_STLB TOTAL        ACCESS:       9681 HIT:       6303 MISS:       3378 MSHR_MERGE:          0
cpu0->cpu0_STLB LOAD         ACCESS:       9681 HIT:       6303 MISS:       3378 MSHR_MERGE:          0
cpu0->cpu0_STLB RFO          ACCESS:          0 HIT:          0 MISS:          0 MSHR_MERGE:          0
cpu0->cpu0_STLB PREFETCH     ACCESS:          0 HIT:          0 MISS:          0 MSHR_MERGE:          0
cpu0->cpu0_STLB WRITE        ACCESS:          0 HIT:          0 MISS:          0 MSHR_MERGE:          0
cpu0->cpu0_STLB TRANSLATION  ACCESS:          0 HIT:          0 MISS:          0 MSHR_MERGE:          0
cpu0->cpu0_STLB PREFETCH REQUESTED:          0 ISSUED:          0 USEFUL:          0 USELESS:          0
cpu0->cpu0_STLB AVERAGE MISS LATENCY: 5132 cycles
cpu0->cpu0_L2C TOTAL        ACCESS:   51671986 HIT:   16906102 MISS:   34765884 MSHR_MERGE:          0
cpu0->cpu0_L2C LOAD         ACCESS:   36315955 HIT:    1550666 MISS:   34765289 MSHR_MERGE:          0
cpu0->cpu0_L2C RFO          ACCESS:       2064 HIT:       2014 MISS:         50 MSHR_MERGE:          0
cpu0->cpu0_L2C PREFETCH     ACCESS:          0 HIT:          0 MISS:          0 MSHR_MERGE:          0
cpu0->cpu0_L2C WRITE        ACCESS:   15353967 HIT:   15353422 MISS:        545 MSHR_MERGE:          0
cpu0->cpu0_L2C TRANSLATION  ACCESS:          0 HIT:          0 MISS:          0 MSHR_MERGE:          0
cpu0->cpu0_L2C PREFETCH REQUESTED:          0 ISSUED:          0 USEFUL:          0 USELESS:          0
cpu0->cpu0_L2C AVERAGE MISS LATENCY: 111.7 cycles
cpu0->cpu0_L1I TOTAL        ACCESS:  493848209 HIT:  493847257 MISS:        952 MSHR_MERGE:        413
cpu0->cpu0_L1I LOAD         ACCESS:  493848209 HIT:  493847257 MISS:        952 MSHR_MERGE:        413
cpu0->cpu0_L1I RFO          ACCESS:          0 HIT:          0 MISS:          0 MSHR_MERGE:          0
cpu0->cpu0_L1I PREFETCH     ACCESS:          0 HIT:          0 MISS:          0 MSHR_MERGE:          0
cpu0->cpu0_L1I WRITE        ACCESS:          0 HIT:          0 MISS:          0 MSHR_MERGE:          0
cpu0->cpu0_L1I TRANSLATION  ACCESS:          0 HIT:          0 MISS:          0 MSHR_MERGE:          0
cpu0->cpu0_L1I PREFETCH REQUESTED:          0 ISSUED:          0 USEFUL:          0 USELESS:          0
cpu0->cpu0_L1I AVERAGE MISS LATENCY: 139.2 cycles
cpu0->cpu0_L1D TOTAL        ACCESS:  962412880 HIT:  917630032 MISS:   44782848 MSHR_MERGE:    8465360
cpu0->cpu0_L1D LOAD         ACCESS:  844775438 HIT:  799996259 MISS:   44779179 MSHR_MERGE:    8463762
cpu0->cpu0_L1D RFO          ACCESS:          0 HIT:          0 MISS:          0 MSHR_MERGE:          0
cpu0->cpu0_L1D PREFETCH     ACCESS:          0 HIT:          0 MISS:          0 MSHR_MERGE:          0
cpu0->cpu0_L1D WRITE        ACCESS:  117637442 HIT:  117633773 MISS:       3669 MSHR_MERGE:       1598
cpu0->cpu0_L1D TRANSLATION  ACCESS:          0 HIT:          0 MISS:          0 MSHR_MERGE:          0
cpu0->cpu0_L1D PREFETCH REQUESTED:          0 ISSUED:          0 USEFUL:          0 USELESS:          0
cpu0->cpu0_L1D AVERAGE MISS LATENCY: 115.9 cycles
cpu0->cpu0_ITLB TOTAL        ACCESS:  425566074 HIT:  425566068 MISS:          6 MSHR_MERGE:          5
cpu0->cpu0_ITLB LOAD         ACCESS:  425566074 HIT:  425566068 MISS:          6 MSHR_MERGE:          5
cpu0->cpu0_ITLB RFO          ACCESS:          0 HIT:          0 MISS:          0 MSHR_MERGE:          0
cpu0->cpu0_ITLB PREFETCH     ACCESS:          0 HIT:          0 MISS:          0 MSHR_MERGE:          0
cpu0->cpu0_ITLB WRITE        ACCESS:          0 HIT:          0 MISS:          0 MSHR_MERGE:          0
cpu0->cpu0_ITLB TRANSLATION  ACCESS:          0 HIT:          0 MISS:          0 MSHR_MERGE:          0
cpu0->cpu0_ITLB PREFETCH REQUESTED:          0 ISSUED:          0 USEFUL:          0 USELESS:          0
cpu0->cpu0_ITLB AVERAGE MISS LATENCY: 1.722e+04 cycles
cpu0->cpu0_DTLB TOTAL        ACCESS:  877834480 HIT:  877822061 MISS:      12419 MSHR_MERGE:       2739
cpu0->cpu0_DTLB LOAD         ACCESS:  877834480 HIT:  877822061 MISS:      12419 MSHR_MERGE:       2739
cpu0->cpu0_DTLB RFO          ACCESS:          0 HIT:          0 MISS:          0 MSHR_MERGE:          0
cpu0->cpu0_DTLB PREFETCH     ACCESS:          0 HIT:          0 MISS:          0 MSHR_MERGE:          0
cpu0->cpu0_DTLB WRITE        ACCESS:          0 HIT:          0 MISS:          0 MSHR_MERGE:          0
cpu0->cpu0_DTLB TRANSLATION  ACCESS:          0 HIT:          0 MISS:          0 MSHR_MERGE:          0
cpu0->cpu0_DTLB PREFETCH REQUESTED:          0 ISSUED:          0 USEFUL:          0 USELESS:          0
cpu0->cpu0_DTLB AVERAGE MISS LATENCY: 1795 cycles
cpu0->LLC TOTAL        ACCESS:   50113118 HIT:   17950287 MISS:   32162831 MSHR_MERGE:          0
cpu0->LLC LOAD         ACCESS:   34765289 HIT:    2602830 MISS:   32162459 MSHR_MERGE:          0
cpu0->LLC RFO          ACCESS:         50 HIT:         25 MISS:         25 MSHR_MERGE:          0
cpu0->LLC PREFETCH     ACCESS:          0 HIT:          0 MISS:          0 MSHR_MERGE:          0
cpu0->LLC WRITE        ACCESS:   15347779 HIT:   15347432 MISS:        347 MSHR_MERGE:          0
cpu0->LLC TRANSLATION  ACCESS:          0 HIT:          0 MISS:          0 MSHR_MERGE:          0
cpu0->LLC PREFETCH REQUESTED:          0 ISSUED:          0 USEFUL:          0 USELESS:          0
cpu0->LLC AVERAGE MISS LATENCY: 103.5 cycles

DRAM Statistics

Channel 0 RQ ROW_BUFFER_HIT:     253821
  ROW_BUFFER_MISS:   15830645
  AVG DBUS CONGESTED CYCLE: 11.54
Channel 0 WQ ROW_BUFFER_HIT:    1797700
  ROW_BUFFER_MISS:    5871911
  FULL:          0
Channel 0 REFRESHES ISSUED:     193145

Channel 1 RQ ROW_BUFFER_HIT:     254399
  ROW_BUFFER_MISS:   15830246
  AVG DBUS CONGESTED CYCLE: 11.54
Channel 1 WQ ROW_BUFFER_HIT:    1801174
  ROW_BUFFER_MISS:    5868682
  FULL:          0
Channel 1 REFRESHES ISSUED:     193145
