
*** ChampSim Multicore Out-of-Order Simulator ***
Warmup Instructions: 0
Simulation Instructions: 9223372036854775807
Number of CPUs: 1
Page size: 2097152

Off-chip DRAM Size: 128 GiB Channels: 2 Width: 32-bit Data Rate: 4807 MT/s
[ERROR_PAGE_MANAGER] Error latency: 1990500 
[ERROR_PAGE_MANAGER] Random seed: 54321 (fixed for preload reproducibility)
[ERROR_PAGE_MANAGER] Cycle-based error modeling enabled
[ERROR_PAGE_MANAGER] Errors per interval: 1
[ERROR_PAGE_MANAGER] Error cycle interval: 80000000 cycles

=== ERROR PAGE STATISTICS ===
Mode: CYCLE
Error Cycle Interval: 80000000 CPU cycles
Total Error Accesses: 0
==============================
Warmup finished CPU 0 instructions: 0 cycles: 1 cumulative IPC: 0 (Simulation time: 00 hr 00 min 00 sec)
Warmup complete CPU 0 instructions: 0 cycles: 1 cumulative IPC: 0 (Simulation time: 00 hr 00 min 00 sec)
Heartbeat CPU 0 instructions: 10000000 cycles: 9439884 heartbeat IPC: 1.059 cumulative IPC: 1.059 (Simulation time: 00 hr 01 min 11 sec)
Heartbeat CPU 0 instructions: 20000000 cycles: 18752567 heartbeat IPC: 1.074 cumulative IPC: 1.067 (Simulation time: 00 hr 02 min 22 sec)
Heartbeat CPU 0 instructions: 30000000 cycles: 28127373 heartbeat IPC: 1.067 cumulative IPC: 1.067 (Simulation time: 00 hr 03 min 33 sec)
Heartbeat CPU 0 instructions: 40000001 cycles: 37515578 heartbeat IPC: 1.065 cumulative IPC: 1.066 (Simulation time: 00 hr 04 min 45 sec)
Heartbeat CPU 0 instructions: 50000005 cycles: 52632522 heartbeat IPC: 0.6615 cumulative IPC: 0.95 (Simulation time: 00 hr 06 min 54 sec)
[ERROR_CYCLE] Error added at CPU cycle 57022446, next at 73226450, pending count: 1
[DRAM_CYCLE_ERROR] Cycle-based error applied! address=0xad0b95780 additional_latency=1990500 cycles
Heartbeat CPU 0 instructions: 60000005 cycles: 71144572 heartbeat IPC: 0.5402 cumulative IPC: 0.8434 (Simulation time: 00 hr 08 min 55 sec)
[ERROR_CYCLE] Error added at CPU cycle 73226451, next at 205568512, pending count: 1
[DRAM_CYCLE_ERROR] Cycle-based error applied! address=0x112c491e80 additional_latency=1990500 cycles
Heartbeat CPU 0 instructions: 70000008 cycles: 80465016 heartbeat IPC: 1.073 cumulative IPC: 0.8699 (Simulation time: 00 hr 10 min 04 sec)
Heartbeat CPU 0 instructions: 80000011 cycles: 89779219 heartbeat IPC: 1.074 cumulative IPC: 0.8911 (Simulation time: 00 hr 11 min 14 sec)
Heartbeat CPU 0 instructions: 90000011 cycles: 99091562 heartbeat IPC: 1.074 cumulative IPC: 0.9083 (Simulation time: 00 hr 12 min 23 sec)
Heartbeat CPU 0 instructions: 100000014 cycles: 108403167 heartbeat IPC: 1.074 cumulative IPC: 0.9225 (Simulation time: 00 hr 13 min 33 sec)
Heartbeat CPU 0 instructions: 110000014 cycles: 117713604 heartbeat IPC: 1.074 cumulative IPC: 0.9345 (Simulation time: 00 hr 14 min 43 sec)
Heartbeat CPU 0 instructions: 120000018 cycles: 129327880 heartbeat IPC: 0.861 cumulative IPC: 0.9279 (Simulation time: 00 hr 16 min 15 sec)
Heartbeat CPU 0 instructions: 130000019 cycles: 147303860 heartbeat IPC: 0.5563 cumulative IPC: 0.8825 (Simulation time: 00 hr 18 min 28 sec)
Heartbeat CPU 0 instructions: 140000019 cycles: 156620264 heartbeat IPC: 1.073 cumulative IPC: 0.8939 (Simulation time: 00 hr 19 min 37 sec)
Heartbeat CPU 0 instructions: 150000019 cycles: 165940081 heartbeat IPC: 1.073 cumulative IPC: 0.9039 (Simulation time: 00 hr 20 min 46 sec)
Heartbeat CPU 0 instructions: 160000020 cycles: 175261190 heartbeat IPC: 1.073 cumulative IPC: 0.9129 (Simulation time: 00 hr 21 min 56 sec)
Heartbeat CPU 0 instructions: 170000020 cycles: 184570421 heartbeat IPC: 1.074 cumulative IPC: 0.9211 (Simulation time: 00 hr 23 min 05 sec)
Heartbeat CPU 0 instructions: 180000023 cycles: 193880057 heartbeat IPC: 1.074 cumulative IPC: 0.9284 (Simulation time: 00 hr 24 min 15 sec)
Heartbeat CPU 0 instructions: 190000026 cycles: 203190792 heartbeat IPC: 1.074 cumulative IPC: 0.9351 (Simulation time: 00 hr 25 min 24 sec)
[ERROR_CYCLE] Error added at CPU cycle 205568513, next at 427741518, pending count: 1
[DRAM_CYCLE_ERROR] Cycle-based error applied! address=0xc39e0b280 additional_latency=1990500 cycles
Heartbeat CPU 0 instructions: 200000027 cycles: 220415783 heartbeat IPC: 0.5806 cumulative IPC: 0.9074 (Simulation time: 00 hr 27 min 51 sec)
Heartbeat CPU 0 instructions: 210000029 cycles: 232727424 heartbeat IPC: 0.8122 cumulative IPC: 0.9023 (Simulation time: 00 hr 29 min 27 sec)
Heartbeat CPU 0 instructions: 220000033 cycles: 242039979 heartbeat IPC: 1.074 cumulative IPC: 0.9089 (Simulation time: 00 hr 30 min 36 sec)
Heartbeat CPU 0 instructions: 230000036 cycles: 251370895 heartbeat IPC: 1.072 cumulative IPC: 0.915 (Simulation time: 00 hr 31 min 45 sec)
Heartbeat CPU 0 instructions: 240000039 cycles: 260681613 heartbeat IPC: 1.074 cumulative IPC: 0.9207 (Simulation time: 00 hr 32 min 54 sec)
Heartbeat CPU 0 instructions: 250000039 cycles: 269993968 heartbeat IPC: 1.074 cumulative IPC: 0.9259 (Simulation time: 00 hr 34 min 02 sec)
Heartbeat CPU 0 instructions: 260000039 cycles: 279307493 heartbeat IPC: 1.074 cumulative IPC: 0.9309 (Simulation time: 00 hr 35 min 10 sec)
Heartbeat CPU 0 instructions: 270000040 cycles: 293229076 heartbeat IPC: 0.7183 cumulative IPC: 0.9208 (Simulation time: 00 hr 37 min 02 sec)
Heartbeat CPU 0 instructions: 280000044 cycles: 308878641 heartbeat IPC: 0.639 cumulative IPC: 0.9065 (Simulation time: 00 hr 38 min 55 sec)
Heartbeat CPU 0 instructions: 290000047 cycles: 318199140 heartbeat IPC: 1.073 cumulative IPC: 0.9114 (Simulation time: 00 hr 40 min 04 sec)
Heartbeat CPU 0 instructions: 300000048 cycles: 327511261 heartbeat IPC: 1.074 cumulative IPC: 0.916 (Simulation time: 00 hr 41 min 14 sec)
Heartbeat CPU 0 instructions: 310000050 cycles: 336821768 heartbeat IPC: 1.074 cumulative IPC: 0.9204 (Simulation time: 00 hr 42 min 23 sec)
Heartbeat CPU 0 instructions: 320000054 cycles: 346133952 heartbeat IPC: 1.074 cumulative IPC: 0.9245 (Simulation time: 00 hr 43 min 31 sec)
Heartbeat CPU 0 instructions: 330000056 cycles: 355444473 heartbeat IPC: 1.074 cumulative IPC: 0.9284 (Simulation time: 00 hr 44 min 39 sec)
Heartbeat CPU 0 instructions: 340000056 cycles: 366039502 heartbeat IPC: 0.9438 cumulative IPC: 0.9289 (Simulation time: 00 hr 45 min 59 sec)
Heartbeat CPU 0 instructions: 350000056 cycles: 384718952 heartbeat IPC: 0.5353 cumulative IPC: 0.9098 (Simulation time: 00 hr 48 min 04 sec)
Heartbeat CPU 0 instructions: 360000056 cycles: 395040258 heartbeat IPC: 0.9689 cumulative IPC: 0.9113 (Simulation time: 00 hr 49 min 03 sec)
Heartbeat CPU 0 instructions: 370000058 cycles: 405361571 heartbeat IPC: 0.9689 cumulative IPC: 0.9128 (Simulation time: 00 hr 50 min 13 sec)
Heartbeat CPU 0 instructions: 380000062 cycles: 415673997 heartbeat IPC: 0.9697 cumulative IPC: 0.9142 (Simulation time: 00 hr 51 min 20 sec)
[ERROR_CYCLE] Error added at CPU cycle 427741518, next at 430145799, pending count: 1
[DRAM_CYCLE_ERROR] Cycle-based error applied! address=0x1f79425bc0 additional_latency=1990500 cycles
Heartbeat CPU 0 instructions: 390000062 cycles: 428292832 heartbeat IPC: 0.7925 cumulative IPC: 0.9106 (Simulation time: 00 hr 52 min 41 sec)
[ERROR_CYCLE] Error added at CPU cycle 430145800, next at 553109136, pending count: 1
[DRAM_CYCLE_ERROR] Cycle-based error applied! address=0x17e87d5380 additional_latency=1990500 cycles
Heartbeat CPU 0 instructions: 400000062 cycles: 442597902 heartbeat IPC: 0.6991 cumulative IPC: 0.9038 (Simulation time: 00 hr 54 min 28 sec)
Heartbeat CPU 0 instructions: 410000062 cycles: 449438490 heartbeat IPC: 1.462 cumulative IPC: 0.9122 (Simulation time: 00 hr 55 min 34 sec)
Heartbeat CPU 0 instructions: 420000064 cycles: 456614156 heartbeat IPC: 1.394 cumulative IPC: 0.9198 (Simulation time: 00 hr 56 min 42 sec)
Heartbeat CPU 0 instructions: 430000067 cycles: 465243266 heartbeat IPC: 1.159 cumulative IPC: 0.9242 (Simulation time: 00 hr 58 min 04 sec)
Heartbeat CPU 0 instructions: 440000067 cycles: 474225192 heartbeat IPC: 1.113 cumulative IPC: 0.9278 (Simulation time: 00 hr 59 min 35 sec)
Heartbeat CPU 0 instructions: 450000067 cycles: 482841789 heartbeat IPC: 1.161 cumulative IPC: 0.932 (Simulation time: 01 hr 01 min 02 sec)
Heartbeat CPU 0 instructions: 460000069 cycles: 491497429 heartbeat IPC: 1.155 cumulative IPC: 0.9359 (Simulation time: 01 hr 02 min 30 sec)
Heartbeat CPU 0 instructions: 470000073 cycles: 500156561 heartbeat IPC: 1.155 cumulative IPC: 0.9397 (Simulation time: 01 hr 03 min 48 sec)
Heartbeat CPU 0 instructions: 480000074 cycles: 508926742 heartbeat IPC: 1.14 cumulative IPC: 0.9432 (Simulation time: 01 hr 05 min 08 sec)
Heartbeat CPU 0 instructions: 490000074 cycles: 517800656 heartbeat IPC: 1.127 cumulative IPC: 0.9463 (Simulation time: 01 hr 06 min 32 sec)
Heartbeat CPU 0 instructions: 500000076 cycles: 526418908 heartbeat IPC: 1.16 cumulative IPC: 0.9498 (Simulation time: 01 hr 07 min 58 sec)
Heartbeat CPU 0 instructions: 510000079 cycles: 535096682 heartbeat IPC: 1.152 cumulative IPC: 0.9531 (Simulation time: 01 hr 09 min 25 sec)
Heartbeat CPU 0 instructions: 520000083 cycles: 543815053 heartbeat IPC: 1.147 cumulative IPC: 0.9562 (Simulation time: 01 hr 10 min 53 sec)
Heartbeat CPU 0 instructions: 530000086 cycles: 552702956 heartbeat IPC: 1.125 cumulative IPC: 0.9589 (Simulation time: 01 hr 12 min 19 sec)
[ERROR_CYCLE] Error added at CPU cycle 553109137, next at 567427547, pending count: 1
[DRAM_CYCLE_ERROR] Cycle-based error applied! address=0x1d59022c00 additional_latency=1990500 cycles
Heartbeat CPU 0 instructions: 540000086 cycles: 561390613 heartbeat IPC: 1.151 cumulative IPC: 0.9619 (Simulation time: 01 hr 13 min 27 sec)
[ERROR_CYCLE] Error added at CPU cycle 567427547, next at 612939373, pending count: 1
[DRAM_CYCLE_ERROR] Cycle-based error applied! address=0x18611f3000 additional_latency=1990500 cycles
Heartbeat CPU 0 instructions: 550000089 cycles: 570053913 heartbeat IPC: 1.154 cumulative IPC: 0.9648 (Simulation time: 01 hr 14 min 37 sec)
Heartbeat CPU 0 instructions: 560000093 cycles: 578767226 heartbeat IPC: 1.148 cumulative IPC: 0.9676 (Simulation time: 01 hr 15 min 52 sec)
Heartbeat CPU 0 instructions: 570000097 cycles: 587479253 heartbeat IPC: 1.148 cumulative IPC: 0.9702 (Simulation time: 01 hr 17 min 22 sec)
Heartbeat CPU 0 instructions: 580000100 cycles: 596456186 heartbeat IPC: 1.114 cumulative IPC: 0.9724 (Simulation time: 01 hr 18 min 55 sec)
Heartbeat CPU 0 instructions: 590000101 cycles: 604985694 heartbeat IPC: 1.172 cumulative IPC: 0.9752 (Simulation time: 01 hr 20 min 24 sec)
[ERROR_CYCLE] Error added at CPU cycle 612939373, next at 681254883, pending count: 1
[DRAM_CYCLE_ERROR] Cycle-based error applied! address=0x1630885340 additional_latency=1990500 cycles
Heartbeat CPU 0 instructions: 600000105 cycles: 613693983 heartbeat IPC: 1.148 cumulative IPC: 0.9777 (Simulation time: 01 hr 21 min 54 sec)
Heartbeat CPU 0 instructions: 610000107 cycles: 620702079 heartbeat IPC: 1.427 cumulative IPC: 0.9828 (Simulation time: 01 hr 23 min 09 sec)
Heartbeat CPU 0 instructions: 620000108 cycles: 627512101 heartbeat IPC: 1.468 cumulative IPC: 0.988 (Simulation time: 01 hr 24 min 24 sec)
Heartbeat CPU 0 instructions: 630000109 cycles: 634311002 heartbeat IPC: 1.471 cumulative IPC: 0.9932 (Simulation time: 01 hr 25 min 39 sec)
Heartbeat CPU 0 instructions: 640000109 cycles: 641125406 heartbeat IPC: 1.467 cumulative IPC: 0.9982 (Simulation time: 01 hr 26 min 53 sec)
Heartbeat CPU 0 instructions: 650000113 cycles: 647753770 heartbeat IPC: 1.509 cumulative IPC: 1.003 (Simulation time: 01 hr 28 min 07 sec)
Heartbeat CPU 0 instructions: 660000113 cycles: 654332330 heartbeat IPC: 1.52 cumulative IPC: 1.009 (Simulation time: 01 hr 29 min 20 sec)
Heartbeat CPU 0 instructions: 670000114 cycles: 660909222 heartbeat IPC: 1.52 cumulative IPC: 1.014 (Simulation time: 01 hr 30 min 32 sec)
Heartbeat CPU 0 instructions: 680000118 cycles: 668342251 heartbeat IPC: 1.345 cumulative IPC: 1.017 (Simulation time: 01 hr 31 min 52 sec)
Heartbeat CPU 0 instructions: 690000120 cycles: 675914304 heartbeat IPC: 1.321 cumulative IPC: 1.021 (Simulation time: 01 hr 33 min 12 sec)
[ERROR_CYCLE] Error added at CPU cycle 681254883, next at 700827009, pending count: 1
[DRAM_CYCLE_ERROR] Cycle-based error applied! address=0x13ab6e7540 additional_latency=1990500 cycles
Heartbeat CPU 0 instructions: 700000120 cycles: 682476611 heartbeat IPC: 1.524 cumulative IPC: 1.026 (Simulation time: 01 hr 34 min 25 sec)
Heartbeat CPU 0 instructions: 710000123 cycles: 689669460 heartbeat IPC: 1.39 cumulative IPC: 1.029 (Simulation time: 01 hr 35 min 32 sec)
Heartbeat CPU 0 instructions: 720000125 cycles: 698638162 heartbeat IPC: 1.115 cumulative IPC: 1.031 (Simulation time: 01 hr 36 min 47 sec)
[ERROR_CYCLE] Error added at CPU cycle 700827009, next at 842903644, pending count: 1
[DRAM_CYCLE_ERROR] Cycle-based error applied! address=0xce7fd0600 additional_latency=1990500 cycles
Heartbeat CPU 0 instructions: 730000125 cycles: 707296826 heartbeat IPC: 1.155 cumulative IPC: 1.032 (Simulation time: 01 hr 38 min 17 sec)
Heartbeat CPU 0 instructions: 740000128 cycles: 715964994 heartbeat IPC: 1.154 cumulative IPC: 1.034 (Simulation time: 01 hr 39 min 47 sec)
Heartbeat CPU 0 instructions: 750000129 cycles: 724636081 heartbeat IPC: 1.153 cumulative IPC: 1.035 (Simulation time: 01 hr 41 min 14 sec)
Heartbeat CPU 0 instructions: 760000129 cycles: 733358108 heartbeat IPC: 1.147 cumulative IPC: 1.036 (Simulation time: 01 hr 42 min 23 sec)
Heartbeat CPU 0 instructions: 770000130 cycles: 742315297 heartbeat IPC: 1.116 cumulative IPC: 1.037 (Simulation time: 01 hr 43 min 32 sec)
Heartbeat CPU 0 instructions: 780000133 cycles: 750826901 heartbeat IPC: 1.175 cumulative IPC: 1.039 (Simulation time: 01 hr 44 min 41 sec)
Heartbeat CPU 0 instructions: 790000136 cycles: 759500263 heartbeat IPC: 1.153 cumulative IPC: 1.04 (Simulation time: 01 hr 46 min 09 sec)
Heartbeat CPU 0 instructions: 800000136 cycles: 768216662 heartbeat IPC: 1.147 cumulative IPC: 1.041 (Simulation time: 01 hr 47 min 37 sec)
Heartbeat CPU 0 instructions: 810000136 cycles: 777059026 heartbeat IPC: 1.131 cumulative IPC: 1.042 (Simulation time: 01 hr 49 min 06 sec)
Heartbeat CPU 0 instructions: 820000139 cycles: 785722086 heartbeat IPC: 1.154 cumulative IPC: 1.044 (Simulation time: 01 hr 50 min 34 sec)
Heartbeat CPU 0 instructions: 830000143 cycles: 794384208 heartbeat IPC: 1.154 cumulative IPC: 1.045 (Simulation time: 01 hr 52 min 02 sec)
Heartbeat CPU 0 instructions: 840000143 cycles: 803051084 heartbeat IPC: 1.154 cumulative IPC: 1.046 (Simulation time: 01 hr 53 min 30 sec)
Heartbeat CPU 0 instructions: 850000144 cycles: 811719712 heartbeat IPC: 1.154 cumulative IPC: 1.047 (Simulation time: 01 hr 54 min 58 sec)
Heartbeat CPU 0 instructions: 860000145 cycles: 820723795 heartbeat IPC: 1.111 cumulative IPC: 1.048 (Simulation time: 01 hr 56 min 25 sec)
Heartbeat CPU 0 instructions: 870000148 cycles: 829227117 heartbeat IPC: 1.176 cumulative IPC: 1.049 (Simulation time: 01 hr 57 min 26 sec)
Heartbeat CPU 0 instructions: 880000152 cycles: 837912113 heartbeat IPC: 1.151 cumulative IPC: 1.05 (Simulation time: 01 hr 58 min 45 sec)
[ERROR_CYCLE] Error added at CPU cycle 842903644, next at 871385107, pending count: 1
[DRAM_CYCLE_ERROR] Cycle-based error applied! address=0x19be44e380 additional_latency=1990500 cycles
Heartbeat CPU 0 instructions: 890000155 cycles: 846571344 heartbeat IPC: 1.155 cumulative IPC: 1.051 (Simulation time: 02 hr 00 min 14 sec)
Heartbeat CPU 0 instructions: 900000156 cycles: 855377828 heartbeat IPC: 1.136 cumulative IPC: 1.052 (Simulation time: 02 hr 01 min 43 sec)
Heartbeat CPU 0 instructions: 910000156 cycles: 864098902 heartbeat IPC: 1.147 cumulative IPC: 1.053 (Simulation time: 02 hr 03 min 13 sec)
[ERROR_CYCLE] Error added at CPU cycle 871385107, next at 907191996, pending count: 1
[DRAM_CYCLE_ERROR] Cycle-based error applied! address=0x1b42ea8cc0 additional_latency=1990500 cycles
Heartbeat CPU 0 instructions: 920000159 cycles: 872753346 heartbeat IPC: 1.155 cumulative IPC: 1.054 (Simulation time: 02 hr 04 min 36 sec)
Heartbeat CPU 0 instructions: 930000159 cycles: 881393882 heartbeat IPC: 1.157 cumulative IPC: 1.055 (Simulation time: 02 hr 05 min 34 sec)
Heartbeat CPU 0 instructions: 940000161 cycles: 890041437 heartbeat IPC: 1.156 cumulative IPC: 1.056 (Simulation time: 02 hr 06 min 32 sec)
Heartbeat CPU 0 instructions: 950000161 cycles: 899026769 heartbeat IPC: 1.113 cumulative IPC: 1.057 (Simulation time: 02 hr 07 min 31 sec)
[ERROR_CYCLE] Error added at CPU cycle 907191996, next at 1070014685, pending count: 1
[DRAM_CYCLE_ERROR] Cycle-based error applied! address=0x1b617c3b00 additional_latency=1990500 cycles
Heartbeat CPU 0 instructions: 960000163 cycles: 907591387 heartbeat IPC: 1.168 cumulative IPC: 1.058 (Simulation time: 02 hr 08 min 28 sec)
Heartbeat CPU 0 instructions: 970000164 cycles: 916277476 heartbeat IPC: 1.151 cumulative IPC: 1.059 (Simulation time: 02 hr 09 min 26 sec)
Heartbeat CPU 0 instructions: 980000164 cycles: 924972159 heartbeat IPC: 1.15 cumulative IPC: 1.059 (Simulation time: 02 hr 10 min 24 sec)
Heartbeat CPU 0 instructions: 990000166 cycles: 933748265 heartbeat IPC: 1.139 cumulative IPC: 1.06 (Simulation time: 02 hr 11 min 23 sec)
Heartbeat CPU 0 instructions: 1000000170 cycles: 942575914 heartbeat IPC: 1.133 cumulative IPC: 1.061 (Simulation time: 02 hr 12 min 21 sec)
Heartbeat CPU 0 instructions: 1010000172 cycles: 951201447 heartbeat IPC: 1.159 cumulative IPC: 1.062 (Simulation time: 02 hr 13 min 33 sec)
Heartbeat CPU 0 instructions: 1020000175 cycles: 959873407 heartbeat IPC: 1.153 cumulative IPC: 1.063 (Simulation time: 02 hr 14 min 39 sec)
Heartbeat CPU 0 instructions: 1030000175 cycles: 968519376 heartbeat IPC: 1.157 cumulative IPC: 1.063 (Simulation time: 02 hr 15 min 42 sec)
Heartbeat CPU 0 instructions: 1040000178 cycles: 977461112 heartbeat IPC: 1.118 cumulative IPC: 1.064 (Simulation time: 02 hr 16 min 46 sec)
Heartbeat CPU 0 instructions: 1050000178 cycles: 986103867 heartbeat IPC: 1.157 cumulative IPC: 1.065 (Simulation time: 02 hr 18 min 09 sec)
Heartbeat CPU 0 instructions: 1060000182 cycles: 994802523 heartbeat IPC: 1.15 cumulative IPC: 1.066 (Simulation time: 02 hr 19 min 38 sec)
Heartbeat CPU 0 instructions: 1070000184 cycles: 1003468191 heartbeat IPC: 1.154 cumulative IPC: 1.066 (Simulation time: 02 hr 20 min 44 sec)
Heartbeat CPU 0 instructions: 1080000186 cycles: 1012203566 heartbeat IPC: 1.145 cumulative IPC: 1.067 (Simulation time: 02 hr 21 min 42 sec)
Heartbeat CPU 0 instructions: 1090000188 cycles: 1021168320 heartbeat IPC: 1.115 cumulative IPC: 1.067 (Simulation time: 02 hr 22 min 42 sec)
Heartbeat CPU 0 instructions: 1100000190 cycles: 1029736908 heartbeat IPC: 1.167 cumulative IPC: 1.068 (Simulation time: 02 hr 23 min 39 sec)
Heartbeat CPU 0 instructions: 1110000190 cycles: 1038422352 heartbeat IPC: 1.151 cumulative IPC: 1.069 (Simulation time: 02 hr 24 min 38 sec)
Heartbeat CPU 0 instructions: 1120000190 cycles: 1047114972 heartbeat IPC: 1.15 cumulative IPC: 1.07 (Simulation time: 02 hr 25 min 35 sec)
Heartbeat CPU 0 instructions: 1130000190 cycles: 1056002270 heartbeat IPC: 1.125 cumulative IPC: 1.07 (Simulation time: 02 hr 26 min 34 sec)
Heartbeat CPU 0 instructions: 1140000194 cycles: 1064700369 heartbeat IPC: 1.15 cumulative IPC: 1.071 (Simulation time: 02 hr 27 min 32 sec)
[ERROR_CYCLE] Error added at CPU cycle 1070014686, next at 1070994884, pending count: 1
[DRAM_CYCLE_ERROR] Cycle-based error applied! address=0x1a46986880 additional_latency=1990500 cycles
[ERROR_CYCLE] Error added at CPU cycle 1070994885, next at 1160990919, pending count: 1
[DRAM_CYCLE_ERROR] Cycle-based error applied! address=0x6a3202400 additional_latency=1990500 cycles
Heartbeat CPU 0 instructions: 1150000194 cycles: 1073399475 heartbeat IPC: 1.15 cumulative IPC: 1.071 (Simulation time: 02 hr 28 min 31 sec)
Heartbeat CPU 0 instructions: 1160000197 cycles: 1082064869 heartbeat IPC: 1.154 cumulative IPC: 1.072 (Simulation time: 02 hr 29 min 29 sec)
Heartbeat CPU 0 instructions: 1170000199 cycles: 1090785685 heartbeat IPC: 1.147 cumulative IPC: 1.073 (Simulation time: 02 hr 30 min 27 sec)
Heartbeat CPU 0 instructions: 1180000199 cycles: 1099763645 heartbeat IPC: 1.114 cumulative IPC: 1.073 (Simulation time: 02 hr 31 min 27 sec)
Heartbeat CPU 0 instructions: 1190000199 cycles: 1108319934 heartbeat IPC: 1.169 cumulative IPC: 1.074 (Simulation time: 02 hr 32 min 25 sec)
Heartbeat CPU 0 instructions: 1200000203 cycles: 1116977619 heartbeat IPC: 1.155 cumulative IPC: 1.074 (Simulation time: 02 hr 33 min 22 sec)
Heartbeat CPU 0 instructions: 1210000203 cycles: 1125678277 heartbeat IPC: 1.149 cumulative IPC: 1.075 (Simulation time: 02 hr 34 min 28 sec)
Heartbeat CPU 0 instructions: 1220000207 cycles: 1134478359 heartbeat IPC: 1.136 cumulative IPC: 1.075 (Simulation time: 02 hr 35 min 26 sec)
Heartbeat CPU 0 instructions: 1230000208 cycles: 1143224135 heartbeat IPC: 1.143 cumulative IPC: 1.076 (Simulation time: 02 hr 36 min 28 sec)
Heartbeat CPU 0 instructions: 1240000209 cycles: 1151894413 heartbeat IPC: 1.153 cumulative IPC: 1.076 (Simulation time: 02 hr 37 min 30 sec)
Heartbeat CPU 0 instructions: 1250000210 cycles: 1160569995 heartbeat IPC: 1.153 cumulative IPC: 1.077 (Simulation time: 02 hr 38 min 28 sec)
[ERROR_CYCLE] Error added at CPU cycle 1160990919, next at 1213496919, pending count: 1
[DRAM_CYCLE_ERROR] Cycle-based error applied! address=0x1e90764f40 additional_latency=1990500 cycles
Heartbeat CPU 0 instructions: 1260000214 cycles: 1169244814 heartbeat IPC: 1.153 cumulative IPC: 1.078 (Simulation time: 02 hr 39 min 26 sec)
Heartbeat CPU 0 instructions: 1270000214 cycles: 1178242008 heartbeat IPC: 1.111 cumulative IPC: 1.078 (Simulation time: 02 hr 40 min 57 sec)
Heartbeat CPU 0 instructions: 1280000218 cycles: 1186818849 heartbeat IPC: 1.166 cumulative IPC: 1.079 (Simulation time: 02 hr 42 min 26 sec)
Heartbeat CPU 0 instructions: 1290000218 cycles: 1195475104 heartbeat IPC: 1.155 cumulative IPC: 1.079 (Simulation time: 02 hr 43 min 52 sec)
Heartbeat CPU 0 instructions: 1300000218 cycles: 1204163347 heartbeat IPC: 1.151 cumulative IPC: 1.08 (Simulation time: 02 hr 44 min 55 sec)
Heartbeat CPU 0 instructions: 1310000222 cycles: 1212932371 heartbeat IPC: 1.14 cumulative IPC: 1.08 (Simulation time: 02 hr 45 min 53 sec)
[ERROR_CYCLE] Error added at CPU cycle 1213496920, next at 1516211877, pending count: 1
[DRAM_CYCLE_ERROR] Cycle-based error applied! address=0x1b617e2540 additional_latency=1990500 cycles
Heartbeat CPU 0 instructions: 1320000222 cycles: 1221761611 heartbeat IPC: 1.133 cumulative IPC: 1.08 (Simulation time: 02 hr 46 min 52 sec)
Heartbeat CPU 0 instructions: 1330000224 cycles: 1230383308 heartbeat IPC: 1.16 cumulative IPC: 1.081 (Simulation time: 02 hr 48 min 03 sec)
Heartbeat CPU 0 instructions: 1340000225 cycles: 1239083216 heartbeat IPC: 1.149 cumulative IPC: 1.081 (Simulation time: 02 hr 49 min 06 sec)
Heartbeat CPU 0 instructions: 1350000227 cycles: 1247724628 heartbeat IPC: 1.157 cumulative IPC: 1.082 (Simulation time: 02 hr 50 min 09 sec)
Heartbeat CPU 0 instructions: 1360000231 cycles: 1256683769 heartbeat IPC: 1.116 cumulative IPC: 1.082 (Simulation time: 02 hr 51 min 10 sec)
Heartbeat CPU 0 instructions: 1370000231 cycles: 1265300922 heartbeat IPC: 1.16 cumulative IPC: 1.083 (Simulation time: 02 hr 52 min 05 sec)
Heartbeat CPU 0 instructions: 1380000232 cycles: 1273990421 heartbeat IPC: 1.151 cumulative IPC: 1.083 (Simulation time: 02 hr 53 min 01 sec)
Heartbeat CPU 0 instructions: 1390000232 cycles: 1282655989 heartbeat IPC: 1.154 cumulative IPC: 1.084 (Simulation time: 02 hr 53 min 57 sec)
Heartbeat CPU 0 instructions: 1400000232 cycles: 1291403625 heartbeat IPC: 1.143 cumulative IPC: 1.084 (Simulation time: 02 hr 54 min 53 sec)
Heartbeat CPU 0 instructions: 1410000234 cycles: 1300318149 heartbeat IPC: 1.122 cumulative IPC: 1.084 (Simulation time: 02 hr 55 min 49 sec)
Heartbeat CPU 0 instructions: 1420000234 cycles: 1308893590 heartbeat IPC: 1.166 cumulative IPC: 1.085 (Simulation time: 02 hr 56 min 45 sec)
Heartbeat CPU 0 instructions: 1430000235 cycles: 1317549878 heartbeat IPC: 1.155 cumulative IPC: 1.085 (Simulation time: 02 hr 57 min 41 sec)
Heartbeat CPU 0 instructions: 1440000238 cycles: 1326245949 heartbeat IPC: 1.15 cumulative IPC: 1.086 (Simulation time: 02 hr 58 min 38 sec)
Heartbeat CPU 0 instructions: 1450000241 cycles: 1332739557 heartbeat IPC: 1.54 cumulative IPC: 1.088 (Simulation time: 02 hr 59 min 23 sec)
Heartbeat CPU 0 instructions: 1460000242 cycles: 1339260718 heartbeat IPC: 1.533 cumulative IPC: 1.09 (Simulation time: 03 hr 00 min 08 sec)
Heartbeat CPU 0 instructions: 1470000245 cycles: 1345804957 heartbeat IPC: 1.528 cumulative IPC: 1.092 (Simulation time: 03 hr 01 min 02 sec)
Heartbeat CPU 0 instructions: 1480000245 cycles: 1352319345 heartbeat IPC: 1.535 cumulative IPC: 1.094 (Simulation time: 03 hr 01 min 48 sec)
Heartbeat CPU 0 instructions: 1490000249 cycles: 1358844384 heartbeat IPC: 1.533 cumulative IPC: 1.097 (Simulation time: 03 hr 02 min 34 sec)
Heartbeat CPU 0 instructions: 1500000249 cycles: 1365365787 heartbeat IPC: 1.533 cumulative IPC: 1.099 (Simulation time: 03 hr 03 min 20 sec)
Heartbeat CPU 0 instructions: 1510000250 cycles: 1371914370 heartbeat IPC: 1.527 cumulative IPC: 1.101 (Simulation time: 03 hr 04 min 05 sec)
Heartbeat CPU 0 instructions: 1520000253 cycles: 1378439752 heartbeat IPC: 1.532 cumulative IPC: 1.103 (Simulation time: 03 hr 04 min 51 sec)
Heartbeat CPU 0 instructions: 1530000253 cycles: 1384978115 heartbeat IPC: 1.529 cumulative IPC: 1.105 (Simulation time: 03 hr 05 min 36 sec)
Heartbeat CPU 0 instructions: 1540000253 cycles: 1391502449 heartbeat IPC: 1.533 cumulative IPC: 1.107 (Simulation time: 03 hr 06 min 22 sec)
Heartbeat CPU 0 instructions: 1550000256 cycles: 1398048284 heartbeat IPC: 1.528 cumulative IPC: 1.109 (Simulation time: 03 hr 07 min 07 sec)
Heartbeat CPU 0 instructions: 1560000257 cycles: 1404565038 heartbeat IPC: 1.535 cumulative IPC: 1.111 (Simulation time: 03 hr 07 min 51 sec)
Heartbeat CPU 0 instructions: 1570000261 cycles: 1411031043 heartbeat IPC: 1.547 cumulative IPC: 1.113 (Simulation time: 03 hr 08 min 35 sec)
Heartbeat CPU 0 instructions: 1580000263 cycles: 1417112977 heartbeat IPC: 1.644 cumulative IPC: 1.115 (Simulation time: 03 hr 09 min 18 sec)
Heartbeat CPU 0 instructions: 1590000263 cycles: 1423531883 heartbeat IPC: 1.558 cumulative IPC: 1.117 (Simulation time: 03 hr 10 min 02 sec)
Heartbeat CPU 0 instructions: 1600000263 cycles: 1430036672 heartbeat IPC: 1.537 cumulative IPC: 1.119 (Simulation time: 03 hr 10 min 46 sec)
Heartbeat CPU 0 instructions: 1610000265 cycles: 1436553482 heartbeat IPC: 1.534 cumulative IPC: 1.121 (Simulation time: 03 hr 11 min 31 sec)
Heartbeat CPU 0 instructions: 1620000266 cycles: 1443074222 heartbeat IPC: 1.534 cumulative IPC: 1.123 (Simulation time: 03 hr 12 min 15 sec)
Heartbeat CPU 0 instructions: 1630000267 cycles: 1449604673 heartbeat IPC: 1.531 cumulative IPC: 1.124 (Simulation time: 03 hr 13 min 00 sec)
Heartbeat CPU 0 instructions: 1640000271 cycles: 1456145057 heartbeat IPC: 1.529 cumulative IPC: 1.126 (Simulation time: 03 hr 13 min 45 sec)
Heartbeat CPU 0 instructions: 1650000273 cycles: 1462661832 heartbeat IPC: 1.535 cumulative IPC: 1.128 (Simulation time: 03 hr 14 min 29 sec)
Heartbeat CPU 0 instructions: 1660000274 cycles: 1469181681 heartbeat IPC: 1.534 cumulative IPC: 1.13 (Simulation time: 03 hr 15 min 13 sec)
Heartbeat CPU 0 instructions: 1670000278 cycles: 1475711212 heartbeat IPC: 1.532 cumulative IPC: 1.132 (Simulation time: 03 hr 15 min 58 sec)
Heartbeat CPU 0 instructions: 1680000279 cycles: 1482253556 heartbeat IPC: 1.529 cumulative IPC: 1.133 (Simulation time: 03 hr 16 min 43 sec)
Heartbeat CPU 0 instructions: 1690000280 cycles: 1488773452 heartbeat IPC: 1.534 cumulative IPC: 1.135 (Simulation time: 03 hr 17 min 27 sec)
Heartbeat CPU 0 instructions: 1700000280 cycles: 1495319857 heartbeat IPC: 1.528 cumulative IPC: 1.137 (Simulation time: 03 hr 18 min 12 sec)
Heartbeat CPU 0 instructions: 1710000280 cycles: 1501849621 heartbeat IPC: 1.531 cumulative IPC: 1.139 (Simulation time: 03 hr 18 min 56 sec)
Heartbeat CPU 0 instructions: 1720000284 cycles: 1508140869 heartbeat IPC: 1.59 cumulative IPC: 1.14 (Simulation time: 03 hr 19 min 40 sec)
Heartbeat CPU 0 instructions: 1730000286 cycles: 1514264728 heartbeat IPC: 1.633 cumulative IPC: 1.142 (Simulation time: 03 hr 20 min 22 sec)
[ERROR_CYCLE] Error added at CPU cycle 1516211878, next at 1535167431, pending count: 1
[DRAM_CYCLE_ERROR] Cycle-based error applied! address=0x1383396500 additional_latency=1990500 cycles
Heartbeat CPU 0 instructions: 1740000287 cycles: 1520816033 heartbeat IPC: 1.526 cumulative IPC: 1.144 (Simulation time: 03 hr 21 min 07 sec)
Heartbeat CPU 0 instructions: 1750000288 cycles: 1527325296 heartbeat IPC: 1.536 cumulative IPC: 1.146 (Simulation time: 03 hr 21 min 51 sec)
Heartbeat CPU 0 instructions: 1760000288 cycles: 1533849831 heartbeat IPC: 1.533 cumulative IPC: 1.147 (Simulation time: 03 hr 22 min 35 sec)
[ERROR_CYCLE] Error added at CPU cycle 1535167432, next at 1554376223, pending count: 1
[DRAM_CYCLE_ERROR] Cycle-based error applied! address=0x18611f26d0 additional_latency=1990500 cycles
Heartbeat CPU 0 instructions: 1770000288 cycles: 1540385215 heartbeat IPC: 1.53 cumulative IPC: 1.149 (Simulation time: 03 hr 23 min 20 sec)
Heartbeat CPU 0 instructions: 1780000289 cycles: 1546923757 heartbeat IPC: 1.529 cumulative IPC: 1.151 (Simulation time: 03 hr 24 min 04 sec)
Heartbeat CPU 0 instructions: 1790000291 cycles: 1553444291 heartbeat IPC: 1.534 cumulative IPC: 1.152 (Simulation time: 03 hr 24 min 48 sec)
[ERROR_CYCLE] Error added at CPU cycle 1554376224, next at 1784952274, pending count: 1
[DRAM_CYCLE_ERROR] Cycle-based error applied! address=0x171b2eba40 additional_latency=1990500 cycles
Heartbeat CPU 0 instructions: 1800000291 cycles: 1559994440 heartbeat IPC: 1.527 cumulative IPC: 1.154 (Simulation time: 03 hr 25 min 32 sec)
Heartbeat CPU 0 instructions: 1810000291 cycles: 1566545094 heartbeat IPC: 1.527 cumulative IPC: 1.155 (Simulation time: 03 hr 26 min 17 sec)
Heartbeat CPU 0 instructions: 1820000294 cycles: 1573070085 heartbeat IPC: 1.533 cumulative IPC: 1.157 (Simulation time: 03 hr 27 min 01 sec)
Heartbeat CPU 0 instructions: 1830000297 cycles: 1579599800 heartbeat IPC: 1.531 cumulative IPC: 1.159 (Simulation time: 03 hr 27 min 46 sec)
Heartbeat CPU 0 instructions: 1840000298 cycles: 1586117862 heartbeat IPC: 1.534 cumulative IPC: 1.16 (Simulation time: 03 hr 28 min 30 sec)
Heartbeat CPU 0 instructions: 1850000300 cycles: 1592650622 heartbeat IPC: 1.531 cumulative IPC: 1.162 (Simulation time: 03 hr 29 min 15 sec)
Heartbeat CPU 0 instructions: 1860000300 cycles: 1599217236 heartbeat IPC: 1.523 cumulative IPC: 1.163 (Simulation time: 03 hr 30 min 00 sec)
Heartbeat CPU 0 instructions: 1870000300 cycles: 1605329672 heartbeat IPC: 1.636 cumulative IPC: 1.165 (Simulation time: 03 hr 30 min 43 sec)
Heartbeat CPU 0 instructions: 1880000300 cycles: 1611618694 heartbeat IPC: 1.59 cumulative IPC: 1.167 (Simulation time: 03 hr 31 min 26 sec)
Heartbeat CPU 0 instructions: 1890000302 cycles: 1618132191 heartbeat IPC: 1.535 cumulative IPC: 1.168 (Simulation time: 03 hr 32 min 11 sec)
Heartbeat CPU 0 instructions: 1900000302 cycles: 1624659096 heartbeat IPC: 1.532 cumulative IPC: 1.169 (Simulation time: 03 hr 32 min 56 sec)
Heartbeat CPU 0 instructions: 1910000302 cycles: 1631177811 heartbeat IPC: 1.534 cumulative IPC: 1.171 (Simulation time: 03 hr 33 min 40 sec)
Heartbeat CPU 0 instructions: 1920000303 cycles: 1637702262 heartbeat IPC: 1.533 cumulative IPC: 1.172 (Simulation time: 03 hr 34 min 25 sec)
Heartbeat CPU 0 instructions: 1930000307 cycles: 1644216703 heartbeat IPC: 1.535 cumulative IPC: 1.174 (Simulation time: 03 hr 35 min 09 sec)
Heartbeat CPU 0 instructions: 1940000308 cycles: 1650766682 heartbeat IPC: 1.527 cumulative IPC: 1.175 (Simulation time: 03 hr 35 min 54 sec)
Heartbeat CPU 0 instructions: 1950000308 cycles: 1657286212 heartbeat IPC: 1.534 cumulative IPC: 1.177 (Simulation time: 03 hr 36 min 39 sec)
Heartbeat CPU 0 instructions: 1960000310 cycles: 1663827970 heartbeat IPC: 1.529 cumulative IPC: 1.178 (Simulation time: 03 hr 37 min 23 sec)
Heartbeat CPU 0 instructions: 1970000311 cycles: 1670361973 heartbeat IPC: 1.53 cumulative IPC: 1.179 (Simulation time: 03 hr 38 min 08 sec)
Heartbeat CPU 0 instructions: 1980000312 cycles: 1676906038 heartbeat IPC: 1.528 cumulative IPC: 1.181 (Simulation time: 03 hr 38 min 52 sec)
Heartbeat CPU 0 instructions: 1990000313 cycles: 1683435083 heartbeat IPC: 1.532 cumulative IPC: 1.182 (Simulation time: 03 hr 39 min 36 sec)

=== ERROR PAGE STATISTICS ===
Mode: CYCLE
Error Cycle Interval: 80000000 CPU cycles
Total Error Accesses: 20
==============================
Simulation finished CPU 0 instructions: 1999999509 cycles: 1689964643 cumulative IPC: 1.183 (Simulation time: 03 hr 40 min 19 sec)
Simulation complete CPU 0 instructions: 1999999509 cycles: 1689964643 cumulative IPC: 1.183 (Simulation time: 03 hr 40 min 19 sec)

ChampSim completed all CPUs

=== Simulation ===
CPU 0 runs test_traces/654.roms_s-1007B.champsimtrace.xz

Region of Interest Statistics

CPU 0 cumulative IPC: 1.183 instructions: 1999999509 cycles: 1689964643
CPU 0 Branch Prediction Accuracy: 95.85% MPKI: 3.086 Average ROB Occupancy at Mispredict: 45.56
Branch type MPKI
BRANCH_DIRECT_JUMP: 9.8e-05
BRANCH_INDIRECT: 6e-06
BRANCH_CONDITIONAL: 1.593
BRANCH_DIRECT_CALL: 3.65e-05
BRANCH_INDIRECT_CALL: 0
BRANCH_RETURN: 1.493

cpu0->cpu0_STLB TOTAL        ACCESS:   39022116 HIT:   39021236 MISS:        880 MSHR_MERGE:          0
cpu0->cpu0_STLB LOAD         ACCESS:   39022116 HIT:   39021236 MISS:        880 MSHR_MERGE:          0
cpu0->cpu0_STLB RFO          ACCESS:          0 HIT:          0 MISS:          0 MSHR_MERGE:          0
cpu0->cpu0_STLB PREFETCH     ACCESS:          0 HIT:          0 MISS:          0 MSHR_MERGE:          0
cpu0->cpu0_STLB WRITE        ACCESS:          0 HIT:          0 MISS:          0 MSHR_MERGE:          0
cpu0->cpu0_STLB TRANSLATION  ACCESS:          0 HIT:          0 MISS:          0 MSHR_MERGE:          0
cpu0->cpu0_STLB PREFETCH REQUESTED:          0 ISSUED:          0 USEFUL:          0 USELESS:          0
cpu0->cpu0_STLB AVERAGE MISS LATENCY: 8742 cycles
cpu0->cpu0_L2C TOTAL        ACCESS:   35187832 HIT:   15858885 MISS:   19328947 MSHR_MERGE:          0
cpu0->cpu0_L2C LOAD         ACCESS:   22563606 HIT:    7672364 MISS:   14891242 MSHR_MERGE:          0
cpu0->cpu0_L2C RFO          ACCESS:    5289568 HIT:     857691 MISS:    4431877 MSHR_MERGE:          0
cpu0->cpu0_L2C PREFETCH     ACCESS:          0 HIT:          0 MISS:          0 MSHR_MERGE:          0
cpu0->cpu0_L2C WRITE        ACCESS:    7334658 HIT:    7328830 MISS:       5828 MSHR_MERGE:          0
cpu0->cpu0_L2C TRANSLATION  ACCESS:          0 HIT:          0 MISS:          0 MSHR_MERGE:          0
cpu0->cpu0_L2C PREFETCH REQUESTED:          0 ISSUED:          0 USEFUL:          0 USELESS:          0
cpu0->cpu0_L2C AVERAGE MISS LATENCY: 62.25 cycles
cpu0->cpu0_L1I TOTAL        ACCESS:  419298852 HIT:  419298248 MISS:        604 MSHR_MERGE:        191
cpu0->cpu0_L1I LOAD         ACCESS:  419298852 HIT:  419298248 MISS:        604 MSHR_MERGE:        191
cpu0->cpu0_L1I RFO          ACCESS:          0 HIT:          0 MISS:          0 MSHR_MERGE:          0
cpu0->cpu0_L1I PREFETCH     ACCESS:          0 HIT:          0 MISS:          0 MSHR_MERGE:          0
cpu0->cpu0_L1I WRITE        ACCESS:          0 HIT:          0 MISS:          0 MSHR_MERGE:          0
cpu0->cpu0_L1I TRANSLATION  ACCESS:          0 HIT:          0 MISS:          0 MSHR_MERGE:          0
cpu0->cpu0_L1I PREFETCH REQUESTED:          0 ISSUED:          0 USEFUL:          0 USELESS:          0
cpu0->cpu0_L1I AVERAGE MISS LATENCY: 121.1 cycles
cpu0->cpu0_L1D TOTAL        ACCESS:  768700515 HIT:  729977872 MISS:   38722643 MSHR_MERGE:   10869360
cpu0->cpu0_L1D LOAD         ACCESS:  587621354 HIT:  557895489 MISS:   29725865 MSHR_MERGE:    7162663
cpu0->cpu0_L1D RFO          ACCESS:          0 HIT:          0 MISS:          0 MSHR_MERGE:          0
cpu0->cpu0_L1D PREFETCH     ACCESS:          0 HIT:          0 MISS:          0 MSHR_MERGE:          0
cpu0->cpu0_L1D WRITE        ACCESS:  181079161 HIT:  172082383 MISS:    8996778 MSHR_MERGE:    3706697
cpu0->cpu0_L1D TRANSLATION  ACCESS:          0 HIT:          0 MISS:          0 MSHR_MERGE:          0
cpu0->cpu0_L1D PREFETCH REQUESTED:          0 ISSUED:          0 USEFUL:          0 USELESS:          0
cpu0->cpu0_L1D AVERAGE MISS LATENCY: 51.94 cycles
cpu0->cpu0_ITLB TOTAL        ACCESS:  364640654 HIT:  364640653 MISS:          1 MSHR_MERGE:          0
cpu0->cpu0_ITLB LOAD         ACCESS:  364640654 HIT:  364640653 MISS:          1 MSHR_MERGE:          0
cpu0->cpu0_ITLB RFO          ACCESS:          0 HIT:          0 MISS:          0 MSHR_MERGE:          0
cpu0->cpu0_ITLB PREFETCH     ACCESS:          0 HIT:          0 MISS:          0 MSHR_MERGE:          0
cpu0->cpu0_ITLB WRITE        ACCESS:          0 HIT:          0 MISS:          0 MSHR_MERGE:          0
cpu0->cpu0_ITLB TRANSLATION  ACCESS:          0 HIT:          0 MISS:          0 MSHR_MERGE:          0
cpu0->cpu0_ITLB PREFETCH REQUESTED:          0 ISSUED:          0 USEFUL:          0 USELESS:          0
cpu0->cpu0_ITLB AVERAGE MISS LATENCY: 1.722e+04 cycles
cpu0->cpu0_DTLB TOTAL        ACCESS:  653281691 HIT:  614241015 MISS:   39040676 MSHR_MERGE:      18561
cpu0->cpu0_DTLB LOAD         ACCESS:  653281691 HIT:  614241015 MISS:   39040676 MSHR_MERGE:      18561
cpu0->cpu0_DTLB RFO          ACCESS:          0 HIT:          0 MISS:          0 MSHR_MERGE:          0
cpu0->cpu0_DTLB PREFETCH     ACCESS:          0 HIT:          0 MISS:          0 MSHR_MERGE:          0
cpu0->cpu0_DTLB WRITE        ACCESS:          0 HIT:          0 MISS:          0 MSHR_MERGE:          0
cpu0->cpu0_DTLB TRANSLATION  ACCESS:          0 HIT:          0 MISS:          0 MSHR_MERGE:          0
cpu0->cpu0_DTLB PREFETCH REQUESTED:          0 ISSUED:          0 USEFUL:          0 USELESS:          0
cpu0->cpu0_DTLB AVERAGE MISS LATENCY: 5.22 cycles
cpu0->LLC TOTAL        ACCESS:   25251964 HIT:   16383785 MISS:    8868179 MSHR_MERGE:          0
cpu0->LLC LOAD         ACCESS:   14891241 HIT:    7671900 MISS:    7219341 MSHR_MERGE:          0
cpu0->LLC RFO          ACCESS:    4431877 HIT:    2788364 MISS:    1643513 MSHR_MERGE:          0
cpu0->LLC PREFETCH     ACCESS:          0 HIT:          0 MISS:          0 MSHR_MERGE:          0
cpu0->LLC WRITE        ACCESS:    5928846 HIT:    5923521 MISS:       5325 MSHR_MERGE:          0
cpu0->LLC TRANSLATION  ACCESS:          0 HIT:          0 MISS:          0 MSHR_MERGE:          0
cpu0->LLC PREFETCH REQUESTED:          0 ISSUED:          0 USEFUL:          0 USELESS:          0
cpu0->LLC AVERAGE MISS LATENCY: 102 cycles

DRAM Statistics

Channel 0 RQ ROW_BUFFER_HIT:      76954
  ROW_BUFFER_MISS:    4354686
  AVG DBUS CONGESTED CYCLE: 11.45
Channel 0 WQ ROW_BUFFER_HIT:     179785
  ROW_BUFFER_MISS:     678585
  FULL:          0
Channel 0 REFRESHES ISSUED:     140821

Channel 1 RQ ROW_BUFFER_HIT:      76648
  ROW_BUFFER_MISS:    4356186
  AVG DBUS CONGESTED CYCLE: 11.45
Channel 1 WQ ROW_BUFFER_HIT:     180186
  ROW_BUFFER_MISS:     677912
  FULL:          0
Channel 1 REFRESHES ISSUED:     140821
