[VMEM] WARNING: physical memory size is smaller than virtual memory size.

*** ChampSim Multicore Out-of-Order Simulator ***
Warmup Instructions: 0
Simulation Instructions: 9223372036854775807
Number of CPUs: 1
Page size: 2097152

Off-chip DRAM Size: 32 GiB Channels: 2 Width: 32-bit Data Rate: 4807 MT/s
[ERROR_PAGE_MANAGER] Error latency: 1990500 
[ERROR_PAGE_MANAGER] Random seed: 54321 (fixed for preload reproducibility)
[ERROR_PAGE_MANAGER] Cycle-based error modeling enabled
[ERROR_PAGE_MANAGER] Errors per interval: 1
[ERROR_PAGE_MANAGER] Error cycle interval: 200000000 cycles

=== ERROR PAGE STATISTICS ===
Mode: CYCLE
Error Cycle Interval: 200000000 CPU cycles
Total Error Accesses: 0
==============================
Warmup finished CPU 0 instructions: 0 cycles: 1 cumulative IPC: 0 (Simulation time: 00 hr 00 min 00 sec)
Warmup complete CPU 0 instructions: 0 cycles: 1 cumulative IPC: 0 (Simulation time: 00 hr 00 min 00 sec)
Heartbeat CPU 0 instructions: 10000000 cycles: 9107852 heartbeat IPC: 1.098 cumulative IPC: 1.098 (Simulation time: 00 hr 01 min 02 sec)
Heartbeat CPU 0 instructions: 20000000 cycles: 18125790 heartbeat IPC: 1.109 cumulative IPC: 1.103 (Simulation time: 00 hr 02 min 00 sec)
Heartbeat CPU 0 instructions: 30000000 cycles: 27153857 heartbeat IPC: 1.108 cumulative IPC: 1.105 (Simulation time: 00 hr 03 min 02 sec)
Heartbeat CPU 0 instructions: 40000001 cycles: 36182064 heartbeat IPC: 1.108 cumulative IPC: 1.106 (Simulation time: 00 hr 04 min 11 sec)
Heartbeat CPU 0 instructions: 50000005 cycles: 50936044 heartbeat IPC: 0.6778 cumulative IPC: 0.9816 (Simulation time: 00 hr 06 min 17 sec)
Heartbeat CPU 0 instructions: 60000005 cycles: 69077353 heartbeat IPC: 0.5512 cumulative IPC: 0.8686 (Simulation time: 00 hr 08 min 41 sec)
Heartbeat CPU 0 instructions: 70000008 cycles: 78083295 heartbeat IPC: 1.11 cumulative IPC: 0.8965 (Simulation time: 00 hr 09 min 51 sec)
Heartbeat CPU 0 instructions: 80000011 cycles: 87088732 heartbeat IPC: 1.11 cumulative IPC: 0.9186 (Simulation time: 00 hr 10 min 51 sec)
Heartbeat CPU 0 instructions: 90000011 cycles: 96090628 heartbeat IPC: 1.111 cumulative IPC: 0.9366 (Simulation time: 00 hr 11 min 59 sec)
Heartbeat CPU 0 instructions: 100000014 cycles: 105085577 heartbeat IPC: 1.112 cumulative IPC: 0.9516 (Simulation time: 00 hr 13 min 06 sec)
Heartbeat CPU 0 instructions: 110000014 cycles: 114082548 heartbeat IPC: 1.111 cumulative IPC: 0.9642 (Simulation time: 00 hr 14 min 14 sec)
Heartbeat CPU 0 instructions: 120000018 cycles: 125387425 heartbeat IPC: 0.8846 cumulative IPC: 0.957 (Simulation time: 00 hr 15 min 44 sec)
[ERROR_CYCLE] Error added at CPU cycle 142556113, next at 183066125, pending count: 1
[DRAM_CYCLE_ERROR] Cycle-based error applied! address=0x3a3e5b680 additional_latency=1990500 cycles
Heartbeat CPU 0 instructions: 130000019 cycles: 143168374 heartbeat IPC: 0.5624 cumulative IPC: 0.908 (Simulation time: 00 hr 18 min 14 sec)
Heartbeat CPU 0 instructions: 140000019 cycles: 152176925 heartbeat IPC: 1.11 cumulative IPC: 0.92 (Simulation time: 00 hr 19 min 09 sec)
Heartbeat CPU 0 instructions: 150000019 cycles: 161180369 heartbeat IPC: 1.111 cumulative IPC: 0.9306 (Simulation time: 00 hr 20 min 06 sec)
Heartbeat CPU 0 instructions: 160000020 cycles: 170183474 heartbeat IPC: 1.111 cumulative IPC: 0.9402 (Simulation time: 00 hr 20 min 55 sec)
Heartbeat CPU 0 instructions: 170000020 cycles: 179178893 heartbeat IPC: 1.112 cumulative IPC: 0.9488 (Simulation time: 00 hr 21 min 51 sec)
[ERROR_CYCLE] Error added at CPU cycle 183066126, next at 513921280, pending count: 1
[DRAM_CYCLE_ERROR] Cycle-based error applied! address=0x45f8edb80 additional_latency=1990500 cycles
Heartbeat CPU 0 instructions: 180000023 cycles: 188177236 heartbeat IPC: 1.111 cumulative IPC: 0.9565 (Simulation time: 00 hr 22 min 54 sec)
Heartbeat CPU 0 instructions: 190000026 cycles: 197175896 heartbeat IPC: 1.111 cumulative IPC: 0.9636 (Simulation time: 00 hr 24 min 01 sec)
Heartbeat CPU 0 instructions: 200000027 cycles: 214058950 heartbeat IPC: 0.5923 cumulative IPC: 0.9343 (Simulation time: 00 hr 26 min 14 sec)
Heartbeat CPU 0 instructions: 210000029 cycles: 226000778 heartbeat IPC: 0.8374 cumulative IPC: 0.9292 (Simulation time: 00 hr 27 min 49 sec)
Heartbeat CPU 0 instructions: 220000033 cycles: 235004689 heartbeat IPC: 1.111 cumulative IPC: 0.9362 (Simulation time: 00 hr 28 min 58 sec)
Heartbeat CPU 0 instructions: 230000036 cycles: 244013556 heartbeat IPC: 1.11 cumulative IPC: 0.9426 (Simulation time: 00 hr 30 min 08 sec)
Heartbeat CPU 0 instructions: 240000039 cycles: 253012285 heartbeat IPC: 1.111 cumulative IPC: 0.9486 (Simulation time: 00 hr 31 min 18 sec)
Heartbeat CPU 0 instructions: 250000039 cycles: 262009173 heartbeat IPC: 1.111 cumulative IPC: 0.9542 (Simulation time: 00 hr 32 min 11 sec)
Heartbeat CPU 0 instructions: 260000039 cycles: 271009188 heartbeat IPC: 1.111 cumulative IPC: 0.9594 (Simulation time: 00 hr 33 min 20 sec)
Heartbeat CPU 0 instructions: 270000040 cycles: 284527124 heartbeat IPC: 0.7398 cumulative IPC: 0.9489 (Simulation time: 00 hr 35 min 14 sec)
Heartbeat CPU 0 instructions: 280000044 cycles: 299684093 heartbeat IPC: 0.6598 cumulative IPC: 0.9343 (Simulation time: 00 hr 37 min 07 sec)
Heartbeat CPU 0 instructions: 290000047 cycles: 308696438 heartbeat IPC: 1.11 cumulative IPC: 0.9394 (Simulation time: 00 hr 38 min 16 sec)
Heartbeat CPU 0 instructions: 300000048 cycles: 317695734 heartbeat IPC: 1.111 cumulative IPC: 0.9443 (Simulation time: 00 hr 39 min 13 sec)
Heartbeat CPU 0 instructions: 310000050 cycles: 326697715 heartbeat IPC: 1.111 cumulative IPC: 0.9489 (Simulation time: 00 hr 40 min 20 sec)
Heartbeat CPU 0 instructions: 320000054 cycles: 335696148 heartbeat IPC: 1.111 cumulative IPC: 0.9532 (Simulation time: 00 hr 41 min 27 sec)
Heartbeat CPU 0 instructions: 330000056 cycles: 344694874 heartbeat IPC: 1.111 cumulative IPC: 0.9574 (Simulation time: 00 hr 42 min 28 sec)
Heartbeat CPU 0 instructions: 340000056 cycles: 354999330 heartbeat IPC: 0.9705 cumulative IPC: 0.9577 (Simulation time: 00 hr 43 min 50 sec)
Heartbeat CPU 0 instructions: 350000056 cycles: 373233730 heartbeat IPC: 0.5484 cumulative IPC: 0.9378 (Simulation time: 00 hr 46 min 26 sec)
Heartbeat CPU 0 instructions: 360000056 cycles: 383513742 heartbeat IPC: 0.9728 cumulative IPC: 0.9387 (Simulation time: 00 hr 47 min 29 sec)
Heartbeat CPU 0 instructions: 370000058 cycles: 393788195 heartbeat IPC: 0.9733 cumulative IPC: 0.9396 (Simulation time: 00 hr 48 min 30 sec)
Heartbeat CPU 0 instructions: 380000062 cycles: 404050416 heartbeat IPC: 0.9744 cumulative IPC: 0.9405 (Simulation time: 00 hr 49 min 44 sec)
Heartbeat CPU 0 instructions: 390000062 cycles: 416524234 heartbeat IPC: 0.8017 cumulative IPC: 0.9363 (Simulation time: 00 hr 51 min 11 sec)
Heartbeat CPU 0 instructions: 400000062 cycles: 430490305 heartbeat IPC: 0.716 cumulative IPC: 0.9292 (Simulation time: 00 hr 53 min 20 sec)
Heartbeat CPU 0 instructions: 410000062 cycles: 437227953 heartbeat IPC: 1.484 cumulative IPC: 0.9377 (Simulation time: 00 hr 54 min 33 sec)
Heartbeat CPU 0 instructions: 420000064 cycles: 444297021 heartbeat IPC: 1.415 cumulative IPC: 0.9453 (Simulation time: 00 hr 55 min 48 sec)
Heartbeat CPU 0 instructions: 430000067 cycles: 452771617 heartbeat IPC: 1.18 cumulative IPC: 0.9497 (Simulation time: 00 hr 57 min 03 sec)
Heartbeat CPU 0 instructions: 440000067 cycles: 461604559 heartbeat IPC: 1.132 cumulative IPC: 0.9532 (Simulation time: 00 hr 58 min 28 sec)
Heartbeat CPU 0 instructions: 450000067 cycles: 470075631 heartbeat IPC: 1.18 cumulative IPC: 0.9573 (Simulation time: 00 hr 59 min 54 sec)
Heartbeat CPU 0 instructions: 460000069 cycles: 478581098 heartbeat IPC: 1.176 cumulative IPC: 0.9612 (Simulation time: 01 hr 01 min 18 sec)
Heartbeat CPU 0 instructions: 470000073 cycles: 487094349 heartbeat IPC: 1.175 cumulative IPC: 0.9649 (Simulation time: 01 hr 02 min 41 sec)
Heartbeat CPU 0 instructions: 480000074 cycles: 495715421 heartbeat IPC: 1.16 cumulative IPC: 0.9683 (Simulation time: 01 hr 03 min 51 sec)
Heartbeat CPU 0 instructions: 490000074 cycles: 504429607 heartbeat IPC: 1.148 cumulative IPC: 0.9714 (Simulation time: 01 hr 04 min 59 sec)
Heartbeat CPU 0 instructions: 500000076 cycles: 512886224 heartbeat IPC: 1.183 cumulative IPC: 0.9749 (Simulation time: 01 hr 06 min 22 sec)
[ERROR_CYCLE] Error added at CPU cycle 513921281, next at 1069353794, pending count: 1
[DRAM_CYCLE_ERROR] Cycle-based error applied! address=0x1b2c14640 additional_latency=1990500 cycles
Heartbeat CPU 0 instructions: 510000079 cycles: 521403208 heartbeat IPC: 1.174 cumulative IPC: 0.9781 (Simulation time: 01 hr 07 min 48 sec)
Heartbeat CPU 0 instructions: 520000083 cycles: 529949544 heartbeat IPC: 1.17 cumulative IPC: 0.9812 (Simulation time: 01 hr 09 min 13 sec)
Heartbeat CPU 0 instructions: 530000087 cycles: 538651515 heartbeat IPC: 1.149 cumulative IPC: 0.9839 (Simulation time: 01 hr 10 min 42 sec)
Heartbeat CPU 0 instructions: 540000087 cycles: 547151521 heartbeat IPC: 1.176 cumulative IPC: 0.9869 (Simulation time: 01 hr 12 min 09 sec)
Heartbeat CPU 0 instructions: 550000089 cycles: 555626856 heartbeat IPC: 1.18 cumulative IPC: 0.9899 (Simulation time: 01 hr 13 min 37 sec)
Heartbeat CPU 0 instructions: 560000093 cycles: 564170255 heartbeat IPC: 1.17 cumulative IPC: 0.9926 (Simulation time: 01 hr 15 min 05 sec)
Heartbeat CPU 0 instructions: 570000097 cycles: 572722425 heartbeat IPC: 1.169 cumulative IPC: 0.9952 (Simulation time: 01 hr 16 min 33 sec)
Heartbeat CPU 0 instructions: 580000100 cycles: 581530173 heartbeat IPC: 1.135 cumulative IPC: 0.9974 (Simulation time: 01 hr 18 min 04 sec)
Heartbeat CPU 0 instructions: 590000101 cycles: 589907216 heartbeat IPC: 1.194 cumulative IPC: 1 (Simulation time: 01 hr 19 min 25 sec)
Heartbeat CPU 0 instructions: 600000105 cycles: 598430963 heartbeat IPC: 1.173 cumulative IPC: 1.003 (Simulation time: 01 hr 20 min 53 sec)
Heartbeat CPU 0 instructions: 610000107 cycles: 605326959 heartbeat IPC: 1.45 cumulative IPC: 1.008 (Simulation time: 01 hr 22 min 07 sec)
Heartbeat CPU 0 instructions: 620000108 cycles: 612035221 heartbeat IPC: 1.491 cumulative IPC: 1.013 (Simulation time: 01 hr 23 min 20 sec)
Heartbeat CPU 0 instructions: 630000109 cycles: 618730147 heartbeat IPC: 1.494 cumulative IPC: 1.018 (Simulation time: 01 hr 24 min 27 sec)
Heartbeat CPU 0 instructions: 640000109 cycles: 625441547 heartbeat IPC: 1.49 cumulative IPC: 1.023 (Simulation time: 01 hr 25 min 29 sec)
Heartbeat CPU 0 instructions: 650000113 cycles: 631959856 heartbeat IPC: 1.534 cumulative IPC: 1.029 (Simulation time: 01 hr 26 min 40 sec)
Heartbeat CPU 0 instructions: 660000113 cycles: 638421827 heartbeat IPC: 1.548 cumulative IPC: 1.034 (Simulation time: 01 hr 27 min 50 sec)
Heartbeat CPU 0 instructions: 670000114 cycles: 644892797 heartbeat IPC: 1.545 cumulative IPC: 1.039 (Simulation time: 01 hr 29 min 00 sec)
Heartbeat CPU 0 instructions: 680000114 cycles: 652201238 heartbeat IPC: 1.368 cumulative IPC: 1.043 (Simulation time: 01 hr 30 min 16 sec)
Heartbeat CPU 0 instructions: 690000115 cycles: 659623131 heartbeat IPC: 1.347 cumulative IPC: 1.046 (Simulation time: 01 hr 31 min 33 sec)
Heartbeat CPU 0 instructions: 700000115 cycles: 666061763 heartbeat IPC: 1.553 cumulative IPC: 1.051 (Simulation time: 01 hr 32 min 27 sec)
Heartbeat CPU 0 instructions: 710000117 cycles: 673121391 heartbeat IPC: 1.417 cumulative IPC: 1.055 (Simulation time: 01 hr 33 min 28 sec)
Heartbeat CPU 0 instructions: 720000119 cycles: 681895834 heartbeat IPC: 1.14 cumulative IPC: 1.056 (Simulation time: 01 hr 34 min 57 sec)
Heartbeat CPU 0 instructions: 730000120 cycles: 690354209 heartbeat IPC: 1.182 cumulative IPC: 1.057 (Simulation time: 01 hr 36 min 22 sec)
Heartbeat CPU 0 instructions: 740000123 cycles: 698845140 heartbeat IPC: 1.178 cumulative IPC: 1.059 (Simulation time: 01 hr 37 min 37 sec)
Heartbeat CPU 0 instructions: 750000124 cycles: 707358382 heartbeat IPC: 1.175 cumulative IPC: 1.06 (Simulation time: 01 hr 38 min 56 sec)
Heartbeat CPU 0 instructions: 760000124 cycles: 715907803 heartbeat IPC: 1.17 cumulative IPC: 1.062 (Simulation time: 01 hr 40 min 22 sec)
Heartbeat CPU 0 instructions: 770000125 cycles: 724686317 heartbeat IPC: 1.139 cumulative IPC: 1.063 (Simulation time: 01 hr 41 min 45 sec)
Heartbeat CPU 0 instructions: 780000128 cycles: 733046947 heartbeat IPC: 1.196 cumulative IPC: 1.064 (Simulation time: 01 hr 43 min 07 sec)
Heartbeat CPU 0 instructions: 790000129 cycles: 741550422 heartbeat IPC: 1.176 cumulative IPC: 1.065 (Simulation time: 01 hr 44 min 22 sec)
Heartbeat CPU 0 instructions: 800000129 cycles: 750100317 heartbeat IPC: 1.17 cumulative IPC: 1.067 (Simulation time: 01 hr 45 min 51 sec)
Heartbeat CPU 0 instructions: 810000131 cycles: 758775854 heartbeat IPC: 1.153 cumulative IPC: 1.068 (Simulation time: 01 hr 47 min 21 sec)
Heartbeat CPU 0 instructions: 820000134 cycles: 767270638 heartbeat IPC: 1.177 cumulative IPC: 1.069 (Simulation time: 01 hr 48 min 48 sec)
Heartbeat CPU 0 instructions: 830000138 cycles: 775763480 heartbeat IPC: 1.177 cumulative IPC: 1.07 (Simulation time: 01 hr 50 min 17 sec)
Heartbeat CPU 0 instructions: 840000141 cycles: 784273737 heartbeat IPC: 1.175 cumulative IPC: 1.071 (Simulation time: 01 hr 51 min 40 sec)
Heartbeat CPU 0 instructions: 850000141 cycles: 792772422 heartbeat IPC: 1.177 cumulative IPC: 1.072 (Simulation time: 01 hr 53 min 06 sec)
Heartbeat CPU 0 instructions: 860000145 cycles: 801588569 heartbeat IPC: 1.134 cumulative IPC: 1.073 (Simulation time: 01 hr 54 min 19 sec)
Heartbeat CPU 0 instructions: 870000148 cycles: 809930200 heartbeat IPC: 1.199 cumulative IPC: 1.074 (Simulation time: 01 hr 55 min 33 sec)
Heartbeat CPU 0 instructions: 880000152 cycles: 818440356 heartbeat IPC: 1.175 cumulative IPC: 1.075 (Simulation time: 01 hr 57 min 00 sec)
Heartbeat CPU 0 instructions: 890000155 cycles: 826927399 heartbeat IPC: 1.178 cumulative IPC: 1.076 (Simulation time: 01 hr 58 min 30 sec)
Heartbeat CPU 0 instructions: 900000156 cycles: 835562183 heartbeat IPC: 1.158 cumulative IPC: 1.077 (Simulation time: 02 hr 00 min 00 sec)
Heartbeat CPU 0 instructions: 910000156 cycles: 844119818 heartbeat IPC: 1.169 cumulative IPC: 1.078 (Simulation time: 02 hr 01 min 11 sec)
Heartbeat CPU 0 instructions: 920000159 cycles: 852624663 heartbeat IPC: 1.176 cumulative IPC: 1.079 (Simulation time: 02 hr 02 min 28 sec)
Heartbeat CPU 0 instructions: 930000159 cycles: 861128568 heartbeat IPC: 1.176 cumulative IPC: 1.08 (Simulation time: 02 hr 03 min 53 sec)
Heartbeat CPU 0 instructions: 940000161 cycles: 869636059 heartbeat IPC: 1.175 cumulative IPC: 1.081 (Simulation time: 02 hr 05 min 18 sec)
Heartbeat CPU 0 instructions: 950000161 cycles: 878481870 heartbeat IPC: 1.13 cumulative IPC: 1.081 (Simulation time: 02 hr 06 min 47 sec)
Heartbeat CPU 0 instructions: 960000163 cycles: 886899416 heartbeat IPC: 1.188 cumulative IPC: 1.082 (Simulation time: 02 hr 08 min 06 sec)
Heartbeat CPU 0 instructions: 970000164 cycles: 895436044 heartbeat IPC: 1.171 cumulative IPC: 1.083 (Simulation time: 02 hr 09 min 34 sec)
Heartbeat CPU 0 instructions: 980000164 cycles: 903974422 heartbeat IPC: 1.171 cumulative IPC: 1.084 (Simulation time: 02 hr 11 min 03 sec)
Heartbeat CPU 0 instructions: 990000166 cycles: 912583379 heartbeat IPC: 1.162 cumulative IPC: 1.085 (Simulation time: 02 hr 12 min 27 sec)
Heartbeat CPU 0 instructions: 1000000170 cycles: 921216684 heartbeat IPC: 1.158 cumulative IPC: 1.086 (Simulation time: 02 hr 13 min 44 sec)
Heartbeat CPU 0 instructions: 1010000172 cycles: 929661511 heartbeat IPC: 1.184 cumulative IPC: 1.086 (Simulation time: 02 hr 15 min 09 sec)
Heartbeat CPU 0 instructions: 1020000176 cycles: 938152888 heartbeat IPC: 1.178 cumulative IPC: 1.087 (Simulation time: 02 hr 16 min 34 sec)
Heartbeat CPU 0 instructions: 1030000180 cycles: 946617237 heartbeat IPC: 1.181 cumulative IPC: 1.088 (Simulation time: 02 hr 17 min 59 sec)
Heartbeat CPU 0 instructions: 1040000183 cycles: 955371917 heartbeat IPC: 1.142 cumulative IPC: 1.089 (Simulation time: 02 hr 19 min 27 sec)
Heartbeat CPU 0 instructions: 1050000183 cycles: 963835762 heartbeat IPC: 1.181 cumulative IPC: 1.089 (Simulation time: 02 hr 20 min 44 sec)
Heartbeat CPU 0 instructions: 1060000186 cycles: 972349985 heartbeat IPC: 1.175 cumulative IPC: 1.09 (Simulation time: 02 hr 21 min 57 sec)
Heartbeat CPU 0 instructions: 1070000187 cycles: 980844735 heartbeat IPC: 1.177 cumulative IPC: 1.091 (Simulation time: 02 hr 23 min 16 sec)
Heartbeat CPU 0 instructions: 1080000191 cycles: 989404540 heartbeat IPC: 1.168 cumulative IPC: 1.092 (Simulation time: 02 hr 24 min 22 sec)
Heartbeat CPU 0 instructions: 1090000191 cycles: 998205442 heartbeat IPC: 1.136 cumulative IPC: 1.092 (Simulation time: 02 hr 25 min 38 sec)
Heartbeat CPU 0 instructions: 1100000192 cycles: 1006621293 heartbeat IPC: 1.188 cumulative IPC: 1.093 (Simulation time: 02 hr 26 min 42 sec)
Heartbeat CPU 0 instructions: 1110000194 cycles: 1015139466 heartbeat IPC: 1.174 cumulative IPC: 1.093 (Simulation time: 02 hr 27 min 58 sec)
Heartbeat CPU 0 instructions: 1120000198 cycles: 1023682688 heartbeat IPC: 1.171 cumulative IPC: 1.094 (Simulation time: 02 hr 29 min 24 sec)
Heartbeat CPU 0 instructions: 1130000200 cycles: 1032401808 heartbeat IPC: 1.147 cumulative IPC: 1.095 (Simulation time: 02 hr 30 min 36 sec)
Heartbeat CPU 0 instructions: 1140000200 cycles: 1040931853 heartbeat IPC: 1.172 cumulative IPC: 1.095 (Simulation time: 02 hr 31 min 43 sec)
Heartbeat CPU 0 instructions: 1150000201 cycles: 1049463722 heartbeat IPC: 1.172 cumulative IPC: 1.096 (Simulation time: 02 hr 33 min 12 sec)
Heartbeat CPU 0 instructions: 1160000202 cycles: 1057972320 heartbeat IPC: 1.175 cumulative IPC: 1.096 (Simulation time: 02 hr 34 min 42 sec)
Heartbeat CPU 0 instructions: 1170000204 cycles: 1066552044 heartbeat IPC: 1.166 cumulative IPC: 1.097 (Simulation time: 02 hr 36 min 13 sec)
[ERROR_CYCLE] Error added at CPU cycle 1069353795, next at 1075364498, pending count: 1
[DRAM_CYCLE_ERROR] Cycle-based error applied! address=0x6a75f1c80 additional_latency=1990500 cycles
[ERROR_CYCLE] Error added at CPU cycle 1075364499, next at 1382772839, pending count: 1
[DRAM_CYCLE_ERROR] Cycle-based error applied! address=0x524422840 additional_latency=1990500 cycles
Heartbeat CPU 0 instructions: 1180000204 cycles: 1075405001 heartbeat IPC: 1.13 cumulative IPC: 1.097 (Simulation time: 02 hr 37 min 45 sec)
Heartbeat CPU 0 instructions: 1190000204 cycles: 1083838676 heartbeat IPC: 1.186 cumulative IPC: 1.098 (Simulation time: 02 hr 39 min 14 sec)
Heartbeat CPU 0 instructions: 1200000206 cycles: 1092357215 heartbeat IPC: 1.174 cumulative IPC: 1.099 (Simulation time: 02 hr 40 min 44 sec)
Heartbeat CPU 0 instructions: 1210000208 cycles: 1100923638 heartbeat IPC: 1.167 cumulative IPC: 1.099 (Simulation time: 02 hr 42 min 14 sec)
Heartbeat CPU 0 instructions: 1220000212 cycles: 1109615034 heartbeat IPC: 1.151 cumulative IPC: 1.099 (Simulation time: 02 hr 43 min 46 sec)
Heartbeat CPU 0 instructions: 1230000213 cycles: 1118219920 heartbeat IPC: 1.162 cumulative IPC: 1.1 (Simulation time: 02 hr 45 min 16 sec)
Heartbeat CPU 0 instructions: 1240000214 cycles: 1126758160 heartbeat IPC: 1.171 cumulative IPC: 1.101 (Simulation time: 02 hr 46 min 34 sec)
Heartbeat CPU 0 instructions: 1250000215 cycles: 1135301563 heartbeat IPC: 1.17 cumulative IPC: 1.101 (Simulation time: 02 hr 48 min 00 sec)
Heartbeat CPU 0 instructions: 1260000219 cycles: 1143844618 heartbeat IPC: 1.171 cumulative IPC: 1.102 (Simulation time: 02 hr 49 min 16 sec)
Heartbeat CPU 0 instructions: 1270000221 cycles: 1152671076 heartbeat IPC: 1.133 cumulative IPC: 1.102 (Simulation time: 02 hr 50 min 46 sec)
Heartbeat CPU 0 instructions: 1280000223 cycles: 1161091707 heartbeat IPC: 1.188 cumulative IPC: 1.102 (Simulation time: 02 hr 52 min 12 sec)
Heartbeat CPU 0 instructions: 1290000223 cycles: 1169596639 heartbeat IPC: 1.176 cumulative IPC: 1.103 (Simulation time: 02 hr 53 min 39 sec)
Heartbeat CPU 0 instructions: 1300000223 cycles: 1178130601 heartbeat IPC: 1.172 cumulative IPC: 1.103 (Simulation time: 02 hr 54 min 45 sec)
Heartbeat CPU 0 instructions: 1310000223 cycles: 1186733417 heartbeat IPC: 1.162 cumulative IPC: 1.104 (Simulation time: 02 hr 55 min 57 sec)
Heartbeat CPU 0 instructions: 1320000227 cycles: 1195393734 heartbeat IPC: 1.155 cumulative IPC: 1.104 (Simulation time: 02 hr 57 min 27 sec)
Heartbeat CPU 0 instructions: 1330000227 cycles: 1203854290 heartbeat IPC: 1.182 cumulative IPC: 1.105 (Simulation time: 02 hr 58 min 55 sec)
Heartbeat CPU 0 instructions: 1340000230 cycles: 1212388835 heartbeat IPC: 1.172 cumulative IPC: 1.105 (Simulation time: 03 hr 00 min 25 sec)
Heartbeat CPU 0 instructions: 1350000233 cycles: 1220867703 heartbeat IPC: 1.179 cumulative IPC: 1.106 (Simulation time: 03 hr 01 min 54 sec)
Heartbeat CPU 0 instructions: 1360000236 cycles: 1229649323 heartbeat IPC: 1.139 cumulative IPC: 1.106 (Simulation time: 03 hr 03 min 16 sec)
Heartbeat CPU 0 instructions: 1370000237 cycles: 1238098665 heartbeat IPC: 1.184 cumulative IPC: 1.107 (Simulation time: 03 hr 04 min 20 sec)
Heartbeat CPU 0 instructions: 1380000237 cycles: 1246601613 heartbeat IPC: 1.176 cumulative IPC: 1.107 (Simulation time: 03 hr 05 min 40 sec)
Heartbeat CPU 0 instructions: 1390000238 cycles: 1255078518 heartbeat IPC: 1.18 cumulative IPC: 1.108 (Simulation time: 03 hr 07 min 02 sec)
Heartbeat CPU 0 instructions: 1400000238 cycles: 1263634772 heartbeat IPC: 1.169 cumulative IPC: 1.108 (Simulation time: 03 hr 08 min 32 sec)
Heartbeat CPU 0 instructions: 1410000239 cycles: 1272358174 heartbeat IPC: 1.146 cumulative IPC: 1.108 (Simulation time: 03 hr 10 min 03 sec)
Heartbeat CPU 0 instructions: 1420000239 cycles: 1280758451 heartbeat IPC: 1.19 cumulative IPC: 1.109 (Simulation time: 03 hr 11 min 32 sec)
Heartbeat CPU 0 instructions: 1430000243 cycles: 1289231193 heartbeat IPC: 1.18 cumulative IPC: 1.109 (Simulation time: 03 hr 13 min 01 sec)
Heartbeat CPU 0 instructions: 1440000247 cycles: 1297755281 heartbeat IPC: 1.173 cumulative IPC: 1.11 (Simulation time: 03 hr 14 min 31 sec)
Heartbeat CPU 0 instructions: 1450000248 cycles: 1304142640 heartbeat IPC: 1.566 cumulative IPC: 1.112 (Simulation time: 03 hr 15 min 43 sec)
Heartbeat CPU 0 instructions: 1460000251 cycles: 1310563638 heartbeat IPC: 1.557 cumulative IPC: 1.114 (Simulation time: 03 hr 16 min 56 sec)
Heartbeat CPU 0 instructions: 1470000252 cycles: 1316998494 heartbeat IPC: 1.554 cumulative IPC: 1.116 (Simulation time: 03 hr 18 min 08 sec)
Heartbeat CPU 0 instructions: 1480000256 cycles: 1323410974 heartbeat IPC: 1.559 cumulative IPC: 1.118 (Simulation time: 03 hr 19 min 21 sec)
Heartbeat CPU 0 instructions: 1490000258 cycles: 1329835238 heartbeat IPC: 1.557 cumulative IPC: 1.12 (Simulation time: 03 hr 20 min 33 sec)
Heartbeat CPU 0 instructions: 1500000258 cycles: 1336246025 heartbeat IPC: 1.56 cumulative IPC: 1.123 (Simulation time: 03 hr 21 min 45 sec)
Heartbeat CPU 0 instructions: 1510000260 cycles: 1342691367 heartbeat IPC: 1.552 cumulative IPC: 1.125 (Simulation time: 03 hr 22 min 58 sec)
Heartbeat CPU 0 instructions: 1520000261 cycles: 1349116312 heartbeat IPC: 1.556 cumulative IPC: 1.127 (Simulation time: 03 hr 24 min 10 sec)
Heartbeat CPU 0 instructions: 1530000261 cycles: 1355554643 heartbeat IPC: 1.553 cumulative IPC: 1.129 (Simulation time: 03 hr 25 min 08 sec)
Heartbeat CPU 0 instructions: 1540000261 cycles: 1361971937 heartbeat IPC: 1.558 cumulative IPC: 1.131 (Simulation time: 03 hr 26 min 16 sec)
Heartbeat CPU 0 instructions: 1550000261 cycles: 1368410403 heartbeat IPC: 1.553 cumulative IPC: 1.133 (Simulation time: 03 hr 27 min 28 sec)
Heartbeat CPU 0 instructions: 1560000262 cycles: 1374813879 heartbeat IPC: 1.562 cumulative IPC: 1.135 (Simulation time: 03 hr 28 min 40 sec)
Heartbeat CPU 0 instructions: 1570000264 cycles: 1381175394 heartbeat IPC: 1.572 cumulative IPC: 1.137 (Simulation time: 03 hr 29 min 51 sec)
[ERROR_CYCLE] Error added at CPU cycle 1382772839, next at 1418568864, pending count: 1
[DRAM_CYCLE_ERROR] Cycle-based error applied! address=0x6f39f1980 additional_latency=1990500 cycles
Heartbeat CPU 0 instructions: 1580000264 cycles: 1387170525 heartbeat IPC: 1.668 cumulative IPC: 1.139 (Simulation time: 03 hr 30 min 59 sec)
Heartbeat CPU 0 instructions: 1590000268 cycles: 1393496248 heartbeat IPC: 1.581 cumulative IPC: 1.141 (Simulation time: 03 hr 32 min 11 sec)
Heartbeat CPU 0 instructions: 1600000268 cycles: 1399897554 heartbeat IPC: 1.562 cumulative IPC: 1.143 (Simulation time: 03 hr 33 min 23 sec)
Heartbeat CPU 0 instructions: 1610000270 cycles: 1406317295 heartbeat IPC: 1.558 cumulative IPC: 1.145 (Simulation time: 03 hr 34 min 35 sec)
Heartbeat CPU 0 instructions: 1620000271 cycles: 1412730109 heartbeat IPC: 1.559 cumulative IPC: 1.147 (Simulation time: 03 hr 35 min 48 sec)
[ERROR_CYCLE] Error added at CPU cycle 1418568864, next at 1532348430, pending count: 1
[DRAM_CYCLE_ERROR] Cycle-based error applied! address=0x56475ca00 additional_latency=1990500 cycles
Heartbeat CPU 0 instructions: 1630000272 cycles: 1419160195 heartbeat IPC: 1.555 cumulative IPC: 1.149 (Simulation time: 03 hr 37 min 00 sec)
Heartbeat CPU 0 instructions: 1640000276 cycles: 1425599142 heartbeat IPC: 1.553 cumulative IPC: 1.15 (Simulation time: 03 hr 38 min 12 sec)
Heartbeat CPU 0 instructions: 1650000278 cycles: 1432009203 heartbeat IPC: 1.56 cumulative IPC: 1.152 (Simulation time: 03 hr 39 min 25 sec)
Heartbeat CPU 0 instructions: 1660000278 cycles: 1438416517 heartbeat IPC: 1.561 cumulative IPC: 1.154 (Simulation time: 03 hr 40 min 36 sec)
Heartbeat CPU 0 instructions: 1670000278 cycles: 1444837358 heartbeat IPC: 1.557 cumulative IPC: 1.156 (Simulation time: 03 hr 41 min 46 sec)
Heartbeat CPU 0 instructions: 1680000279 cycles: 1451270846 heartbeat IPC: 1.554 cumulative IPC: 1.158 (Simulation time: 03 hr 42 min 48 sec)
Heartbeat CPU 0 instructions: 1690000280 cycles: 1457678522 heartbeat IPC: 1.561 cumulative IPC: 1.159 (Simulation time: 03 hr 44 min 00 sec)
Heartbeat CPU 0 instructions: 1700000280 cycles: 1464119927 heartbeat IPC: 1.552 cumulative IPC: 1.161 (Simulation time: 03 hr 45 min 02 sec)
Heartbeat CPU 0 instructions: 1710000280 cycles: 1470541270 heartbeat IPC: 1.557 cumulative IPC: 1.163 (Simulation time: 03 hr 46 min 14 sec)
Heartbeat CPU 0 instructions: 1720000284 cycles: 1476738072 heartbeat IPC: 1.614 cumulative IPC: 1.165 (Simulation time: 03 hr 47 min 12 sec)
Heartbeat CPU 0 instructions: 1730000286 cycles: 1482766712 heartbeat IPC: 1.659 cumulative IPC: 1.167 (Simulation time: 03 hr 48 min 11 sec)
Heartbeat CPU 0 instructions: 1740000287 cycles: 1489199140 heartbeat IPC: 1.555 cumulative IPC: 1.168 (Simulation time: 03 hr 49 min 12 sec)
Heartbeat CPU 0 instructions: 1750000288 cycles: 1495598793 heartbeat IPC: 1.563 cumulative IPC: 1.17 (Simulation time: 03 hr 50 min 23 sec)
Heartbeat CPU 0 instructions: 1760000288 cycles: 1502012036 heartbeat IPC: 1.559 cumulative IPC: 1.172 (Simulation time: 03 hr 51 min 34 sec)
Heartbeat CPU 0 instructions: 1770000288 cycles: 1508429942 heartbeat IPC: 1.558 cumulative IPC: 1.173 (Simulation time: 03 hr 52 min 46 sec)
Heartbeat CPU 0 instructions: 1780000289 cycles: 1514856756 heartbeat IPC: 1.556 cumulative IPC: 1.175 (Simulation time: 03 hr 53 min 57 sec)
Heartbeat CPU 0 instructions: 1790000291 cycles: 1521263934 heartbeat IPC: 1.561 cumulative IPC: 1.177 (Simulation time: 03 hr 55 min 09 sec)
Heartbeat CPU 0 instructions: 1800000291 cycles: 1527687752 heartbeat IPC: 1.557 cumulative IPC: 1.178 (Simulation time: 03 hr 56 min 20 sec)
[ERROR_CYCLE] Error added at CPU cycle 1532348430, next at 1703137205, pending count: 1
[DRAM_CYCLE_ERROR] Cycle-based error applied! address=0x5b6a49a40 additional_latency=1990500 cycles
Heartbeat CPU 0 instructions: 1810000291 cycles: 1534133055 heartbeat IPC: 1.552 cumulative IPC: 1.18 (Simulation time: 03 hr 57 min 32 sec)
Heartbeat CPU 0 instructions: 1820000294 cycles: 1540551916 heartbeat IPC: 1.558 cumulative IPC: 1.181 (Simulation time: 03 hr 58 min 43 sec)
Heartbeat CPU 0 instructions: 1830000297 cycles: 1546980656 heartbeat IPC: 1.556 cumulative IPC: 1.183 (Simulation time: 03 hr 59 min 55 sec)
Heartbeat CPU 0 instructions: 1840000298 cycles: 1553392160 heartbeat IPC: 1.56 cumulative IPC: 1.185 (Simulation time: 04 hr 01 min 07 sec)
Heartbeat CPU 0 instructions: 1850000300 cycles: 1559817970 heartbeat IPC: 1.556 cumulative IPC: 1.186 (Simulation time: 04 hr 02 min 19 sec)
Heartbeat CPU 0 instructions: 1860000300 cycles: 1566271235 heartbeat IPC: 1.55 cumulative IPC: 1.188 (Simulation time: 04 hr 03 min 30 sec)
Heartbeat CPU 0 instructions: 1870000300 cycles: 1572304069 heartbeat IPC: 1.658 cumulative IPC: 1.189 (Simulation time: 04 hr 04 min 38 sec)
Heartbeat CPU 0 instructions: 1880000300 cycles: 1578488348 heartbeat IPC: 1.617 cumulative IPC: 1.191 (Simulation time: 04 hr 05 min 48 sec)
Heartbeat CPU 0 instructions: 1890000302 cycles: 1584890378 heartbeat IPC: 1.562 cumulative IPC: 1.193 (Simulation time: 04 hr 06 min 58 sec)
Heartbeat CPU 0 instructions: 1900000302 cycles: 1591307343 heartbeat IPC: 1.558 cumulative IPC: 1.194 (Simulation time: 04 hr 08 min 10 sec)
Heartbeat CPU 0 instructions: 1910000302 cycles: 1597721229 heartbeat IPC: 1.559 cumulative IPC: 1.195 (Simulation time: 04 hr 09 min 21 sec)
Heartbeat CPU 0 instructions: 1920000303 cycles: 1604143024 heartbeat IPC: 1.557 cumulative IPC: 1.197 (Simulation time: 04 hr 10 min 32 sec)
Heartbeat CPU 0 instructions: 1930000307 cycles: 1610556251 heartbeat IPC: 1.559 cumulative IPC: 1.198 (Simulation time: 04 hr 11 min 44 sec)
Heartbeat CPU 0 instructions: 1940000308 cycles: 1617005042 heartbeat IPC: 1.551 cumulative IPC: 1.2 (Simulation time: 04 hr 12 min 56 sec)
Heartbeat CPU 0 instructions: 1950000308 cycles: 1623418688 heartbeat IPC: 1.559 cumulative IPC: 1.201 (Simulation time: 04 hr 14 min 07 sec)
Heartbeat CPU 0 instructions: 1960000310 cycles: 1629852228 heartbeat IPC: 1.554 cumulative IPC: 1.203 (Simulation time: 04 hr 15 min 18 sec)
Heartbeat CPU 0 instructions: 1970000311 cycles: 1636268569 heartbeat IPC: 1.559 cumulative IPC: 1.204 (Simulation time: 04 hr 16 min 30 sec)
Heartbeat CPU 0 instructions: 1980000312 cycles: 1642699425 heartbeat IPC: 1.555 cumulative IPC: 1.205 (Simulation time: 04 hr 17 min 42 sec)
Heartbeat CPU 0 instructions: 1990000313 cycles: 1649117757 heartbeat IPC: 1.558 cumulative IPC: 1.207 (Simulation time: 04 hr 18 min 53 sec)

=== ERROR PAGE STATISTICS ===
Mode: CYCLE
Error Cycle Interval: 200000000 CPU cycles
Total Error Accesses: 8
==============================
Simulation finished CPU 0 instructions: 1999999509 cycles: 1655535350 cumulative IPC: 1.208 (Simulation time: 04 hr 20 min 05 sec)
Simulation complete CPU 0 instructions: 1999999509 cycles: 1655535350 cumulative IPC: 1.208 (Simulation time: 04 hr 20 min 05 sec)

ChampSim completed all CPUs

=== Simulation ===
CPU 0 runs test_traces/654.roms_s-1007B.champsimtrace.xz

Region of Interest Statistics

CPU 0 cumulative IPC: 1.208 instructions: 1999999509 cycles: 1655535350
CPU 0 Branch Prediction Accuracy: 95.85% MPKI: 3.086 Average ROB Occupancy at Mispredict: 45.56
Branch type MPKI
BRANCH_DIRECT_JUMP: 9.8e-05
BRANCH_INDIRECT: 6e-06
BRANCH_CONDITIONAL: 1.593
BRANCH_DIRECT_CALL: 3.65e-05
BRANCH_INDIRECT_CALL: 0
BRANCH_RETURN: 1.493

cpu0->cpu0_STLB TOTAL        ACCESS:   39022124 HIT:   39021244 MISS:        880 MSHR_MERGE:          0
cpu0->cpu0_STLB LOAD         ACCESS:   39022124 HIT:   39021244 MISS:        880 MSHR_MERGE:          0
cpu0->cpu0_STLB RFO          ACCESS:          0 HIT:          0 MISS:          0 MSHR_MERGE:          0
cpu0->cpu0_STLB PREFETCH     ACCESS:          0 HIT:          0 MISS:          0 MSHR_MERGE:          0
cpu0->cpu0_STLB WRITE        ACCESS:          0 HIT:          0 MISS:          0 MSHR_MERGE:          0
cpu0->cpu0_STLB TRANSLATION  ACCESS:          0 HIT:          0 MISS:          0 MSHR_MERGE:          0
cpu0->cpu0_STLB PREFETCH REQUESTED:          0 ISSUED:          0 USEFUL:          0 USELESS:          0
cpu0->cpu0_STLB AVERAGE MISS LATENCY: 8718 cycles
cpu0->cpu0_L2C TOTAL        ACCESS:   35187587 HIT:   15858629 MISS:   19328958 MSHR_MERGE:          0
cpu0->cpu0_L2C LOAD         ACCESS:   22563439 HIT:    7672130 MISS:   14891309 MSHR_MERGE:          0
cpu0->cpu0_L2C RFO          ACCESS:    5289498 HIT:     857675 MISS:    4431823 MSHR_MERGE:          0
cpu0->cpu0_L2C PREFETCH     ACCESS:          0 HIT:          0 MISS:          0 MSHR_MERGE:          0
cpu0->cpu0_L2C WRITE        ACCESS:    7334650 HIT:    7328824 MISS:       5826 MSHR_MERGE:          0
cpu0->cpu0_L2C TRANSLATION  ACCESS:          0 HIT:          0 MISS:          0 MSHR_MERGE:          0
cpu0->cpu0_L2C PREFETCH REQUESTED:          0 ISSUED:          0 USEFUL:          0 USELESS:          0
cpu0->cpu0_L2C AVERAGE MISS LATENCY: 59.38 cycles
cpu0->cpu0_L1I TOTAL        ACCESS:  419305985 HIT:  419305385 MISS:        600 MSHR_MERGE:        187
cpu0->cpu0_L1I LOAD         ACCESS:  419305985 HIT:  419305385 MISS:        600 MSHR_MERGE:        187
cpu0->cpu0_L1I RFO          ACCESS:          0 HIT:          0 MISS:          0 MSHR_MERGE:          0
cpu0->cpu0_L1I PREFETCH     ACCESS:          0 HIT:          0 MISS:          0 MSHR_MERGE:          0
cpu0->cpu0_L1I WRITE        ACCESS:          0 HIT:          0 MISS:          0 MSHR_MERGE:          0
cpu0->cpu0_L1I TRANSLATION  ACCESS:          0 HIT:          0 MISS:          0 MSHR_MERGE:          0
cpu0->cpu0_L1I PREFETCH REQUESTED:          0 ISSUED:          0 USEFUL:          0 USELESS:          0
cpu0->cpu0_L1I AVERAGE MISS LATENCY: 117.8 cycles
cpu0->cpu0_L1D TOTAL        ACCESS:  768724482 HIT:  729931286 MISS:   38793196 MSHR_MERGE:   10940135
cpu0->cpu0_L1D LOAD         ACCESS:  587645284 HIT:  557877042 MISS:   29768242 MSHR_MERGE:    7205209
cpu0->cpu0_L1D RFO          ACCESS:          0 HIT:          0 MISS:          0 MSHR_MERGE:          0
cpu0->cpu0_L1D PREFETCH     ACCESS:          0 HIT:          0 MISS:          0 MSHR_MERGE:          0
cpu0->cpu0_L1D WRITE        ACCESS:  181079198 HIT:  172054244 MISS:    9024954 MSHR_MERGE:    3734926
cpu0->cpu0_L1D TRANSLATION  ACCESS:          0 HIT:          0 MISS:          0 MSHR_MERGE:          0
cpu0->cpu0_L1D PREFETCH REQUESTED:          0 ISSUED:          0 USEFUL:          0 USELESS:          0
cpu0->cpu0_L1D AVERAGE MISS LATENCY: 49.95 cycles
cpu0->cpu0_ITLB TOTAL        ACCESS:  364610085 HIT:  364610084 MISS:          1 MSHR_MERGE:          0
cpu0->cpu0_ITLB LOAD         ACCESS:  364610085 HIT:  364610084 MISS:          1 MSHR_MERGE:          0
cpu0->cpu0_ITLB RFO          ACCESS:          0 HIT:          0 MISS:          0 MSHR_MERGE:          0
cpu0->cpu0_ITLB PREFETCH     ACCESS:          0 HIT:          0 MISS:          0 MSHR_MERGE:          0
cpu0->cpu0_ITLB WRITE        ACCESS:          0 HIT:          0 MISS:          0 MSHR_MERGE:          0
cpu0->cpu0_ITLB TRANSLATION  ACCESS:          0 HIT:          0 MISS:          0 MSHR_MERGE:          0
cpu0->cpu0_ITLB PREFETCH REQUESTED:          0 ISSUED:          0 USEFUL:          0 USELESS:          0
cpu0->cpu0_ITLB AVERAGE MISS LATENCY: 1.722e+04 cycles
cpu0->cpu0_DTLB TOTAL        ACCESS:  653330107 HIT:  614289333 MISS:   39040774 MSHR_MERGE:      18651
cpu0->cpu0_DTLB LOAD         ACCESS:  653330107 HIT:  614289333 MISS:   39040774 MSHR_MERGE:      18651
cpu0->cpu0_DTLB RFO          ACCESS:          0 HIT:          0 MISS:          0 MSHR_MERGE:          0
cpu0->cpu0_DTLB PREFETCH     ACCESS:          0 HIT:          0 MISS:          0 MSHR_MERGE:          0
cpu0->cpu0_DTLB WRITE        ACCESS:          0 HIT:          0 MISS:          0 MSHR_MERGE:          0
cpu0->cpu0_DTLB TRANSLATION  ACCESS:          0 HIT:          0 MISS:          0 MSHR_MERGE:          0
cpu0->cpu0_DTLB PREFETCH REQUESTED:          0 ISSUED:          0 USEFUL:          0 USELESS:          0
cpu0->cpu0_DTLB AVERAGE MISS LATENCY: 5.22 cycles
cpu0->LLC TOTAL        ACCESS:   25251973 HIT:   16383788 MISS:    8868185 MSHR_MERGE:          0
cpu0->LLC LOAD         ACCESS:   14891309 HIT:    7671959 MISS:    7219350 MSHR_MERGE:          0
cpu0->LLC RFO          ACCESS:    4431823 HIT:    2788312 MISS:    1643511 MSHR_MERGE:          0
cpu0->LLC PREFETCH     ACCESS:          0 HIT:          0 MISS:          0 MSHR_MERGE:          0
cpu0->LLC WRITE        ACCESS:    5928841 HIT:    5923517 MISS:       5324 MSHR_MERGE:          0
cpu0->LLC TRANSLATION  ACCESS:          0 HIT:          0 MISS:          0 MSHR_MERGE:          0
cpu0->LLC PREFETCH REQUESTED:          0 ISSUED:          0 USEFUL:          0 USELESS:          0
cpu0->LLC AVERAGE MISS LATENCY: 95.73 cycles

DRAM Statistics

Channel 0 RQ ROW_BUFFER_HIT:      80854
  ROW_BUFFER_MISS:    4350655
  AVG DBUS CONGESTED CYCLE: 11.48
Channel 0 WQ ROW_BUFFER_HIT:     181287
  ROW_BUFFER_MISS:     676547
  FULL:          0
Channel 0 REFRESHES ISSUED:     137952

Channel 1 RQ ROW_BUFFER_HIT:      80758
  ROW_BUFFER_MISS:    4352214
  AVG DBUS CONGESTED CYCLE: 11.48
Channel 1 WQ ROW_BUFFER_HIT:     181131
  ROW_BUFFER_MISS:     677503
  FULL:          0
Channel 1 REFRESHES ISSUED:     137952
