[VMEM] WARNING: physical memory size is smaller than virtual memory size.

*** ChampSim Multicore Out-of-Order Simulator ***
Warmup Instructions: 0
Simulation Instructions: 9223372036854775807
Number of CPUs: 1
Page size: 4096

Off-chip DRAM Size: 64 GiB Channels: 2 Width: 32-bit Data Rate: 4807 MT/s
[ERROR_PAGE_MANAGER] Error latency: 173500 
[ERROR_PAGE_MANAGER] Random seed: 54321 (fixed for preload reproducibility)
[ERROR_PAGE_MANAGER] Cycle-based error modeling enabled
[ERROR_PAGE_MANAGER] Errors per interval: 1
[ERROR_PAGE_MANAGER] Error cycle interval: 10000000 cycles

=== ERROR PAGE STATISTICS ===
Mode: CYCLE
Error Cycle Interval: 10000000 CPU cycles
Total Error Accesses: 0
==============================
Warmup finished CPU 0 instructions: 0 cycles: 1 cumulative IPC: 0 (Simulation time: 00 hr 00 min 01 sec)
Warmup complete CPU 0 instructions: 0 cycles: 1 cumulative IPC: 0 (Simulation time: 00 hr 00 min 01 sec)
[ERROR_CYCLE] Error added at CPU cycle 7127805, next at 9153305, pending count: 1
[DRAM_CYCLE_ERROR] Cycle-based error applied! address=0x791af0518 additional_latency=173500 cycles
[ERROR_CYCLE] Error added at CPU cycle 9153306, next at 25696063, pending count: 1
[DRAM_CYCLE_ERROR] Cycle-based error applied! address=0x31167c320 additional_latency=173500 cycles
Heartbeat CPU 0 instructions: 10000001 cycles: 16972813 heartbeat IPC: 0.5892 cumulative IPC: 0.5892 (Simulation time: 00 hr 01 min 54 sec)
[ERROR_CYCLE] Error added at CPU cycle 25696063, next at 53467688, pending count: 1
[DRAM_CYCLE_ERROR] Cycle-based error applied! address=0x2316d8908 additional_latency=173500 cycles
Heartbeat CPU 0 instructions: 20000002 cycles: 39125827 heartbeat IPC: 0.4514 cumulative IPC: 0.5112 (Simulation time: 00 hr 04 min 16 sec)
[ERROR_CYCLE] Error added at CPU cycle 53467689, next at 53768224, pending count: 1
[DRAM_CYCLE_ERROR] Cycle-based error applied! address=0xd55504788 additional_latency=173500 cycles
[ERROR_CYCLE] Error added at CPU cycle 53768224, next at 69138641, pending count: 1
[DRAM_CYCLE_ERROR] Cycle-based error applied! address=0x13588dfe8 additional_latency=173500 cycles
Heartbeat CPU 0 instructions: 30000002 cycles: 65013027 heartbeat IPC: 0.3863 cumulative IPC: 0.4614 (Simulation time: 00 hr 06 min 41 sec)
[ERROR_CYCLE] Error added at CPU cycle 69138642, next at 70928443, pending count: 1
[DRAM_CYCLE_ERROR] Cycle-based error applied! address=0x2e38f800 additional_latency=173500 cycles
[ERROR_CYCLE] Error added at CPU cycle 70928444, next at 76617422, pending count: 1
[DRAM_CYCLE_ERROR] Cycle-based error applied! address=0x99843a948 additional_latency=173500 cycles
[ERROR_CYCLE] Error added at CPU cycle 76617422, next at 85156860, pending count: 1
[DRAM_CYCLE_ERROR] Cycle-based error applied! address=0xbc1d40800 additional_latency=173500 cycles
Heartbeat CPU 0 instructions: 40000005 cycles: 82576779 heartbeat IPC: 0.5694 cumulative IPC: 0.4844 (Simulation time: 00 hr 08 min 15 sec)
[ERROR_CYCLE] Error added at CPU cycle 85156860, next at 87603375, pending count: 1
[DRAM_CYCLE_ERROR] Cycle-based error applied! address=0x40340e568 additional_latency=173500 cycles
[ERROR_CYCLE] Error added at CPU cycle 87603376, next at 105362955, pending count: 1
[DRAM_CYCLE_ERROR] Cycle-based error applied! address=0xe9ab58bc8 additional_latency=173500 cycles
[ERROR_CYCLE] Error added at CPU cycle 105362955, next at 108923137, pending count: 1
[DRAM_CYCLE_ERROR] Cycle-based error applied! address=0xac03db2c8 additional_latency=173500 cycles
[ERROR_CYCLE] Error added at CPU cycle 108923137, next at 113398998, pending count: 1
[DRAM_CYCLE_ERROR] Cycle-based error applied! address=0xd2ee09760 additional_latency=173500 cycles
[ERROR_CYCLE] Error added at CPU cycle 113398999, next at 133751835, pending count: 1
[DRAM_CYCLE_ERROR] Cycle-based error applied! address=0xa683aad48 additional_latency=173500 cycles
[ERROR_CYCLE] Error added at CPU cycle 133751835, next at 133874359, pending count: 1
[DRAM_CYCLE_ERROR] Cycle-based error applied! address=0xb7cd48070 additional_latency=173500 cycles
[ERROR_CYCLE] Error added at CPU cycle 133874359, next at 145123863, pending count: 1
[DRAM_CYCLE_ERROR] Cycle-based error applied! address=0xd73b01490 additional_latency=173500 cycles
[ERROR_CYCLE] Error added at CPU cycle 145123863, next at 151687113, pending count: 1
[DRAM_CYCLE_ERROR] Cycle-based error applied! address=0xe4ee36240 additional_latency=173500 cycles
[ERROR_CYCLE] Error added at CPU cycle 151687113, next at 189526482, pending count: 1
[DRAM_CYCLE_ERROR] Cycle-based error applied! address=0x24380df78 additional_latency=173500 cycles
Heartbeat CPU 0 instructions: 50000008 cycles: 162762946 heartbeat IPC: 0.1247 cumulative IPC: 0.3072 (Simulation time: 00 hr 15 min 37 sec)
Heartbeat CPU 0 instructions: 60000010 cycles: 188824811 heartbeat IPC: 0.3837 cumulative IPC: 0.3178 (Simulation time: 00 hr 18 min 16 sec)
[ERROR_CYCLE] Error added at CPU cycle 189526483, next at 191895927, pending count: 1
[DRAM_CYCLE_ERROR] Cycle-based error applied! address=0x2a4841ed0 additional_latency=173500 cycles
[ERROR_CYCLE] Error added at CPU cycle 191895927, next at 194297025, pending count: 1
[DRAM_CYCLE_ERROR] Cycle-based error applied! address=0x82965d008 additional_latency=173500 cycles
[ERROR_CYCLE] Error added at CPU cycle 194297026, next at 223119032, pending count: 1
[DRAM_CYCLE_ERROR] Cycle-based error applied! address=0x181c3b558 additional_latency=173500 cycles
Heartbeat CPU 0 instructions: 70000010 cycles: 222513228 heartbeat IPC: 0.2968 cumulative IPC: 0.3146 (Simulation time: 00 hr 21 min 39 sec)
[ERROR_CYCLE] Error added at CPU cycle 223119032, next at 227066706, pending count: 1
[DRAM_CYCLE_ERROR] Cycle-based error applied! address=0xac4bc0c28 additional_latency=173500 cycles
[ERROR_CYCLE] Error added at CPU cycle 227066706, next at 269846489, pending count: 1
[DRAM_CYCLE_ERROR] Cycle-based error applied! address=0x8f3bac468 additional_latency=173500 cycles
Heartbeat CPU 0 instructions: 80000012 cycles: 241263094 heartbeat IPC: 0.5333 cumulative IPC: 0.3316 (Simulation time: 00 hr 23 min 42 sec)
Heartbeat CPU 0 instructions: 90000012 cycles: 257946003 heartbeat IPC: 0.5994 cumulative IPC: 0.3489 (Simulation time: 00 hr 25 min 35 sec)
[ERROR_CYCLE] Error added at CPU cycle 269846490, next at 275597170, pending count: 1
[DRAM_CYCLE_ERROR] Cycle-based error applied! address=0x2a4841ed0 additional_latency=173500 cycles
Heartbeat CPU 0 instructions: 100000013 cycles: 273806944 heartbeat IPC: 0.6305 cumulative IPC: 0.3652 (Simulation time: 00 hr 27 min 21 sec)
[ERROR_CYCLE] Error added at CPU cycle 275597171, next at 309231635, pending count: 1
[DRAM_CYCLE_ERROR] Cycle-based error applied! address=0x305fa8860 additional_latency=173500 cycles
[ERROR_CYCLE] Error added at CPU cycle 309231636, next at 312214761, pending count: 1
[DRAM_CYCLE_ERROR] Cycle-based error applied! address=0x1c984e0c0 additional_latency=173500 cycles
Heartbeat CPU 0 instructions: 110000014 cycles: 311463742 heartbeat IPC: 0.2656 cumulative IPC: 0.3532 (Simulation time: 00 hr 30 min 56 sec)
[ERROR_CYCLE] Error added at CPU cycle 312214762, next at 326484517, pending count: 1
[DRAM_CYCLE_ERROR] Cycle-based error applied! address=0x88de11870 additional_latency=173500 cycles
[ERROR_CYCLE] Error added at CPU cycle 326484517, next at 328619258, pending count: 1
[DRAM_CYCLE_ERROR] Cycle-based error applied! address=0x349f12040 additional_latency=173500 cycles
[ERROR_CYCLE] Error added at CPU cycle 328619258, next at 331945338, pending count: 1
[DRAM_CYCLE_ERROR] Cycle-based error applied! address=0x7b40076f8 additional_latency=173500 cycles
[ERROR_CYCLE] Error added at CPU cycle 331945339, next at 346622017, pending count: 1
[DRAM_CYCLE_ERROR] Cycle-based error applied! address=0xe78214d00 additional_latency=173500 cycles
Heartbeat CPU 0 instructions: 120000014 cycles: 338751104 heartbeat IPC: 0.3665 cumulative IPC: 0.3542 (Simulation time: 00 hr 33 min 47 sec)
[ERROR_CYCLE] Error added at CPU cycle 346622017, next at 346704171, pending count: 1
[DRAM_CYCLE_ERROR] Cycle-based error applied! address=0xd30a41460 additional_latency=173500 cycles
[ERROR_CYCLE] Error added at CPU cycle 346704171, next at 351055557, pending count: 1
[DRAM_CYCLE_ERROR] Cycle-based error applied! address=0x135006560 additional_latency=173500 cycles
[ERROR_CYCLE] Error added at CPU cycle 351055557, next at 353715518, pending count: 1
[DRAM_CYCLE_ERROR] Cycle-based error applied! address=0xe8c420068 additional_latency=173500 cycles
[ERROR_CYCLE] Error added at CPU cycle 353715518, next at 358578569, pending count: 1
[DRAM_CYCLE_ERROR] Cycle-based error applied! address=0x8a1b59148 additional_latency=173500 cycles
[ERROR_CYCLE] Error added at CPU cycle 358578569, next at 359734081, pending count: 1
[DRAM_CYCLE_ERROR] Cycle-based error applied! address=0x2c743f058 additional_latency=173500 cycles
[ERROR_CYCLE] Error added at CPU cycle 359734081, next at 364965560, pending count: 1
[DRAM_CYCLE_ERROR] Cycle-based error applied! address=0xe29042990 additional_latency=173500 cycles
Heartbeat CPU 0 instructions: 130000016 cycles: 362056656 heartbeat IPC: 0.4291 cumulative IPC: 0.3591 (Simulation time: 00 hr 35 min 47 sec)
[ERROR_CYCLE] Error added at CPU cycle 364965560, next at 370163876, pending count: 1
[DRAM_CYCLE_ERROR] Cycle-based error applied! address=0x99c757c8 additional_latency=173500 cycles
[ERROR_CYCLE] Error added at CPU cycle 370163876, next at 384861686, pending count: 1
[DRAM_CYCLE_ERROR] Cycle-based error applied! address=0xa872ec148 additional_latency=173500 cycles
[ERROR_CYCLE] Error added at CPU cycle 384861686, next at 403305050, pending count: 1
[DRAM_CYCLE_ERROR] Cycle-based error applied! address=0x55aae6608 additional_latency=173500 cycles
Heartbeat CPU 0 instructions: 140000016 cycles: 394966525 heartbeat IPC: 0.3039 cumulative IPC: 0.3545 (Simulation time: 00 hr 37 min 57 sec)
[ERROR_CYCLE] Error added at CPU cycle 403305051, next at 408299099, pending count: 1
[DRAM_CYCLE_ERROR] Cycle-based error applied! address=0x822074e50 additional_latency=173500 cycles
[ERROR_CYCLE] Error added at CPU cycle 408299099, next at 414578861, pending count: 1
[DRAM_CYCLE_ERROR] Cycle-based error applied! address=0xa5b691f80 additional_latency=173500 cycles
[ERROR_CYCLE] Error added at CPU cycle 414578862, next at 415677269, pending count: 1
[DRAM_CYCLE_ERROR] Cycle-based error applied! address=0x83faba040 additional_latency=173500 cycles
[ERROR_CYCLE] Error added at CPU cycle 415677270, next at 417793974, pending count: 1
[DRAM_CYCLE_ERROR] Cycle-based error applied! address=0x1aafb8a48 additional_latency=173500 cycles
[ERROR_CYCLE] Error added at CPU cycle 417793975, next at 428962166, pending count: 1
[DRAM_CYCLE_ERROR] Cycle-based error applied! address=0x82eabbc48 additional_latency=173500 cycles
[ERROR_CYCLE] Error added at CPU cycle 428962167, next at 435398726, pending count: 1
[DRAM_CYCLE_ERROR] Cycle-based error applied! address=0x2b0e1a38 additional_latency=173500 cycles
[ERROR_CYCLE] Error added at CPU cycle 435398727, next at 451570558, pending count: 1
[DRAM_CYCLE_ERROR] Cycle-based error applied! address=0xc68eec828 additional_latency=173500 cycles
Heartbeat CPU 0 instructions: 150000016 cycles: 445066668 heartbeat IPC: 0.1996 cumulative IPC: 0.337 (Simulation time: 00 hr 41 min 38 sec)
[ERROR_CYCLE] Error added at CPU cycle 451570559, next at 454416191, pending count: 1
[DRAM_CYCLE_ERROR] Cycle-based error applied! address=0x280ec4018 additional_latency=173500 cycles
[ERROR_CYCLE] Error added at CPU cycle 454416192, next at 467943289, pending count: 1
[DRAM_CYCLE_ERROR] Cycle-based error applied! address=0x46f2734b8 additional_latency=173500 cycles
Heartbeat CPU 0 instructions: 160000017 cycles: 461428006 heartbeat IPC: 0.6112 cumulative IPC: 0.3467 (Simulation time: 00 hr 43 min 16 sec)
[ERROR_CYCLE] Error added at CPU cycle 467943289, next at 479150351, pending count: 1
[DRAM_CYCLE_ERROR] Cycle-based error applied! address=0x94b1de8b8 additional_latency=173500 cycles
Heartbeat CPU 0 instructions: 170000020 cycles: 472006677 heartbeat IPC: 0.9453 cumulative IPC: 0.3602 (Simulation time: 00 hr 44 min 16 sec)
[ERROR_CYCLE] Error added at CPU cycle 479150352, next at 489818806, pending count: 1
[DRAM_CYCLE_ERROR] Cycle-based error applied! address=0x40340e528 additional_latency=173500 cycles
[ERROR_CYCLE] Error added at CPU cycle 489818807, next at 492199391, pending count: 1
[DRAM_CYCLE_ERROR] Cycle-based error applied! address=0xa14dddd40 additional_latency=173500 cycles
[ERROR_CYCLE] Error added at CPU cycle 492199392, next at 501105066, pending count: 1
[DRAM_CYCLE_ERROR] Cycle-based error applied! address=0x88fbf4870 additional_latency=173500 cycles
[ERROR_CYCLE] Error added at CPU cycle 501105067, next at 516413942, pending count: 1
[DRAM_CYCLE_ERROR] Cycle-based error applied! address=0x5861052c0 additional_latency=173500 cycles
[ERROR_CYCLE] Error added at CPU cycle 516413943, next at 523258148, pending count: 1
[DRAM_CYCLE_ERROR] Cycle-based error applied! address=0xf3a14eeb8 additional_latency=173500 cycles
Heartbeat CPU 0 instructions: 180000022 cycles: 520153942 heartbeat IPC: 0.2077 cumulative IPC: 0.3461 (Simulation time: 00 hr 47 min 30 sec)
[ERROR_CYCLE] Error added at CPU cycle 523258148, next at 524320531, pending count: 1
[DRAM_CYCLE_ERROR] Cycle-based error applied! address=0x4f497fe30 additional_latency=173500 cycles
[ERROR_CYCLE] Error added at CPU cycle 524320531, next at 545421303, pending count: 1
[DRAM_CYCLE_ERROR] Cycle-based error applied! address=0x55e456750 additional_latency=173500 cycles
Heartbeat CPU 0 instructions: 190000022 cycles: 531468327 heartbeat IPC: 0.8838 cumulative IPC: 0.3575 (Simulation time: 00 hr 48 min 44 sec)
[ERROR_CYCLE] Error added at CPU cycle 545421304, next at 555011553, pending count: 1
[DRAM_CYCLE_ERROR] Cycle-based error applied! address=0x67cf1b800 additional_latency=173500 cycles
Heartbeat CPU 0 instructions: 200000022 cycles: 549734670 heartbeat IPC: 0.5475 cumulative IPC: 0.3638 (Simulation time: 00 hr 50 min 42 sec)
[ERROR_CYCLE] Error added at CPU cycle 555011553, next at 566707107, pending count: 1
[DRAM_CYCLE_ERROR] Cycle-based error applied! address=0xe68c47950 additional_latency=173500 cycles
[ERROR_CYCLE] Error added at CPU cycle 566707107, next at 602334490, pending count: 1
[DRAM_CYCLE_ERROR] Cycle-based error applied! address=0xd63fd42b8 additional_latency=173500 cycles
Heartbeat CPU 0 instructions: 210000023 cycles: 582040659 heartbeat IPC: 0.3095 cumulative IPC: 0.3608 (Simulation time: 00 hr 53 min 51 sec)
[ERROR_CYCLE] Error added at CPU cycle 602334490, next at 607801697, pending count: 1
[DRAM_CYCLE_ERROR] Cycle-based error applied! address=0xc3111c590 additional_latency=173500 cycles
[ERROR_CYCLE] Error added at CPU cycle 607801697, next at 608543542, pending count: 1
[DRAM_CYCLE_ERROR] Cycle-based error applied! address=0x96b81db80 additional_latency=173500 cycles
[ERROR_CYCLE] Error added at CPU cycle 608543543, next at 610655090, pending count: 1
[DRAM_CYCLE_ERROR] Cycle-based error applied! address=0x4dc746540 additional_latency=173500 cycles
[ERROR_CYCLE] Error added at CPU cycle 610655091, next at 613219349, pending count: 1
[DRAM_CYCLE_ERROR] Cycle-based error applied! address=0xcbeb53848 additional_latency=173500 cycles
[ERROR_CYCLE] Error added at CPU cycle 613219350, next at 613730924, pending count: 1
[DRAM_CYCLE_ERROR] Cycle-based error applied! address=0x2cb6eb370 additional_latency=173500 cycles
[ERROR_CYCLE] Error added at CPU cycle 613730925, next at 615686536, pending count: 1
[DRAM_CYCLE_ERROR] Cycle-based error applied! address=0xcf4db7040 additional_latency=173500 cycles
[ERROR_CYCLE] Error added at CPU cycle 615686536, next at 623830395, pending count: 1
[DRAM_CYCLE_ERROR] Cycle-based error applied! address=0x8a1b59268 additional_latency=173500 cycles
[ERROR_CYCLE] Error added at CPU cycle 623830395, next at 655504590, pending count: 1
[DRAM_CYCLE_ERROR] Cycle-based error applied! address=0xd9dca17a8 additional_latency=173500 cycles
Heartbeat CPU 0 instructions: 220000024 cycles: 625412459 heartbeat IPC: 0.2306 cumulative IPC: 0.3518 (Simulation time: 00 hr 58 min 03 sec)
Heartbeat CPU 0 instructions: 230000024 cycles: 647002749 heartbeat IPC: 0.4632 cumulative IPC: 0.3555 (Simulation time: 00 hr 59 min 55 sec)
[ERROR_CYCLE] Error added at CPU cycle 655504590, next at 685296427, pending count: 1
[DRAM_CYCLE_ERROR] Cycle-based error applied! address=0xd6b82cc68 additional_latency=173500 cycles
Heartbeat CPU 0 instructions: 240000024 cycles: 668444727 heartbeat IPC: 0.4664 cumulative IPC: 0.359 (Simulation time: 01 hr 01 min 47 sec)
Heartbeat CPU 0 instructions: 250000028 cycles: 680518559 heartbeat IPC: 0.8282 cumulative IPC: 0.3674 (Simulation time: 01 hr 03 min 10 sec)
[ERROR_CYCLE] Error added at CPU cycle 685296428, next at 692067362, pending count: 1
[DRAM_CYCLE_ERROR] Cycle-based error applied! address=0xf6e9ccc28 additional_latency=173500 cycles
[ERROR_CYCLE] Error added at CPU cycle 692067362, next at 693560863, pending count: 1
[DRAM_CYCLE_ERROR] Cycle-based error applied! address=0xdb2007ca0 additional_latency=173500 cycles
[ERROR_CYCLE] Error added at CPU cycle 693560864, next at 696567615, pending count: 1
[DRAM_CYCLE_ERROR] Cycle-based error applied! address=0x4fd8ea058 additional_latency=173500 cycles
[ERROR_CYCLE] Error added at CPU cycle 696567615, next at 705122761, pending count: 1
[DRAM_CYCLE_ERROR] Cycle-based error applied! address=0x2e3b856a8 additional_latency=173500 cycles
[ERROR_CYCLE] Error added at CPU cycle 705122762, next at 747545945, pending count: 1
[DRAM_CYCLE_ERROR] Cycle-based error applied! address=0x8f179e10 additional_latency=173500 cycles
Heartbeat CPU 0 instructions: 260000028 cycles: 745768490 heartbeat IPC: 0.1533 cumulative IPC: 0.3486 (Simulation time: 01 hr 09 min 01 sec)
[ERROR_CYCLE] Error added at CPU cycle 747545946, next at 748669179, pending count: 1
[DRAM_CYCLE_ERROR] Cycle-based error applied! address=0x646ef4bf8 additional_latency=173500 cycles
[ERROR_CYCLE] Error added at CPU cycle 748669179, next at 755019492, pending count: 1
[DRAM_CYCLE_ERROR] Cycle-based error applied! address=0x672a03c58 additional_latency=173500 cycles
[ERROR_CYCLE] Error added at CPU cycle 755019492, next at 755497083, pending count: 1
[DRAM_CYCLE_ERROR] Cycle-based error applied! address=0xf71dea810 additional_latency=173500 cycles
[ERROR_CYCLE] Error added at CPU cycle 755497084, next at 758773095, pending count: 1
[DRAM_CYCLE_ERROR] Cycle-based error applied! address=0x7725c76d0 additional_latency=173500 cycles
[ERROR_CYCLE] Error added at CPU cycle 758773095, next at 767932446, pending count: 1
[DRAM_CYCLE_ERROR] Cycle-based error applied! address=0x77bf40150 additional_latency=173500 cycles
[ERROR_CYCLE] Error added at CPU cycle 767932447, next at 768052303, pending count: 1
[DRAM_CYCLE_ERROR] Cycle-based error applied! address=0xcf61de78 additional_latency=173500 cycles
[ERROR_CYCLE] Error added at CPU cycle 768052303, next at 768100071, pending count: 1
[DRAM_CYCLE_ERROR] Cycle-based error applied! address=0x629b62ef8 additional_latency=173500 cycles
[ERROR_CYCLE] Error added at CPU cycle 768100072, next at 768264987, pending count: 1
[DRAM_CYCLE_ERROR] Cycle-based error applied! address=0x464707328 additional_latency=173500 cycles
[ERROR_CYCLE] Error added at CPU cycle 768264987, next at 773476830, pending count: 1
[DRAM_CYCLE_ERROR] Cycle-based error applied! address=0x8e9df0e28 additional_latency=173500 cycles
[ERROR_CYCLE] Error added at CPU cycle 773476830, next at 775408797, pending count: 1
[DRAM_CYCLE_ERROR] Cycle-based error applied! address=0xb9be5e240 additional_latency=173500 cycles
[ERROR_CYCLE] Error added at CPU cycle 775408797, next at 776477567, pending count: 1
[DRAM_CYCLE_ERROR] Cycle-based error applied! address=0x9e4947828 additional_latency=173500 cycles
[ERROR_CYCLE] Error added at CPU cycle 776477568, next at 782055313, pending count: 1
[DRAM_CYCLE_ERROR] Cycle-based error applied! address=0x23770e658 additional_latency=173500 cycles
[ERROR_CYCLE] Error added at CPU cycle 782055314, next at 793366198, pending count: 1
[DRAM_CYCLE_ERROR] Cycle-based error applied! address=0x6dc81e350 additional_latency=173500 cycles
[ERROR_CYCLE] Error added at CPU cycle 793366198, next at 800738627, pending count: 1
[DRAM_CYCLE_ERROR] Cycle-based error applied! address=0x695ca59f8 additional_latency=173500 cycles
[ERROR_CYCLE] Error added at CPU cycle 800738628, next at 804703481, pending count: 1
[DRAM_CYCLE_ERROR] Cycle-based error applied! address=0x55da2aaf8 additional_latency=173500 cycles
[ERROR_CYCLE] Error added at CPU cycle 804703481, next at 812634114, pending count: 1
[DRAM_CYCLE_ERROR] Cycle-based error applied! address=0x7deaa7f30 additional_latency=173500 cycles
[ERROR_CYCLE] Error added at CPU cycle 812634115, next at 825252033, pending count: 1
[DRAM_CYCLE_ERROR] Cycle-based error applied! address=0x195b4cb60 additional_latency=173500 cycles
[ERROR_CYCLE] Error added at CPU cycle 825252034, next at 830437472, pending count: 1
[DRAM_CYCLE_ERROR] Cycle-based error applied! address=0xa1944e280 additional_latency=173500 cycles
Heartbeat CPU 0 instructions: 270000028 cycles: 826592048 heartbeat IPC: 0.1237 cumulative IPC: 0.3266 (Simulation time: 01 hr 16 min 06 sec)
[ERROR_CYCLE] Error added at CPU cycle 830437472, next at 838935145, pending count: 1
[DRAM_CYCLE_ERROR] Cycle-based error applied! address=0xaaf70f40 additional_latency=173500 cycles
[ERROR_CYCLE] Error added at CPU cycle 838935145, next at 861804158, pending count: 1
[DRAM_CYCLE_ERROR] Cycle-based error applied! address=0xc9757a630 additional_latency=173500 cycles
Heartbeat CPU 0 instructions: 280000028 cycles: 852594905 heartbeat IPC: 0.3846 cumulative IPC: 0.3284 (Simulation time: 01 hr 18 min 49 sec)
[ERROR_CYCLE] Error added at CPU cycle 861804158, next at 864139244, pending count: 1
[DRAM_CYCLE_ERROR] Cycle-based error applied! address=0x2cbff0400 additional_latency=173500 cycles
[ERROR_CYCLE] Error added at CPU cycle 864139244, next at 883044804, pending count: 1
[DRAM_CYCLE_ERROR] Cycle-based error applied! address=0x8e2202bd0 additional_latency=173500 cycles
[ERROR_CYCLE] Error added at CPU cycle 883044804, next at 885467139, pending count: 1
[DRAM_CYCLE_ERROR] Cycle-based error applied! address=0x7202003a0 additional_latency=173500 cycles
Heartbeat CPU 0 instructions: 290000029 cycles: 885215781 heartbeat IPC: 0.3066 cumulative IPC: 0.3276 (Simulation time: 01 hr 22 min 04 sec)
[ERROR_CYCLE] Error added at CPU cycle 885467140, next at 887176065, pending count: 1
[DRAM_CYCLE_ERROR] Cycle-based error applied! address=0x1bb876878 additional_latency=173500 cycles
[ERROR_CYCLE] Error added at CPU cycle 887176065, next at 891433294, pending count: 1
[DRAM_CYCLE_ERROR] Cycle-based error applied! address=0x1bb876878 additional_latency=173500 cycles
[ERROR_CYCLE] Error added at CPU cycle 891433294, next at 910142062, pending count: 1
[DRAM_CYCLE_ERROR] Cycle-based error applied! address=0x988ef6108 additional_latency=173500 cycles
[ERROR_CYCLE] Error added at CPU cycle 910142062, next at 912455925, pending count: 1
[DRAM_CYCLE_ERROR] Cycle-based error applied! address=0x53b5cb6a8 additional_latency=173500 cycles
[ERROR_CYCLE] Error added at CPU cycle 912455925, next at 920452495, pending count: 1
[DRAM_CYCLE_ERROR] Cycle-based error applied! address=0x5ec4a9788 additional_latency=173500 cycles
Heartbeat CPU 0 instructions: 300000030 cycles: 919456116 heartbeat IPC: 0.2921 cumulative IPC: 0.3263 (Simulation time: 01 hr 25 min 30 sec)
[ERROR_CYCLE] Error added at CPU cycle 920452495, next at 925358975, pending count: 1
[DRAM_CYCLE_ERROR] Cycle-based error applied! address=0x834f4dd48 additional_latency=173500 cycles
[ERROR_CYCLE] Error added at CPU cycle 925358976, next at 928208581, pending count: 1
[DRAM_CYCLE_ERROR] Cycle-based error applied! address=0xd8b7d1120 additional_latency=173500 cycles
[ERROR_CYCLE] Error added at CPU cycle 928208581, next at 935551244, pending count: 1
[DRAM_CYCLE_ERROR] Cycle-based error applied! address=0x903f82e70 additional_latency=173500 cycles
[ERROR_CYCLE] Error added at CPU cycle 935551244, next at 940277711, pending count: 1
[DRAM_CYCLE_ERROR] Cycle-based error applied! address=0xa5dbfc3d0 additional_latency=173500 cycles
[ERROR_CYCLE] Error added at CPU cycle 940277711, next at 941361915, pending count: 1
[DRAM_CYCLE_ERROR] Cycle-based error applied! address=0xe7250a950 additional_latency=173500 cycles
Heartbeat CPU 0 instructions: 310000030 cycles: 940519620 heartbeat IPC: 0.4748 cumulative IPC: 0.3296 (Simulation time: 01 hr 27 min 41 sec)
[ERROR_CYCLE] Error added at CPU cycle 941361915, next at 944131710, pending count: 1
[DRAM_CYCLE_ERROR] Cycle-based error applied! address=0x64e99c730 additional_latency=173500 cycles
[ERROR_CYCLE] Error added at CPU cycle 944131710, next at 965831250, pending count: 1
[DRAM_CYCLE_ERROR] Cycle-based error applied! address=0xbe1919198 additional_latency=173500 cycles
Heartbeat CPU 0 instructions: 320000030 cycles: 962719157 heartbeat IPC: 0.4505 cumulative IPC: 0.3324 (Simulation time: 01 hr 29 min 58 sec)
[ERROR_CYCLE] Error added at CPU cycle 965831250, next at 978230112, pending count: 1
[DRAM_CYCLE_ERROR] Cycle-based error applied! address=0x19d9be790 additional_latency=173500 cycles
[ERROR_CYCLE] Error added at CPU cycle 978230113, next at 995345989, pending count: 1
[DRAM_CYCLE_ERROR] Cycle-based error applied! address=0x2fd3c1f40 additional_latency=173500 cycles
[ERROR_CYCLE] Error added at CPU cycle 995345989, next at 1001484614, pending count: 1
[DRAM_CYCLE_ERROR] Cycle-based error applied! address=0x51cf64e70 additional_latency=173500 cycles
Heartbeat CPU 0 instructions: 330000032 cycles: 1000413433 heartbeat IPC: 0.2653 cumulative IPC: 0.3299 (Simulation time: 01 hr 33 min 35 sec)
[ERROR_CYCLE] Error added at CPU cycle 1001484615, next at 1010972056, pending count: 1
[DRAM_CYCLE_ERROR] Cycle-based error applied! address=0x1647724e8 additional_latency=173500 cycles
[ERROR_CYCLE] Error added at CPU cycle 1010972057, next at 1013450836, pending count: 1
[DRAM_CYCLE_ERROR] Cycle-based error applied! address=0xa1e0fabf0 additional_latency=173500 cycles
[ERROR_CYCLE] Error added at CPU cycle 1013450836, next at 1027850374, pending count: 1
[DRAM_CYCLE_ERROR] Cycle-based error applied! address=0x39805e238 additional_latency=173500 cycles
Heartbeat CPU 0 instructions: 340000032 cycles: 1015626900 heartbeat IPC: 0.6573 cumulative IPC: 0.3348 (Simulation time: 01 hr 35 min 16 sec)
Heartbeat CPU 0 instructions: 350000032 cycles: 1026220125 heartbeat IPC: 0.944 cumulative IPC: 0.3411 (Simulation time: 01 hr 36 min 31 sec)
[ERROR_CYCLE] Error added at CPU cycle 1027850375, next at 1040360188, pending count: 1
[DRAM_CYCLE_ERROR] Cycle-based error applied! address=0x3b9dd7c8 additional_latency=173500 cycles
[ERROR_CYCLE] Error added at CPU cycle 1040360189, next at 1048241966, pending count: 1
[DRAM_CYCLE_ERROR] Cycle-based error applied! address=0x92ad4b1d8 additional_latency=173500 cycles
[ERROR_CYCLE] Error added at CPU cycle 1048241966, next at 1057607729, pending count: 1
[DRAM_CYCLE_ERROR] Cycle-based error applied! address=0xcdce9d310 additional_latency=173500 cycles
[ERROR_CYCLE] Error added at CPU cycle 1057607729, next at 1078039556, pending count: 1
[DRAM_CYCLE_ERROR] Cycle-based error applied! address=0xd99ee33f0 additional_latency=173500 cycles
Heartbeat CPU 0 instructions: 360000032 cycles: 1059545057 heartbeat IPC: 0.3001 cumulative IPC: 0.3398 (Simulation time: 01 hr 39 min 43 sec)
[ERROR_CYCLE] Error added at CPU cycle 1078039557, next at 1093227895, pending count: 1
[DRAM_CYCLE_ERROR] Cycle-based error applied! address=0x4aea89908 additional_latency=173500 cycles
Heartbeat CPU 0 instructions: 370000034 cycles: 1081015848 heartbeat IPC: 0.4657 cumulative IPC: 0.3423 (Simulation time: 01 hr 41 min 55 sec)
[ERROR_CYCLE] Error added at CPU cycle 1093227895, next at 1095375545, pending count: 1
[DRAM_CYCLE_ERROR] Cycle-based error applied! address=0x99c757d0 additional_latency=173500 cycles
[ERROR_CYCLE] Error added at CPU cycle 1095375545, next at 1101804530, pending count: 1
[DRAM_CYCLE_ERROR] Cycle-based error applied! address=0x8e8bc13e0 additional_latency=173500 cycles
Heartbeat CPU 0 instructions: 380000034 cycles: 1098064119 heartbeat IPC: 0.5866 cumulative IPC: 0.3461 (Simulation time: 01 hr 43 min 45 sec)
[ERROR_CYCLE] Error added at CPU cycle 1101804530, next at 1107079687, pending count: 1
[DRAM_CYCLE_ERROR] Cycle-based error applied! address=0x1083c97c0 additional_latency=173500 cycles
[ERROR_CYCLE] Error added at CPU cycle 1107079687, next at 1115318803, pending count: 1
[DRAM_CYCLE_ERROR] Cycle-based error applied! address=0xc7995b920 additional_latency=173500 cycles
[ERROR_CYCLE] Error added at CPU cycle 1115318803, next at 1135008200, pending count: 1
[DRAM_CYCLE_ERROR] Cycle-based error applied! address=0x4a6a34730 additional_latency=173500 cycles
[ERROR_CYCLE] Error added at CPU cycle 1135008201, next at 1140982700, pending count: 1
[DRAM_CYCLE_ERROR] Cycle-based error applied! address=0xa172ad330 additional_latency=173500 cycles
Heartbeat CPU 0 instructions: 390000037 cycles: 1138851537 heartbeat IPC: 0.2452 cumulative IPC: 0.3425 (Simulation time: 01 hr 47 min 36 sec)
[ERROR_CYCLE] Error added at CPU cycle 1140982700, next at 1154083331, pending count: 1
[DRAM_CYCLE_ERROR] Cycle-based error applied! address=0x243018c08 additional_latency=173500 cycles
[ERROR_CYCLE] Error added at CPU cycle 1154083332, next at 1155066855, pending count: 1
[DRAM_CYCLE_ERROR] Cycle-based error applied! address=0xa11d4ffe0 additional_latency=173500 cycles
[ERROR_CYCLE] Error added at CPU cycle 1155066856, next at 1164180982, pending count: 1
[DRAM_CYCLE_ERROR] Cycle-based error applied! address=0x83634bec0 additional_latency=173500 cycles
[ERROR_CYCLE] Error added at CPU cycle 1164180982, next at 1170052729, pending count: 1
[DRAM_CYCLE_ERROR] Cycle-based error applied! address=0x9f234ed98 additional_latency=173500 cycles
[ERROR_CYCLE] Error added at CPU cycle 1170052730, next at 1201159550, pending count: 1
[DRAM_CYCLE_ERROR] Cycle-based error applied! address=0xa27322420 additional_latency=173500 cycles
Heartbeat CPU 0 instructions: 400000039 cycles: 1183901256 heartbeat IPC: 0.222 cumulative IPC: 0.3379 (Simulation time: 01 hr 51 min 56 sec)
Heartbeat CPU 0 instructions: 410000039 cycles: 1201152640 heartbeat IPC: 0.5797 cumulative IPC: 0.3413 (Simulation time: 01 hr 53 min 48 sec)
[ERROR_CYCLE] Error added at CPU cycle 1201159551, next at 1219803754, pending count: 1
[DRAM_CYCLE_ERROR] Cycle-based error applied! address=0x33c7503f0 additional_latency=173500 cycles
Heartbeat CPU 0 instructions: 420000040 cycles: 1212213446 heartbeat IPC: 0.9041 cumulative IPC: 0.3465 (Simulation time: 01 hr 55 min 04 sec)
[ERROR_CYCLE] Error added at CPU cycle 1219803754, next at 1222032553, pending count: 1
[DRAM_CYCLE_ERROR] Cycle-based error applied! address=0x4a2f4a620 additional_latency=173500 cycles
[ERROR_CYCLE] Error added at CPU cycle 1222032554, next at 1224789878, pending count: 1
[DRAM_CYCLE_ERROR] Cycle-based error applied! address=0x70bee4bd8 additional_latency=173500 cycles
[ERROR_CYCLE] Error added at CPU cycle 1224789879, next at 1231478862, pending count: 1
[DRAM_CYCLE_ERROR] Cycle-based error applied! address=0xfc1ee3900 additional_latency=173500 cycles
Heartbeat CPU 0 instructions: 430000041 cycles: 1231383277 heartbeat IPC: 0.5217 cumulative IPC: 0.3492 (Simulation time: 01 hr 57 min 08 sec)
[ERROR_CYCLE] Error added at CPU cycle 1231478862, next at 1231912145, pending count: 1
[DRAM_CYCLE_ERROR] Cycle-based error applied! address=0xf59f99f50 additional_latency=173500 cycles
[ERROR_CYCLE] Error added at CPU cycle 1231912145, next at 1236268432, pending count: 1
[DRAM_CYCLE_ERROR] Cycle-based error applied! address=0xe50fa1f00 additional_latency=173500 cycles
[ERROR_CYCLE] Error added at CPU cycle 1236268432, next at 1250618753, pending count: 1
[DRAM_CYCLE_ERROR] Cycle-based error applied! address=0x494cf6f60 additional_latency=173500 cycles
[ERROR_CYCLE] Error added at CPU cycle 1250618753, next at 1293864347, pending count: 1
[DRAM_CYCLE_ERROR] Cycle-based error applied! address=0x782ecb1a8 additional_latency=173500 cycles
Heartbeat CPU 0 instructions: 440000041 cycles: 1280412857 heartbeat IPC: 0.204 cumulative IPC: 0.3436 (Simulation time: 02 hr 01 min 27 sec)
Heartbeat CPU 0 instructions: 450000041 cycles: 1290891869 heartbeat IPC: 0.9543 cumulative IPC: 0.3486 (Simulation time: 02 hr 02 min 44 sec)
[ERROR_CYCLE] Error added at CPU cycle 1293864347, next at 1304881196, pending count: 1
[DRAM_CYCLE_ERROR] Cycle-based error applied! address=0x99c757d0 additional_latency=173500 cycles
[ERROR_CYCLE] Error added at CPU cycle 1304881197, next at 1314838771, pending count: 1
[DRAM_CYCLE_ERROR] Cycle-based error applied! address=0x4c56533d8 additional_latency=173500 cycles
Heartbeat CPU 0 instructions: 460000041 cycles: 1310076965 heartbeat IPC: 0.5212 cumulative IPC: 0.3511 (Simulation time: 02 hr 04 min 46 sec)
[ERROR_CYCLE] Error added at CPU cycle 1314838771, next at 1321326019, pending count: 1
[DRAM_CYCLE_ERROR] Cycle-based error applied! address=0x3f02d3aa0 additional_latency=173500 cycles
[ERROR_CYCLE] Error added at CPU cycle 1321326020, next at 1334779567, pending count: 1
[DRAM_CYCLE_ERROR] Cycle-based error applied! address=0x79a8bf1f0 additional_latency=173500 cycles
Heartbeat CPU 0 instructions: 470000041 cycles: 1322106107 heartbeat IPC: 0.8313 cumulative IPC: 0.3555 (Simulation time: 02 hr 06 min 01 sec)
[ERROR_CYCLE] Error added at CPU cycle 1334779568, next at 1341662842, pending count: 1
[DRAM_CYCLE_ERROR] Cycle-based error applied! address=0x93e2c8100 additional_latency=173500 cycles
Heartbeat CPU 0 instructions: 480000042 cycles: 1336874144 heartbeat IPC: 0.6771 cumulative IPC: 0.359 (Simulation time: 02 hr 07 min 40 sec)
[ERROR_CYCLE] Error added at CPU cycle 1341662842, next at 1341958013, pending count: 1
[DRAM_CYCLE_ERROR] Cycle-based error applied! address=0x5b1091820 additional_latency=173500 cycles
[ERROR_CYCLE] Error added at CPU cycle 1341958014, next at 1347444921, pending count: 1
[DRAM_CYCLE_ERROR] Cycle-based error applied! address=0x3ed6955c8 additional_latency=173500 cycles
[ERROR_CYCLE] Error added at CPU cycle 1347444921, next at 1348889686, pending count: 1
[DRAM_CYCLE_ERROR] Cycle-based error applied! address=0x924bf0d60 additional_latency=173500 cycles
[ERROR_CYCLE] Error added at CPU cycle 1348889686, next at 1370368934, pending count: 1
[DRAM_CYCLE_ERROR] Cycle-based error applied! address=0xe2e2afe60 additional_latency=173500 cycles
[ERROR_CYCLE] Error added at CPU cycle 1370368934, next at 1377657432, pending count: 1
[DRAM_CYCLE_ERROR] Cycle-based error applied! address=0x7724b57c8 additional_latency=173500 cycles
[ERROR_CYCLE] Error added at CPU cycle 1377657432, next at 1418042020, pending count: 1
[DRAM_CYCLE_ERROR] Cycle-based error applied! address=0xb8cf23e00 additional_latency=173500 cycles
Heartbeat CPU 0 instructions: 490000043 cycles: 1383207565 heartbeat IPC: 0.2158 cumulative IPC: 0.3542 (Simulation time: 02 hr 12 min 03 sec)
Heartbeat CPU 0 instructions: 500000046 cycles: 1402572229 heartbeat IPC: 0.5164 cumulative IPC: 0.3565 (Simulation time: 02 hr 14 min 04 sec)
[ERROR_CYCLE] Error added at CPU cycle 1418042020, next at 1428774744, pending count: 1
[DRAM_CYCLE_ERROR] Cycle-based error applied! address=0x2e7a3dee0 additional_latency=173500 cycles
Heartbeat CPU 0 instructions: 510000047 cycles: 1422288674 heartbeat IPC: 0.5072 cumulative IPC: 0.3586 (Simulation time: 02 hr 16 min 13 sec)
[ERROR_CYCLE] Error added at CPU cycle 1428774745, next at 1430659638, pending count: 1
[DRAM_CYCLE_ERROR] Cycle-based error applied! address=0xf949bbd80 additional_latency=173500 cycles
[ERROR_CYCLE] Error added at CPU cycle 1430659639, next at 1434805602, pending count: 1
[DRAM_CYCLE_ERROR] Cycle-based error applied! address=0x9b89fe128 additional_latency=173500 cycles
[ERROR_CYCLE] Error added at CPU cycle 1434805602, next at 1439910027, pending count: 1
[DRAM_CYCLE_ERROR] Cycle-based error applied! address=0x99c757d0 additional_latency=173500 cycles
Heartbeat CPU 0 instructions: 520000048 cycles: 1435400410 heartbeat IPC: 0.7627 cumulative IPC: 0.3623 (Simulation time: 02 hr 17 min 45 sec)
[ERROR_CYCLE] Error added at CPU cycle 1439910028, next at 1455265502, pending count: 1
[DRAM_CYCLE_ERROR] Cycle-based error applied! address=0x4ec6d2f18 additional_latency=173500 cycles
Heartbeat CPU 0 instructions: 530000052 cycles: 1452450160 heartbeat IPC: 0.5865 cumulative IPC: 0.3649 (Simulation time: 02 hr 19 min 37 sec)
[ERROR_CYCLE] Error added at CPU cycle 1455265502, next at 1456081149, pending count: 1
[DRAM_CYCLE_ERROR] Cycle-based error applied! address=0x1593577a8 additional_latency=173500 cycles
[ERROR_CYCLE] Error added at CPU cycle 1456081149, next at 1459633187, pending count: 1
[DRAM_CYCLE_ERROR] Cycle-based error applied! address=0x764409b18 additional_latency=173500 cycles
[ERROR_CYCLE] Error added at CPU cycle 1459633187, next at 1470585164, pending count: 1
[DRAM_CYCLE_ERROR] Cycle-based error applied! address=0x74610c180 additional_latency=173500 cycles
[ERROR_CYCLE] Error added at CPU cycle 1470585164, next at 1472949657, pending count: 1
[DRAM_CYCLE_ERROR] Cycle-based error applied! address=0xec2fac500 additional_latency=173500 cycles
[ERROR_CYCLE] Error added at CPU cycle 1472949657, next at 1483173147, pending count: 1
[DRAM_CYCLE_ERROR] Cycle-based error applied! address=0xa465de450 additional_latency=173500 cycles
[ERROR_CYCLE] Error added at CPU cycle 1483173148, next at 1484511175, pending count: 1
[DRAM_CYCLE_ERROR] Cycle-based error applied! address=0xd938f1490 additional_latency=173500 cycles
[ERROR_CYCLE] Error added at CPU cycle 1484511175, next at 1492326095, pending count: 1
[DRAM_CYCLE_ERROR] Cycle-based error applied! address=0x7338650e0 additional_latency=173500 cycles
[ERROR_CYCLE] Error added at CPU cycle 1492326095, next at 1498403147, pending count: 1
[DRAM_CYCLE_ERROR] Cycle-based error applied! address=0x624e4afb8 additional_latency=173500 cycles
Heartbeat CPU 0 instructions: 540000053 cycles: 1495312930 heartbeat IPC: 0.2333 cumulative IPC: 0.3611 (Simulation time: 02 hr 23 min 30 sec)
[ERROR_CYCLE] Error added at CPU cycle 1498403147, next at 1500174205, pending count: 1
[DRAM_CYCLE_ERROR] Cycle-based error applied! address=0x4cab06528 additional_latency=173500 cycles
[ERROR_CYCLE] Error added at CPU cycle 1500174206, next at 1504681962, pending count: 1
[DRAM_CYCLE_ERROR] Cycle-based error applied! address=0x33880b718 additional_latency=173500 cycles
[ERROR_CYCLE] Error added at CPU cycle 1504681962, next at 1508176422, pending count: 1
[DRAM_CYCLE_ERROR] Cycle-based error applied! address=0x55129f700 additional_latency=173500 cycles
[ERROR_CYCLE] Error added at CPU cycle 1508176422, next at 1510980618, pending count: 1
[DRAM_CYCLE_ERROR] Cycle-based error applied! address=0xbeee3c030 additional_latency=173500 cycles
[ERROR_CYCLE] Error added at CPU cycle 1510980618, next at 1540506590, pending count: 1
[DRAM_CYCLE_ERROR] Cycle-based error applied! address=0xd1518df98 additional_latency=173500 cycles
[ERROR_CYCLE] Error added at CPU cycle 1540506591, next at 1545633908, pending count: 1
[DRAM_CYCLE_ERROR] Cycle-based error applied! address=0xb5b2637f0 additional_latency=173500 cycles
[ERROR_CYCLE] Error added at CPU cycle 1545633909, next at 1555382131, pending count: 1
[DRAM_CYCLE_ERROR] Cycle-based error applied! address=0x94ac924a0 additional_latency=173500 cycles
Heartbeat CPU 0 instructions: 550000054 cycles: 1549735336 heartbeat IPC: 0.1837 cumulative IPC: 0.3549 (Simulation time: 02 hr 28 min 31 sec)
[ERROR_CYCLE] Error added at CPU cycle 1555382132, next at 1559379921, pending count: 1
[DRAM_CYCLE_ERROR] Cycle-based error applied! address=0x32b63d588 additional_latency=173500 cycles
[ERROR_CYCLE] Error added at CPU cycle 1559379922, next at 1568250473, pending count: 1
[DRAM_CYCLE_ERROR] Cycle-based error applied! address=0xc600c6da8 additional_latency=173500 cycles
[ERROR_CYCLE] Error added at CPU cycle 1568250473, next at 1568397086, pending count: 1
[DRAM_CYCLE_ERROR] Cycle-based error applied! address=0x9afd28e60 additional_latency=173500 cycles
[ERROR_CYCLE] Error added at CPU cycle 1568397086, next at 1571204618, pending count: 1
[DRAM_CYCLE_ERROR] Cycle-based error applied! address=0xf5f962400 additional_latency=173500 cycles
[ERROR_CYCLE] Error added at CPU cycle 1571204618, next at 1572401785, pending count: 1
[DRAM_CYCLE_ERROR] Cycle-based error applied! address=0xa1ed47ac0 additional_latency=173500 cycles
[ERROR_CYCLE] Error added at CPU cycle 1572401785, next at 1585569552, pending count: 1
[DRAM_CYCLE_ERROR] Cycle-based error applied! address=0xe83f366d0 additional_latency=173500 cycles
[ERROR_CYCLE] Error added at CPU cycle 1585569553, next at 1586429627, pending count: 1
[DRAM_CYCLE_ERROR] Cycle-based error applied! address=0x59d0aca38 additional_latency=173500 cycles
[ERROR_CYCLE] Error added at CPU cycle 1586429628, next at 1598198580, pending count: 1
[DRAM_CYCLE_ERROR] Cycle-based error applied! address=0xd1ddf9a38 additional_latency=173500 cycles
[ERROR_CYCLE] Error added at CPU cycle 1598198580, next at 1609933064, pending count: 1
[DRAM_CYCLE_ERROR] Cycle-based error applied! address=0x59c320978 additional_latency=173500 cycles
Heartbeat CPU 0 instructions: 560000054 cycles: 1602877948 heartbeat IPC: 0.1882 cumulative IPC: 0.3494 (Simulation time: 02 hr 33 min 16 sec)
[ERROR_CYCLE] Error added at CPU cycle 1609933064, next at 1625877684, pending count: 1
[DRAM_CYCLE_ERROR] Cycle-based error applied! address=0xc81dec530 additional_latency=173500 cycles
[ERROR_CYCLE] Error added at CPU cycle 1625877685, next at 1636789861, pending count: 1
[DRAM_CYCLE_ERROR] Cycle-based error applied! address=0xcacc40c48 additional_latency=173500 cycles
[ERROR_CYCLE] Error added at CPU cycle 1636789862, next at 1644796500, pending count: 1
[DRAM_CYCLE_ERROR] Cycle-based error applied! address=0x4d84568c0 additional_latency=173500 cycles
[ERROR_CYCLE] Error added at CPU cycle 1644796501, next at 1651860450, pending count: 1
[DRAM_CYCLE_ERROR] Cycle-based error applied! address=0xcda5405a0 additional_latency=173500 cycles
[ERROR_CYCLE] Error added at CPU cycle 1651860451, next at 1653809977, pending count: 1
[DRAM_CYCLE_ERROR] Cycle-based error applied! address=0x7c8fd68 additional_latency=173500 cycles
[ERROR_CYCLE] Error added at CPU cycle 1653809978, next at 1657379418, pending count: 1
[DRAM_CYCLE_ERROR] Cycle-based error applied! address=0x7e7b89040 additional_latency=173500 cycles
Heartbeat CPU 0 instructions: 570000057 cycles: 1654717052 heartbeat IPC: 0.1929 cumulative IPC: 0.3445 (Simulation time: 02 hr 37 min 27 sec)
[ERROR_CYCLE] Error added at CPU cycle 1657379418, next at 1658264083, pending count: 1
[DRAM_CYCLE_ERROR] Cycle-based error applied! address=0x7a25189f8 additional_latency=173500 cycles
[ERROR_CYCLE] Error added at CPU cycle 1658264083, next at 1665882359, pending count: 1
[DRAM_CYCLE_ERROR] Cycle-based error applied! address=0x834b492b0 additional_latency=173500 cycles
[ERROR_CYCLE] Error added at CPU cycle 1665882360, next at 1676059798, pending count: 1
[DRAM_CYCLE_ERROR] Cycle-based error applied! address=0x7e1f88220 additional_latency=173500 cycles
[ERROR_CYCLE] Error added at CPU cycle 1676059798, next at 1681837268, pending count: 1
[DRAM_CYCLE_ERROR] Cycle-based error applied! address=0xf5303ad8 additional_latency=173500 cycles
[ERROR_CYCLE] Error added at CPU cycle 1681837269, next at 1682449489, pending count: 1
[DRAM_CYCLE_ERROR] Cycle-based error applied! address=0x1390b38e0 additional_latency=173500 cycles
[ERROR_CYCLE] Error added at CPU cycle 1682449490, next at 1684531699, pending count: 1
[DRAM_CYCLE_ERROR] Cycle-based error applied! address=0xb321a0680 additional_latency=173500 cycles
[ERROR_CYCLE] Error added at CPU cycle 1684531699, next at 1689632708, pending count: 1
[DRAM_CYCLE_ERROR] Cycle-based error applied! address=0x2b44aab40 additional_latency=173500 cycles
[ERROR_CYCLE] Error added at CPU cycle 1689632708, next at 1698666429, pending count: 1
[DRAM_CYCLE_ERROR] Cycle-based error applied! address=0x714dfbb60 additional_latency=173500 cycles
[ERROR_CYCLE] Error added at CPU cycle 1698666429, next at 1712907950, pending count: 1
[DRAM_CYCLE_ERROR] Cycle-based error applied! address=0xe42a59668 additional_latency=173500 cycles
Heartbeat CPU 0 instructions: 580000060 cycles: 1705659146 heartbeat IPC: 0.1963 cumulative IPC: 0.34 (Simulation time: 02 hr 41 min 45 sec)
[ERROR_CYCLE] Error added at CPU cycle 1712907950, next at 1723767518, pending count: 1
[DRAM_CYCLE_ERROR] Cycle-based error applied! address=0x34b5eca00 additional_latency=173500 cycles
[ERROR_CYCLE] Error added at CPU cycle 1723767518, next at 1724455640, pending count: 1
[DRAM_CYCLE_ERROR] Cycle-based error applied! address=0x8bc968000 additional_latency=173500 cycles
[ERROR_CYCLE] Error added at CPU cycle 1724455640, next at 1732720291, pending count: 1
[DRAM_CYCLE_ERROR] Cycle-based error applied! address=0x9af07e150 additional_latency=173500 cycles
[ERROR_CYCLE] Error added at CPU cycle 1732720291, next at 1732872069, pending count: 1
[DRAM_CYCLE_ERROR] Cycle-based error applied! address=0x1bb4511d0 additional_latency=173500 cycles
[ERROR_CYCLE] Error added at CPU cycle 1732872069, next at 1761065331, pending count: 1
[DRAM_CYCLE_ERROR] Cycle-based error applied! address=0xf01770b18 additional_latency=173500 cycles
Heartbeat CPU 0 instructions: 590000060 cycles: 1757470433 heartbeat IPC: 0.193 cumulative IPC: 0.3357 (Simulation time: 02 hr 45 min 32 sec)
[ERROR_CYCLE] Error added at CPU cycle 1761065331, next at 1793147943, pending count: 1
[DRAM_CYCLE_ERROR] Cycle-based error applied! address=0xf2ffb8d70 additional_latency=173500 cycles
[ERROR_CYCLE] Error added at CPU cycle 1793147943, next at 1793813373, pending count: 1
[DRAM_CYCLE_ERROR] Cycle-based error applied! address=0xeb41da660 additional_latency=173500 cycles
[ERROR_CYCLE] Error added at CPU cycle 1793813374, next at 1797803186, pending count: 1
[DRAM_CYCLE_ERROR] Cycle-based error applied! address=0xa12df6480 additional_latency=173500 cycles
[ERROR_CYCLE] Error added at CPU cycle 1797803186, next at 1799966554, pending count: 1
[DRAM_CYCLE_ERROR] Cycle-based error applied! address=0xa1f6a4898 additional_latency=173500 cycles
[ERROR_CYCLE] Error added at CPU cycle 1799966554, next at 1816349209, pending count: 1
[DRAM_CYCLE_ERROR] Cycle-based error applied! address=0xc69d7ef70 additional_latency=173500 cycles
Heartbeat CPU 0 instructions: 600000061 cycles: 1808285667 heartbeat IPC: 0.1968 cumulative IPC: 0.3318 (Simulation time: 02 hr 49 min 36 sec)
[ERROR_CYCLE] Error added at CPU cycle 1816349210, next at 1825528779, pending count: 1
[DRAM_CYCLE_ERROR] Cycle-based error applied! address=0x6797625b0 additional_latency=173500 cycles
[ERROR_CYCLE] Error added at CPU cycle 1825528779, next at 1834768449, pending count: 1
[DRAM_CYCLE_ERROR] Cycle-based error applied! address=0x987988e0 additional_latency=173500 cycles
[ERROR_CYCLE] Error added at CPU cycle 1834768449, next at 1844525260, pending count: 1
[DRAM_CYCLE_ERROR] Cycle-based error applied! address=0x8b822f880 additional_latency=173500 cycles
[ERROR_CYCLE] Error added at CPU cycle 1844525260, next at 1850641546, pending count: 1
[DRAM_CYCLE_ERROR] Cycle-based error applied! address=0x929b363f8 additional_latency=173500 cycles
[ERROR_CYCLE] Error added at CPU cycle 1850641546, next at 1889060908, pending count: 1
[DRAM_CYCLE_ERROR] Cycle-based error applied! address=0xefb25e40 additional_latency=173500 cycles
Heartbeat CPU 0 instructions: 610000062 cycles: 1859075845 heartbeat IPC: 0.1969 cumulative IPC: 0.3281 (Simulation time: 02 hr 54 min 18 sec)
[ERROR_CYCLE] Error added at CPU cycle 1889060908, next at 1893058439, pending count: 1
[DRAM_CYCLE_ERROR] Cycle-based error applied! address=0xe4d5f2308 additional_latency=173500 cycles
[ERROR_CYCLE] Error added at CPU cycle 1893058439, next at 1893848597, pending count: 1
[DRAM_CYCLE_ERROR] Cycle-based error applied! address=0x3ac405538 additional_latency=173500 cycles
[ERROR_CYCLE] Error added at CPU cycle 1893848597, next at 1896618500, pending count: 1
[DRAM_CYCLE_ERROR] Cycle-based error applied! address=0x1163207a0 additional_latency=173500 cycles
[ERROR_CYCLE] Error added at CPU cycle 1896618500, next at 1899563940, pending count: 1
[DRAM_CYCLE_ERROR] Cycle-based error applied! address=0x2e76c0f8 additional_latency=173500 cycles
[ERROR_CYCLE] Error added at CPU cycle 1899563940, next at 1916523007, pending count: 1
[DRAM_CYCLE_ERROR] Cycle-based error applied! address=0x9cff7a9f0 additional_latency=173500 cycles
Heartbeat CPU 0 instructions: 620000063 cycles: 1907388235 heartbeat IPC: 0.207 cumulative IPC: 0.3251 (Simulation time: 02 hr 58 min 57 sec)
[ERROR_CYCLE] Error added at CPU cycle 1916523007, next at 1919993062, pending count: 1
[DRAM_CYCLE_ERROR] Cycle-based error applied! address=0x188635c80 additional_latency=173500 cycles
[ERROR_CYCLE] Error added at CPU cycle 1919993063, next at 1953397181, pending count: 1
[DRAM_CYCLE_ERROR] Cycle-based error applied! address=0x579b41808 additional_latency=173500 cycles
[ERROR_CYCLE] Error added at CPU cycle 1953397182, next at 1957960083, pending count: 1
[DRAM_CYCLE_ERROR] Cycle-based error applied! address=0x6a1b7a4e0 additional_latency=173500 cycles
Heartbeat CPU 0 instructions: 630000065 cycles: 1955024350 heartbeat IPC: 0.2099 cumulative IPC: 0.3222 (Simulation time: 03 hr 03 min 01 sec)
[ERROR_CYCLE] Error added at CPU cycle 1957960083, next at 1964413148, pending count: 1
[DRAM_CYCLE_ERROR] Cycle-based error applied! address=0x1c7afc0c0 additional_latency=173500 cycles
[ERROR_CYCLE] Error added at CPU cycle 1964413148, next at 1975694798, pending count: 1
[DRAM_CYCLE_ERROR] Cycle-based error applied! address=0x4c89e7388 additional_latency=173500 cycles
[ERROR_CYCLE] Error added at CPU cycle 1975694799, next at 1978590678, pending count: 1
[DRAM_CYCLE_ERROR] Cycle-based error applied! address=0xbeb678a8 additional_latency=173500 cycles
[ERROR_CYCLE] Error added at CPU cycle 1978590678, next at 1999903695, pending count: 1
[DRAM_CYCLE_ERROR] Cycle-based error applied! address=0x5eae2b88 additional_latency=173500 cycles
[ERROR_CYCLE] Error added at CPU cycle 1999903696, next at 2039968677, pending count: 1
[DRAM_CYCLE_ERROR] Cycle-based error applied! address=0x9c6197cb0 additional_latency=173500 cycles
Heartbeat CPU 0 instructions: 640000065 cycles: 2001166865 heartbeat IPC: 0.2167 cumulative IPC: 0.3198 (Simulation time: 03 hr 06 min 18 sec)
[ERROR_CYCLE] Error added at CPU cycle 2039968677, next at 2041475847, pending count: 1
[DRAM_CYCLE_ERROR] Cycle-based error applied! address=0x36bf2d340 additional_latency=173500 cycles
[ERROR_CYCLE] Error added at CPU cycle 2041475847, next at 2047560792, pending count: 1
[DRAM_CYCLE_ERROR] Cycle-based error applied! address=0x869f3f18 additional_latency=173500 cycles
[ERROR_CYCLE] Error added at CPU cycle 2047560792, next at 2057318185, pending count: 1
[DRAM_CYCLE_ERROR] Cycle-based error applied! address=0xc98693228 additional_latency=173500 cycles
Heartbeat CPU 0 instructions: 650000065 cycles: 2055852643 heartbeat IPC: 0.1829 cumulative IPC: 0.3162 (Simulation time: 03 hr 10 min 39 sec)
[ERROR_CYCLE] Error added at CPU cycle 2057318185, next at 2060443789, pending count: 1
[DRAM_CYCLE_ERROR] Cycle-based error applied! address=0xfa67752a8 additional_latency=173500 cycles
[ERROR_CYCLE] Error added at CPU cycle 2060443790, next at 2081336312, pending count: 1
[DRAM_CYCLE_ERROR] Cycle-based error applied! address=0xc01cb5008 additional_latency=173500 cycles
[ERROR_CYCLE] Error added at CPU cycle 2081336313, next at 2086511136, pending count: 1
[DRAM_CYCLE_ERROR] Cycle-based error applied! address=0xe2d150a20 additional_latency=173500 cycles
[ERROR_CYCLE] Error added at CPU cycle 2086511137, next at 2122093809, pending count: 1
[DRAM_CYCLE_ERROR] Cycle-based error applied! address=0xb36cd8f8 additional_latency=173500 cycles
Heartbeat CPU 0 instructions: 660000066 cycles: 2116269957 heartbeat IPC: 0.1655 cumulative IPC: 0.3119 (Simulation time: 03 hr 15 min 37 sec)
[ERROR_CYCLE] Error added at CPU cycle 2122093810, next at 2127094108, pending count: 1
[DRAM_CYCLE_ERROR] Cycle-based error applied! address=0x5500fc80 additional_latency=173500 cycles
[ERROR_CYCLE] Error added at CPU cycle 2127094108, next at 2135895343, pending count: 1
[DRAM_CYCLE_ERROR] Cycle-based error applied! address=0xbfa5bae88 additional_latency=173500 cycles
[ERROR_CYCLE] Error added at CPU cycle 2135895344, next at 2136799738, pending count: 1
[DRAM_CYCLE_ERROR] Cycle-based error applied! address=0x403c45420 additional_latency=173500 cycles
[ERROR_CYCLE] Error added at CPU cycle 2136799738, next at 2139453762, pending count: 1
[DRAM_CYCLE_ERROR] Cycle-based error applied! address=0x8a4dbdfd8 additional_latency=173500 cycles
[ERROR_CYCLE] Error added at CPU cycle 2139453763, next at 2143754350, pending count: 1
[DRAM_CYCLE_ERROR] Cycle-based error applied! address=0x31351d330 additional_latency=173500 cycles
[ERROR_CYCLE] Error added at CPU cycle 2143754351, next at 2143833455, pending count: 1
[DRAM_CYCLE_ERROR] Cycle-based error applied! address=0x6aab503c0 additional_latency=173500 cycles
[ERROR_CYCLE] Error added at CPU cycle 2143833456, next at 2170169196, pending count: 1
[DRAM_CYCLE_ERROR] Cycle-based error applied! address=0x2aa1fae78 additional_latency=173500 cycles
[ERROR_CYCLE] Error added at CPU cycle 2170169196, next at 2170565878, pending count: 1
[DRAM_CYCLE_ERROR] Cycle-based error applied! address=0x2d9656180 additional_latency=173500 cycles
[ERROR_CYCLE] Error added at CPU cycle 2170565879, next at 2195034269, pending count: 1
[DRAM_CYCLE_ERROR] Cycle-based error applied! address=0x453a65b28 additional_latency=173500 cycles
Heartbeat CPU 0 instructions: 670000070 cycles: 2179056952 heartbeat IPC: 0.1593 cumulative IPC: 0.3075 (Simulation time: 03 hr 21 min 32 sec)
[ERROR_CYCLE] Error added at CPU cycle 2195034270, next at 2204436534, pending count: 1
[DRAM_CYCLE_ERROR] Cycle-based error applied! address=0xef54cdfb8 additional_latency=173500 cycles
[ERROR_CYCLE] Error added at CPU cycle 2204436534, next at 2217211204, pending count: 1
[DRAM_CYCLE_ERROR] Cycle-based error applied! address=0x8f33a7b80 additional_latency=173500 cycles
[ERROR_CYCLE] Error added at CPU cycle 2217211205, next at 2223054796, pending count: 1
[DRAM_CYCLE_ERROR] Cycle-based error applied! address=0x660070178 additional_latency=173500 cycles
[ERROR_CYCLE] Error added at CPU cycle 2223054797, next at 2228544198, pending count: 1
[DRAM_CYCLE_ERROR] Cycle-based error applied! address=0x99c3754a8 additional_latency=173500 cycles
[ERROR_CYCLE] Error added at CPU cycle 2228544198, next at 2232019815, pending count: 1
[DRAM_CYCLE_ERROR] Cycle-based error applied! address=0x6a7443800 additional_latency=173500 cycles
[ERROR_CYCLE] Error added at CPU cycle 2232019815, next at 2235515925, pending count: 1
[DRAM_CYCLE_ERROR] Cycle-based error applied! address=0x6e3d310b0 additional_latency=173500 cycles
[ERROR_CYCLE] Error added at CPU cycle 2235515925, next at 2237647010, pending count: 1
[DRAM_CYCLE_ERROR] Cycle-based error applied! address=0xfc12a68f8 additional_latency=173500 cycles
[ERROR_CYCLE] Error added at CPU cycle 2237647010, next at 2248080448, pending count: 1
[DRAM_CYCLE_ERROR] Cycle-based error applied! address=0x24ac67fa8 additional_latency=173500 cycles
[ERROR_CYCLE] Error added at CPU cycle 2248080448, next at 2268555961, pending count: 1
[DRAM_CYCLE_ERROR] Cycle-based error applied! address=0x1c6426080 additional_latency=173500 cycles
Heartbeat CPU 0 instructions: 680000072 cycles: 2249195007 heartbeat IPC: 0.1426 cumulative IPC: 0.3023 (Simulation time: 03 hr 28 min 10 sec)
[ERROR_CYCLE] Error added at CPU cycle 2268555961, next at 2288482074, pending count: 1
[DRAM_CYCLE_ERROR] Cycle-based error applied! address=0x8c7588900 additional_latency=173500 cycles
[ERROR_CYCLE] Error added at CPU cycle 2288482074, next at 2294298920, pending count: 1
[DRAM_CYCLE_ERROR] Cycle-based error applied! address=0x6dbfb0550 additional_latency=173500 cycles
[ERROR_CYCLE] Error added at CPU cycle 2294298920, next at 2295073929, pending count: 1
[DRAM_CYCLE_ERROR] Cycle-based error applied! address=0x7baf04410 additional_latency=173500 cycles
[ERROR_CYCLE] Error added at CPU cycle 2295073930, next at 2296867031, pending count: 1
[DRAM_CYCLE_ERROR] Cycle-based error applied! address=0x6203faf38 additional_latency=173500 cycles
[ERROR_CYCLE] Error added at CPU cycle 2296867031, next at 2305759519, pending count: 1
[DRAM_CYCLE_ERROR] Cycle-based error applied! address=0x46ae3eec0 additional_latency=173500 cycles
[ERROR_CYCLE] Error added at CPU cycle 2305759519, next at 2317589146, pending count: 1
[DRAM_CYCLE_ERROR] Cycle-based error applied! address=0x5e7859f40 additional_latency=173500 cycles
Heartbeat CPU 0 instructions: 690000076 cycles: 2307982049 heartbeat IPC: 0.1701 cumulative IPC: 0.299 (Simulation time: 03 hr 34 min 07 sec)
[ERROR_CYCLE] Error added at CPU cycle 2317589146, next at 2319340389, pending count: 1
[DRAM_CYCLE_ERROR] Cycle-based error applied! address=0xa3969bd48 additional_latency=173500 cycles
[ERROR_CYCLE] Error added at CPU cycle 2319340390, next at 2321630499, pending count: 1
[DRAM_CYCLE_ERROR] Cycle-based error applied! address=0x61f9dd110 additional_latency=173500 cycles
[ERROR_CYCLE] Error added at CPU cycle 2321630499, next at 2328230742, pending count: 1
[DRAM_CYCLE_ERROR] Cycle-based error applied! address=0x1f267fcf8 additional_latency=173500 cycles
[ERROR_CYCLE] Error added at CPU cycle 2328230742, next at 2330492435, pending count: 1
[DRAM_CYCLE_ERROR] Cycle-based error applied! address=0x6a0fd7230 additional_latency=173500 cycles
[ERROR_CYCLE] Error added at CPU cycle 2330492436, next at 2331166908, pending count: 1
[DRAM_CYCLE_ERROR] Cycle-based error applied! address=0xacfd6dee0 additional_latency=173500 cycles
[ERROR_CYCLE] Error added at CPU cycle 2331166908, next at 2332314393, pending count: 1
[DRAM_CYCLE_ERROR] Cycle-based error applied! address=0xa22614138 additional_latency=173500 cycles
[ERROR_CYCLE] Error added at CPU cycle 2332314393, next at 2334063851, pending count: 1
[DRAM_CYCLE_ERROR] Cycle-based error applied! address=0x5304a2c70 additional_latency=173500 cycles
[ERROR_CYCLE] Error added at CPU cycle 2334063851, next at 2375625705, pending count: 1
[DRAM_CYCLE_ERROR] Cycle-based error applied! address=0x5af026e78 additional_latency=173500 cycles
Heartbeat CPU 0 instructions: 700000078 cycles: 2342078311 heartbeat IPC: 0.2933 cumulative IPC: 0.2989 (Simulation time: 03 hr 37 min 40 sec)
Heartbeat CPU 0 instructions: 710000082 cycles: 2359804328 heartbeat IPC: 0.5641 cumulative IPC: 0.3009 (Simulation time: 03 hr 39 min 40 sec)
[ERROR_CYCLE] Error added at CPU cycle 2375625705, next at 2388203853, pending count: 1
[DRAM_CYCLE_ERROR] Cycle-based error applied! address=0x56f6faeb0 additional_latency=173500 cycles
Heartbeat CPU 0 instructions: 720000084 cycles: 2380600468 heartbeat IPC: 0.4809 cumulative IPC: 0.3024 (Simulation time: 03 hr 41 min 57 sec)
[ERROR_CYCLE] Error added at CPU cycle 2388203853, next at 2394260406, pending count: 1
[DRAM_CYCLE_ERROR] Cycle-based error applied! address=0xc5e464820 additional_latency=173500 cycles
[ERROR_CYCLE] Error added at CPU cycle 2394260407, next at 2419140556, pending count: 1
[DRAM_CYCLE_ERROR] Cycle-based error applied! address=0xfd0dadd58 additional_latency=173500 cycles
Heartbeat CPU 0 instructions: 730000085 cycles: 2397083027 heartbeat IPC: 0.6067 cumulative IPC: 0.3045 (Simulation time: 03 hr 43 min 48 sec)
Heartbeat CPU 0 instructions: 740000087 cycles: 2408231847 heartbeat IPC: 0.897 cumulative IPC: 0.3073 (Simulation time: 03 hr 45 min 10 sec)
[ERROR_CYCLE] Error added at CPU cycle 2419140557, next at 2424145521, pending count: 1
[DRAM_CYCLE_ERROR] Cycle-based error applied! address=0xe82a9eff0 additional_latency=173500 cycles
[ERROR_CYCLE] Error added at CPU cycle 2424145521, next at 2429301214, pending count: 1
[DRAM_CYCLE_ERROR] Cycle-based error applied! address=0xc715406d8 additional_latency=173500 cycles
[ERROR_CYCLE] Error added at CPU cycle 2429301214, next at 2462176563, pending count: 1
[DRAM_CYCLE_ERROR] Cycle-based error applied! address=0xd6d35f778 additional_latency=173500 cycles
Heartbeat CPU 0 instructions: 750000088 cycles: 2431640084 heartbeat IPC: 0.4272 cumulative IPC: 0.3084 (Simulation time: 03 hr 47 min 36 sec)
Heartbeat CPU 0 instructions: 760000089 cycles: 2442828980 heartbeat IPC: 0.8937 cumulative IPC: 0.3111 (Simulation time: 03 hr 48 min 39 sec)
Heartbeat CPU 0 instructions: 770000091 cycles: 2457658477 heartbeat IPC: 0.6743 cumulative IPC: 0.3133 (Simulation time: 03 hr 49 min 49 sec)
[ERROR_CYCLE] Error added at CPU cycle 2462176564, next at 2471115500, pending count: 1
[DRAM_CYCLE_ERROR] Cycle-based error applied! address=0x19b944620 additional_latency=173500 cycles
[ERROR_CYCLE] Error added at CPU cycle 2471115500, next at 2482235696, pending count: 1
[DRAM_CYCLE_ERROR] Cycle-based error applied! address=0x8c0063bf0 additional_latency=173500 cycles
[ERROR_CYCLE] Error added at CPU cycle 2482235696, next at 2484445689, pending count: 1
[DRAM_CYCLE_ERROR] Cycle-based error applied! address=0x79cce4100 additional_latency=173500 cycles
Heartbeat CPU 0 instructions: 780000093 cycles: 2483376805 heartbeat IPC: 0.3888 cumulative IPC: 0.3141 (Simulation time: 03 hr 52 min 07 sec)
[ERROR_CYCLE] Error added at CPU cycle 2484445689, next at 2487826583, pending count: 1
[DRAM_CYCLE_ERROR] Cycle-based error applied! address=0x9e7448738 additional_latency=173500 cycles
[ERROR_CYCLE] Error added at CPU cycle 2487826583, next at 2492127373, pending count: 1
[DRAM_CYCLE_ERROR] Cycle-based error applied! address=0xe2e2afe60 additional_latency=173500 cycles
[ERROR_CYCLE] Error added at CPU cycle 2492127374, next at 2505689272, pending count: 1
[DRAM_CYCLE_ERROR] Cycle-based error applied! address=0x9a8e38048 additional_latency=173500 cycles
[ERROR_CYCLE] Error added at CPU cycle 2505689272, next at 2515529207, pending count: 1
[DRAM_CYCLE_ERROR] Cycle-based error applied! address=0xeadcf8c28 additional_latency=173500 cycles
Heartbeat CPU 0 instructions: 790000093 cycles: 2509317138 heartbeat IPC: 0.3855 cumulative IPC: 0.3148 (Simulation time: 03 hr 54 min 51 sec)
[ERROR_CYCLE] Error added at CPU cycle 2515529208, next at 2520692507, pending count: 1
[DRAM_CYCLE_ERROR] Cycle-based error applied! address=0x966010fc0 additional_latency=173500 cycles
[ERROR_CYCLE] Error added at CPU cycle 2520692507, next at 2526977663, pending count: 1
[DRAM_CYCLE_ERROR] Cycle-based error applied! address=0x3d34ed300 additional_latency=173500 cycles
[ERROR_CYCLE] Error added at CPU cycle 2526977664, next at 2534787706, pending count: 1
[DRAM_CYCLE_ERROR] Cycle-based error applied! address=0xaf341ca78 additional_latency=173500 cycles
[ERROR_CYCLE] Error added at CPU cycle 2534787706, next at 2539634993, pending count: 1
[DRAM_CYCLE_ERROR] Cycle-based error applied! address=0x19e3e2100 additional_latency=173500 cycles
[ERROR_CYCLE] Error added at CPU cycle 2539634993, next at 2541357327, pending count: 1
[DRAM_CYCLE_ERROR] Cycle-based error applied! address=0xf115e7740 additional_latency=173500 cycles
[ERROR_CYCLE] Error added at CPU cycle 2541357328, next at 2563015622, pending count: 1
[DRAM_CYCLE_ERROR] Cycle-based error applied! address=0x651ffffb0 additional_latency=173500 cycles
Heartbeat CPU 0 instructions: 800000093 cycles: 2554120378 heartbeat IPC: 0.2232 cumulative IPC: 0.3132 (Simulation time: 03 hr 59 min 12 sec)
[ERROR_CYCLE] Error added at CPU cycle 2563015623, next at 2574248413, pending count: 1
[DRAM_CYCLE_ERROR] Cycle-based error applied! address=0x2f161e6d0 additional_latency=173500 cycles
[ERROR_CYCLE] Error added at CPU cycle 2574248413, next at 2584536777, pending count: 1
[DRAM_CYCLE_ERROR] Cycle-based error applied! address=0x1dd88eb0 additional_latency=173500 cycles
[ERROR_CYCLE] Error added at CPU cycle 2584536777, next at 2633667804, pending count: 1
[DRAM_CYCLE_ERROR] Cycle-based error applied! address=0xc0941f648 additional_latency=173500 cycles
Heartbeat CPU 0 instructions: 810000094 cycles: 2588803720 heartbeat IPC: 0.2883 cumulative IPC: 0.3129 (Simulation time: 04 hr 02 min 11 sec)
Heartbeat CPU 0 instructions: 820000094 cycles: 2616603784 heartbeat IPC: 0.3597 cumulative IPC: 0.3134 (Simulation time: 04 hr 05 min 02 sec)
[ERROR_CYCLE] Error added at CPU cycle 2633667805, next at 2637894515, pending count: 1
[DRAM_CYCLE_ERROR] Cycle-based error applied! address=0xa32232d28 additional_latency=173500 cycles
Heartbeat CPU 0 instructions: 830000094 cycles: 2636997345 heartbeat IPC: 0.4904 cumulative IPC: 0.3148 (Simulation time: 04 hr 07 min 16 sec)
[ERROR_CYCLE] Error added at CPU cycle 2637894516, next at 2648211880, pending count: 1
[DRAM_CYCLE_ERROR] Cycle-based error applied! address=0xf59c00358 additional_latency=173500 cycles
[ERROR_CYCLE] Error added at CPU cycle 2648211880, next at 2649012483, pending count: 1
[DRAM_CYCLE_ERROR] Cycle-based error applied! address=0x5d1a94ee8 additional_latency=173500 cycles
[ERROR_CYCLE] Error added at CPU cycle 2649012484, next at 2655650192, pending count: 1
[DRAM_CYCLE_ERROR] Cycle-based error applied! address=0xd995df538 additional_latency=173500 cycles
[ERROR_CYCLE] Error added at CPU cycle 2655650192, next at 2663525915, pending count: 1
[DRAM_CYCLE_ERROR] Cycle-based error applied! address=0x32bd26418 additional_latency=173500 cycles
[ERROR_CYCLE] Error added at CPU cycle 2663525915, next at 2686778622, pending count: 1
[DRAM_CYCLE_ERROR] Cycle-based error applied! address=0xa383f3a38 additional_latency=173500 cycles
Heartbeat CPU 0 instructions: 840000096 cycles: 2679956385 heartbeat IPC: 0.2328 cumulative IPC: 0.3134 (Simulation time: 04 hr 11 min 31 sec)
[ERROR_CYCLE] Error added at CPU cycle 2686778623, next at 2706990306, pending count: 1
[DRAM_CYCLE_ERROR] Cycle-based error applied! address=0xfd1c903d8 additional_latency=173500 cycles
[ERROR_CYCLE] Error added at CPU cycle 2706990306, next at 2707500157, pending count: 1
[DRAM_CYCLE_ERROR] Cycle-based error applied! address=0xe2564dbf8 additional_latency=173500 cycles
[ERROR_CYCLE] Error added at CPU cycle 2707500157, next at 2711785951, pending count: 1
[DRAM_CYCLE_ERROR] Cycle-based error applied! address=0x62f8cb098 additional_latency=173500 cycles
[ERROR_CYCLE] Error added at CPU cycle 2711785952, next at 2722419252, pending count: 1
[DRAM_CYCLE_ERROR] Cycle-based error applied! address=0x1f4822220 additional_latency=173500 cycles
Heartbeat CPU 0 instructions: 850000099 cycles: 2713913520 heartbeat IPC: 0.2945 cumulative IPC: 0.3132 (Simulation time: 04 hr 14 min 58 sec)
[ERROR_CYCLE] Error added at CPU cycle 2722419253, next at 2734191801, pending count: 1
[DRAM_CYCLE_ERROR] Cycle-based error applied! address=0xe3f70248 additional_latency=173500 cycles
Heartbeat CPU 0 instructions: 860000100 cycles: 2731377739 heartbeat IPC: 0.5726 cumulative IPC: 0.3149 (Simulation time: 04 hr 16 min 57 sec)
[ERROR_CYCLE] Error added at CPU cycle 2734191802, next at 2762580882, pending count: 1
[DRAM_CYCLE_ERROR] Cycle-based error applied! address=0xce71e94e0 additional_latency=173500 cycles
Heartbeat CPU 0 instructions: 870000103 cycles: 2742453747 heartbeat IPC: 0.9029 cumulative IPC: 0.3172 (Simulation time: 04 hr 18 min 18 sec)
[ERROR_CYCLE] Error added at CPU cycle 2762580882, next at 2768610152, pending count: 1
[DRAM_CYCLE_ERROR] Cycle-based error applied! address=0xf3bd557d8 additional_latency=173500 cycles
Heartbeat CPU 0 instructions: 880000103 cycles: 2764318816 heartbeat IPC: 0.4574 cumulative IPC: 0.3183 (Simulation time: 04 hr 20 min 40 sec)
[ERROR_CYCLE] Error added at CPU cycle 2768610153, next at 2784603218, pending count: 1
[DRAM_CYCLE_ERROR] Cycle-based error applied! address=0xcb4671d80 additional_latency=173500 cycles
Heartbeat CPU 0 instructions: 890000103 cycles: 2782758909 heartbeat IPC: 0.5423 cumulative IPC: 0.3198 (Simulation time: 04 hr 22 min 35 sec)
[ERROR_CYCLE] Error added at CPU cycle 2784603218, next at 2791831024, pending count: 1
[DRAM_CYCLE_ERROR] Cycle-based error applied! address=0x6cb04ea50 additional_latency=173500 cycles
[ERROR_CYCLE] Error added at CPU cycle 2791831025, next at 2801792805, pending count: 1
[DRAM_CYCLE_ERROR] Cycle-based error applied! address=0x9730971e8 additional_latency=173500 cycles
[ERROR_CYCLE] Error added at CPU cycle 2801792805, next at 2802263784, pending count: 1
[DRAM_CYCLE_ERROR] Cycle-based error applied! address=0xec9d28d68 additional_latency=173500 cycles
[ERROR_CYCLE] Error added at CPU cycle 2802263784, next at 2805327961, pending count: 1
[DRAM_CYCLE_ERROR] Cycle-based error applied! address=0x41b589fa0 additional_latency=173500 cycles
[ERROR_CYCLE] Error added at CPU cycle 2805327962, next at 2808931246, pending count: 1
[DRAM_CYCLE_ERROR] Cycle-based error applied! address=0x346e917d0 additional_latency=173500 cycles
[ERROR_CYCLE] Error added at CPU cycle 2808931247, next at 2816309239, pending count: 1
[DRAM_CYCLE_ERROR] Cycle-based error applied! address=0xdaacc9248 additional_latency=173500 cycles
[ERROR_CYCLE] Error added at CPU cycle 2816309240, next at 2826601536, pending count: 1
[DRAM_CYCLE_ERROR] Cycle-based error applied! address=0xb244d5c80 additional_latency=173500 cycles
Heartbeat CPU 0 instructions: 900000107 cycles: 2820373372 heartbeat IPC: 0.2659 cumulative IPC: 0.3191 (Simulation time: 04 hr 25 min 20 sec)
[ERROR_CYCLE] Error added at CPU cycle 2826601536, next at 2860916053, pending count: 1
[DRAM_CYCLE_ERROR] Cycle-based error applied! address=0xff566a890 additional_latency=173500 cycles
Heartbeat CPU 0 instructions: 910000107 cycles: 2836706979 heartbeat IPC: 0.6122 cumulative IPC: 0.3208 (Simulation time: 04 hr 26 min 34 sec)
[ERROR_CYCLE] Error added at CPU cycle 2860916053, next at 2870223242, pending count: 1
[DRAM_CYCLE_ERROR] Cycle-based error applied! address=0xb0bdd2748 additional_latency=173500 cycles
Heartbeat CPU 0 instructions: 920000108 cycles: 2860957894 heartbeat IPC: 0.4124 cumulative IPC: 0.3216 (Simulation time: 04 hr 28 min 14 sec)
[ERROR_CYCLE] Error added at CPU cycle 2870223243, next at 2884087618, pending count: 1
[DRAM_CYCLE_ERROR] Cycle-based error applied! address=0x6a349f258 additional_latency=173500 cycles
Heartbeat CPU 0 instructions: 930000109 cycles: 2879652300 heartbeat IPC: 0.5349 cumulative IPC: 0.323 (Simulation time: 04 hr 29 min 45 sec)
[ERROR_CYCLE] Error added at CPU cycle 2884087618, next at 2892827392, pending count: 1
[DRAM_CYCLE_ERROR] Cycle-based error applied! address=0xd129460a8 additional_latency=173500 cycles
[ERROR_CYCLE] Error added at CPU cycle 2892827392, next at 2899902752, pending count: 1
[DRAM_CYCLE_ERROR] Cycle-based error applied! address=0x4ffdaffe0 additional_latency=173500 cycles
[ERROR_CYCLE] Error added at CPU cycle 2899902753, next at 2921677388, pending count: 1
[DRAM_CYCLE_ERROR] Cycle-based error applied! address=0x5349c50a0 additional_latency=173500 cycles
[ERROR_CYCLE] Error added at CPU cycle 2921677388, next at 2926276412, pending count: 1
[DRAM_CYCLE_ERROR] Cycle-based error applied! address=0x53d025228 additional_latency=173500 cycles
[ERROR_CYCLE] Error added at CPU cycle 2926276412, next at 2942166062, pending count: 1
[DRAM_CYCLE_ERROR] Cycle-based error applied! address=0x12e689928 additional_latency=173500 cycles
Heartbeat CPU 0 instructions: 940000110 cycles: 2933854764 heartbeat IPC: 0.1845 cumulative IPC: 0.3204 (Simulation time: 04 hr 34 min 36 sec)
[ERROR_CYCLE] Error added at CPU cycle 2942166063, next at 2942802865, pending count: 1
[DRAM_CYCLE_ERROR] Cycle-based error applied! address=0xa6bc79c68 additional_latency=173500 cycles
[ERROR_CYCLE] Error added at CPU cycle 2942802866, next at 2957660694, pending count: 1
[DRAM_CYCLE_ERROR] Cycle-based error applied! address=0xd1dfdaa58 additional_latency=173500 cycles
[ERROR_CYCLE] Error added at CPU cycle 2957660694, next at 2973123696, pending count: 1
[DRAM_CYCLE_ERROR] Cycle-based error applied! address=0x3eff39f58 additional_latency=173500 cycles
[ERROR_CYCLE] Error added at CPU cycle 2973123697, next at 2986952310, pending count: 1
[DRAM_CYCLE_ERROR] Cycle-based error applied! address=0x487b5b5e8 additional_latency=173500 cycles
[ERROR_CYCLE] Error added at CPU cycle 2986952310, next at 3024457243, pending count: 1
[DRAM_CYCLE_ERROR] Cycle-based error applied! address=0x5a1a27190 additional_latency=173500 cycles
Heartbeat CPU 0 instructions: 950000112 cycles: 2995948697 heartbeat IPC: 0.161 cumulative IPC: 0.3171 (Simulation time: 04 hr 40 min 01 sec)
[ERROR_CYCLE] Error added at CPU cycle 3024457243, next at 3025131631, pending count: 1
[DRAM_CYCLE_ERROR] Cycle-based error applied! address=0xa9b1fce8 additional_latency=173500 cycles
[ERROR_CYCLE] Error added at CPU cycle 3025131632, next at 3039063732, pending count: 1
[DRAM_CYCLE_ERROR] Cycle-based error applied! address=0x97e7d98a0 additional_latency=173500 cycles
Heartbeat CPU 0 instructions: 960000113 cycles: 3027708486 heartbeat IPC: 0.3149 cumulative IPC: 0.3171 (Simulation time: 04 hr 43 min 05 sec)
[ERROR_CYCLE] Error added at CPU cycle 3039063732, next at 3042156612, pending count: 1
[DRAM_CYCLE_ERROR] Cycle-based error applied! address=0xc6eb5eba0 additional_latency=173500 cycles
[ERROR_CYCLE] Error added at CPU cycle 3042156612, next at 3049153556, pending count: 1
[DRAM_CYCLE_ERROR] Cycle-based error applied! address=0x64cc4a790 additional_latency=173500 cycles
Heartbeat CPU 0 instructions: 970000113 cycles: 3043103025 heartbeat IPC: 0.6496 cumulative IPC: 0.3188 (Simulation time: 04 hr 44 min 38 sec)
[ERROR_CYCLE] Error added at CPU cycle 3049153557, next at 3071479979, pending count: 1
[DRAM_CYCLE_ERROR] Cycle-based error applied! address=0x9b89fe358 additional_latency=173500 cycles
Heartbeat CPU 0 instructions: 980000113 cycles: 3056158864 heartbeat IPC: 0.7659 cumulative IPC: 0.3207 (Simulation time: 04 hr 45 min 43 sec)
[ERROR_CYCLE] Error added at CPU cycle 3071479979, next at 3075438839, pending count: 1
[DRAM_CYCLE_ERROR] Cycle-based error applied! address=0x898a25828 additional_latency=173500 cycles
[ERROR_CYCLE] Error added at CPU cycle 3075438840, next at 3101604216, pending count: 1
[DRAM_CYCLE_ERROR] Cycle-based error applied! address=0x85336c678 additional_latency=173500 cycles
Heartbeat CPU 0 instructions: 990000115 cycles: 3082080269 heartbeat IPC: 0.3858 cumulative IPC: 0.3212 (Simulation time: 04 hr 47 min 38 sec)
Heartbeat CPU 0 instructions: 1000000115 cycles: 3097532586 heartbeat IPC: 0.6472 cumulative IPC: 0.3228 (Simulation time: 04 hr 49 min 05 sec)
[ERROR_CYCLE] Error added at CPU cycle 3101604217, next at 3105234572, pending count: 1
[DRAM_CYCLE_ERROR] Cycle-based error applied! address=0x294d0bc58 additional_latency=173500 cycles
[ERROR_CYCLE] Error added at CPU cycle 3105234572, next at 3120731691, pending count: 1
[DRAM_CYCLE_ERROR] Cycle-based error applied! address=0x14dea1940 additional_latency=173500 cycles
Heartbeat CPU 0 instructions: 1010000115 cycles: 3115141948 heartbeat IPC: 0.5679 cumulative IPC: 0.3242 (Simulation time: 04 hr 50 min 42 sec)
[ERROR_CYCLE] Error added at CPU cycle 3120731692, next at 3148717972, pending count: 1
[DRAM_CYCLE_ERROR] Cycle-based error applied! address=0x6c64d7c70 additional_latency=173500 cycles
Heartbeat CPU 0 instructions: 1020000118 cycles: 3135640905 heartbeat IPC: 0.4878 cumulative IPC: 0.3253 (Simulation time: 04 hr 52 min 27 sec)
[ERROR_CYCLE] Error added at CPU cycle 3148717972, next at 3149188062, pending count: 1
[DRAM_CYCLE_ERROR] Cycle-based error applied! address=0x2ae5c9e18 additional_latency=173500 cycles
[ERROR_CYCLE] Error added at CPU cycle 3149188062, next at 3162239438, pending count: 1
[DRAM_CYCLE_ERROR] Cycle-based error applied! address=0x2bcc6c400 additional_latency=173500 cycles
Heartbeat CPU 0 instructions: 1030000118 cycles: 3153065926 heartbeat IPC: 0.5739 cumulative IPC: 0.3267 (Simulation time: 04 hr 53 min 50 sec)
[ERROR_CYCLE] Error added at CPU cycle 3162239438, next at 3169530421, pending count: 1
[DRAM_CYCLE_ERROR] Cycle-based error applied! address=0xfacfc2c68 additional_latency=173500 cycles
[ERROR_CYCLE] Error added at CPU cycle 3169530422, next at 3171491275, pending count: 1
[DRAM_CYCLE_ERROR] Cycle-based error applied! address=0x5aecd45c8 additional_latency=173500 cycles
[ERROR_CYCLE] Error added at CPU cycle 3171491275, next at 3174258426, pending count: 1
[DRAM_CYCLE_ERROR] Cycle-based error applied! address=0x90a62038 additional_latency=173500 cycles
Heartbeat CPU 0 instructions: 1040000118 cycles: 3173272936 heartbeat IPC: 0.4949 cumulative IPC: 0.3277 (Simulation time: 04 hr 55 min 50 sec)
[ERROR_CYCLE] Error added at CPU cycle 3174258427, next at 3181740600, pending count: 1
[DRAM_CYCLE_ERROR] Cycle-based error applied! address=0xb2f830000 additional_latency=173500 cycles
[ERROR_CYCLE] Error added at CPU cycle 3181740600, next at 3184842257, pending count: 1
[DRAM_CYCLE_ERROR] Cycle-based error applied! address=0xa1944e3b0 additional_latency=173500 cycles
[ERROR_CYCLE] Error added at CPU cycle 3184842257, next at 3192260021, pending count: 1
[DRAM_CYCLE_ERROR] Cycle-based error applied! address=0xea5783d0 additional_latency=173500 cycles
[ERROR_CYCLE] Error added at CPU cycle 3192260022, next at 3197491641, pending count: 1
[DRAM_CYCLE_ERROR] Cycle-based error applied! address=0x8a54188f8 additional_latency=173500 cycles
[ERROR_CYCLE] Error added at CPU cycle 3197491641, next at 3199192862, pending count: 1
[DRAM_CYCLE_ERROR] Cycle-based error applied! address=0x794279200 additional_latency=173500 cycles
[ERROR_CYCLE] Error added at CPU cycle 3199192863, next at 3207021728, pending count: 1
[DRAM_CYCLE_ERROR] Cycle-based error applied! address=0x3a57ed108 additional_latency=173500 cycles
[ERROR_CYCLE] Error added at CPU cycle 3207021728, next at 3236344921, pending count: 1
[DRAM_CYCLE_ERROR] Cycle-based error applied! address=0x6380f64d8 additional_latency=173500 cycles
[ERROR_CYCLE] Error added at CPU cycle 3236344921, next at 3242347323, pending count: 1
[DRAM_CYCLE_ERROR] Cycle-based error applied! address=0x6abef0750 additional_latency=173500 cycles
[ERROR_CYCLE] Error added at CPU cycle 3242347323, next at 3257930057, pending count: 1
[DRAM_CYCLE_ERROR] Cycle-based error applied! address=0x5a52578b0 additional_latency=173500 cycles
Heartbeat CPU 0 instructions: 1050000118 cycles: 3246626527 heartbeat IPC: 0.1363 cumulative IPC: 0.3234 (Simulation time: 05 hr 02 min 22 sec)
[ERROR_CYCLE] Error added at CPU cycle 3257930058, next at 3263380049, pending count: 1
[DRAM_CYCLE_ERROR] Cycle-based error applied! address=0x85ed69db0 additional_latency=173500 cycles
[ERROR_CYCLE] Error added at CPU cycle 3263380049, next at 3288094035, pending count: 1
[DRAM_CYCLE_ERROR] Cycle-based error applied! address=0xd8158b040 additional_latency=173500 cycles
[ERROR_CYCLE] Error added at CPU cycle 3288094035, next at 3300989344, pending count: 1
[DRAM_CYCLE_ERROR] Cycle-based error applied! address=0xd9b4f3de8 additional_latency=173500 cycles
[ERROR_CYCLE] Error added at CPU cycle 3300989344, next at 3305309758, pending count: 1
[DRAM_CYCLE_ERROR] Cycle-based error applied! address=0x3944ef8b0 additional_latency=173500 cycles
[ERROR_CYCLE] Error added at CPU cycle 3305309759, next at 3321174652, pending count: 1
[DRAM_CYCLE_ERROR] Cycle-based error applied! address=0x658418420 additional_latency=173500 cycles
[...]
[DRAM_CYCLE_ERROR] Cycle-based error applied! address=0xdaffe6ce0 additional_latency=173500 cycles
[ERROR_CYCLE] Error added at CPU cycle 5231096387, next at 5237213723, pending count: 1
[DRAM_CYCLE_ERROR] Cycle-based error applied! address=0xa33b46048 additional_latency=173500 cycles
[ERROR_CYCLE] Error added at CPU cycle 5237213724, next at 5248857648, pending count: 1
[DRAM_CYCLE_ERROR] Cycle-based error applied! address=0x24c696218 additional_latency=173500 cycles
[ERROR_CYCLE] Error added at CPU cycle 5248857649, next at 5263532133, pending count: 1
[DRAM_CYCLE_ERROR] Cycle-based error applied! address=0x7399433a0 additional_latency=173500 cycles
[ERROR_CYCLE] Error added at CPU cycle 5263532134, next at 5267662510, pending count: 1
[DRAM_CYCLE_ERROR] Cycle-based error applied! address=0x530114dc0 additional_latency=173500 cycles
[ERROR_CYCLE] Error added at CPU cycle 5267662511, next at 5273348260, pending count: 1
[DRAM_CYCLE_ERROR] Cycle-based error applied! address=0x37a6eb6b8 additional_latency=173500 cycles
[ERROR_CYCLE] Error added at CPU cycle 5273348261, next at 5278403503, pending count: 1
[DRAM_CYCLE_ERROR] Cycle-based error applied! address=0xc89ae0760 additional_latency=173500 cycles
[ERROR_CYCLE] Error added at CPU cycle 5278403503, next at 5279168617, pending count: 1
[DRAM_CYCLE_ERROR] Cycle-based error applied! address=0xcde577430 additional_latency=173500 cycles
[ERROR_CYCLE] Error added at CPU cycle 5279168617, next at 5285172712, pending count: 1
[DRAM_CYCLE_ERROR] Cycle-based error applied! address=0xeee75e000 additional_latency=173500 cycles
Heartbeat CPU 0 instructions: 1790000247 cycles: 5280265939 heartbeat IPC: 0.1436 cumulative IPC: 0.339 (Simulation time: 08 hr 21 min 16 sec)
[ERROR_CYCLE] Error added at CPU cycle 5285172713, next at 5291704888, pending count: 1
[DRAM_CYCLE_ERROR] Cycle-based error applied! address=0x6576db128 additional_latency=173500 cycles
[ERROR_CYCLE] Error added at CPU cycle 5291704888, next at 5304701321, pending count: 1
[DRAM_CYCLE_ERROR] Cycle-based error applied! address=0xe0766dd08 additional_latency=173500 cycles
[ERROR_CYCLE] Error added at CPU cycle 5304701321, next at 5315927219, pending count: 1
[DRAM_CYCLE_ERROR] Cycle-based error applied! address=0x1bd7342f0 additional_latency=173500 cycles
[ERROR_CYCLE] Error added at CPU cycle 5315927219, next at 5329231279, pending count: 1
Heartbeat CPU 0 instructions: 1800000249 cycles: 5315982530 heartbeat IPC: 0.28 cumulative IPC: 0.3386 (Simulation time: 08 hr 24 min 24 sec)
[DRAM_CYCLE_ERROR] Cycle-based error applied! address=0x475dc3838 additional_latency=173500 cycles
[ERROR_CYCLE] Error added at CPU cycle 5329231280, next at 5371444883, pending count: 1
[DRAM_CYCLE_ERROR] Cycle-based error applied! address=0xfbd1aeaf8 additional_latency=173500 cycles
Heartbeat CPU 0 instructions: 1810000250 cycles: 5329751537 heartbeat IPC: 0.7263 cumulative IPC: 0.3396 (Simulation time: 08 hr 25 min 50 sec)
Heartbeat CPU 0 instructions: 1820000254 cycles: 5362998554 heartbeat IPC: 0.3008 cumulative IPC: 0.3394 (Simulation time: 08 hr 28 min 44 sec)
[ERROR_CYCLE] Error added at CPU cycle 5371444883, next at 5393783179, pending count: 1
[DRAM_CYCLE_ERROR] Cycle-based error applied! address=0x2420a3710 additional_latency=173500 cycles
Heartbeat CPU 0 instructions: 1830000257 cycles: 5376826314 heartbeat IPC: 0.7232 cumulative IPC: 0.3403 (Simulation time: 08 hr 30 min 08 sec)
Heartbeat CPU 0 instructions: 1840000258 cycles: 5386333674 heartbeat IPC: 1.052 cumulative IPC: 0.3416 (Simulation time: 08 hr 31 min 05 sec)
[ERROR_CYCLE] Error added at CPU cycle 5393783180, next at 5396506524, pending count: 1
[DRAM_CYCLE_ERROR] Cycle-based error applied! address=0xc7533b708 additional_latency=173500 cycles
[ERROR_CYCLE] Error added at CPU cycle 5396506524, next at 5408670725, pending count: 1
[DRAM_CYCLE_ERROR] Cycle-based error applied! address=0xd634bf628 additional_latency=173500 cycles
Heartbeat CPU 0 instructions: 1850000262 cycles: 5403028801 heartbeat IPC: 0.599 cumulative IPC: 0.3424 (Simulation time: 08 hr 32 min 41 sec)
[ERROR_CYCLE] Error added at CPU cycle 5408670725, next at 5420521780, pending count: 1
[DRAM_CYCLE_ERROR] Cycle-based error applied! address=0x7c2bb1320 additional_latency=173500 cycles
[ERROR_CYCLE] Error added at CPU cycle 5420521781, next at 5425624671, pending count: 1
[DRAM_CYCLE_ERROR] Cycle-based error applied! address=0x585ae5e68 additional_latency=173500 cycles
[ERROR_CYCLE] Error added at CPU cycle 5425624672, next at 5437819774, pending count: 1
[DRAM_CYCLE_ERROR] Cycle-based error applied! address=0xb9efa17b8 additional_latency=173500 cycles
Heartbeat CPU 0 instructions: 1860000262 cycles: 5428637428 heartbeat IPC: 0.3905 cumulative IPC: 0.3426 (Simulation time: 08 hr 35 min 12 sec)
[ERROR_CYCLE] Error added at CPU cycle 5437819775, next at 5443916750, pending count: 1
[DRAM_CYCLE_ERROR] Cycle-based error applied! address=0x5a8bffd80 additional_latency=173500 cycles
[ERROR_CYCLE] Error added at CPU cycle 5443916751, next at 5445924147, pending count: 1
[DRAM_CYCLE_ERROR] Cycle-based error applied! address=0x1f7dbbec0 additional_latency=173500 cycles
[ERROR_CYCLE] Error added at CPU cycle 5445924147, next at 5449149040, pending count: 1
[DRAM_CYCLE_ERROR] Cycle-based error applied! address=0xc88095300 additional_latency=173500 cycles
[ERROR_CYCLE] Error added at CPU cycle 5449149041, next at 5464102586, pending count: 1
[DRAM_CYCLE_ERROR] Cycle-based error applied! address=0x22c9413f8 additional_latency=173500 cycles
Heartbeat CPU 0 instructions: 1870000262 cycles: 5454760565 heartbeat IPC: 0.3828 cumulative IPC: 0.3428 (Simulation time: 08 hr 37 min 25 sec)
[ERROR_CYCLE] Error added at CPU cycle 5464102587, next at 5477724603, pending count: 1
[DRAM_CYCLE_ERROR] Cycle-based error applied! address=0x2047c4c88 additional_latency=173500 cycles
Heartbeat CPU 0 instructions: 1880000265 cycles: 5467697593 heartbeat IPC: 0.773 cumulative IPC: 0.3438 (Simulation time: 08 hr 38 min 57 sec)
[ERROR_CYCLE] Error added at CPU cycle 5477724603, next at 5503187131, pending count: 1
[DRAM_CYCLE_ERROR] Cycle-based error applied! address=0xe972410c8 additional_latency=173500 cycles
Heartbeat CPU 0 instructions: 1890000265 cycles: 5492804111 heartbeat IPC: 0.3983 cumulative IPC: 0.3441 (Simulation time: 08 hr 41 min 39 sec)
[ERROR_CYCLE] Error added at CPU cycle 5503187131, next at 5507748661, pending count: 1
[DRAM_CYCLE_ERROR] Cycle-based error applied! address=0x139940cf8 additional_latency=173500 cycles
Heartbeat CPU 0 instructions: 1900000266 cycles: 5504426320 heartbeat IPC: 0.8604 cumulative IPC: 0.3452 (Simulation time: 08 hr 43 min 03 sec)
[ERROR_CYCLE] Error added at CPU cycle 5507748661, next at 5517230758, pending count: 1
[DRAM_CYCLE_ERROR] Cycle-based error applied! address=0xb2a6c4770 additional_latency=173500 cycles
[ERROR_CYCLE] Error added at CPU cycle 5517230759, next at 5517716072, pending count: 1
[DRAM_CYCLE_ERROR] Cycle-based error applied! address=0x99c757d0 additional_latency=173500 cycles
[ERROR_CYCLE] Error added at CPU cycle 5517716072, next at 5546432313, pending count: 1
Heartbeat CPU 0 instructions: 1910000266 cycles: 5518325126 heartbeat IPC: 0.7195 cumulative IPC: 0.3461 (Simulation time: 08 hr 44 min 40 sec)
[DRAM_CYCLE_ERROR] Cycle-based error applied! address=0x9b89fefe0 additional_latency=173500 cycles
Heartbeat CPU 0 instructions: 1920000266 cycles: 5529954767 heartbeat IPC: 0.8599 cumulative IPC: 0.3472 (Simulation time: 08 hr 46 min 05 sec)
[ERROR_CYCLE] Error added at CPU cycle 5546432313, next at 5551309693, pending count: 1
[DRAM_CYCLE_ERROR] Cycle-based error applied! address=0x3d23962c8 additional_latency=173500 cycles
[ERROR_CYCLE] Error added at CPU cycle 5551309693, next at 5551907922, pending count: 1
[DRAM_CYCLE_ERROR] Cycle-based error applied! address=0x99c757d0 additional_latency=173500 cycles
[ERROR_CYCLE] Error added at CPU cycle 5551907923, next at 5552567897, pending count: 1
[DRAM_CYCLE_ERROR] Cycle-based error applied! address=0x6db40c978 additional_latency=173500 cycles
[ERROR_CYCLE] Error added at CPU cycle 5552567897, next at 5553852757, pending count: 1
[DRAM_CYCLE_ERROR] Cycle-based error applied! address=0x2a4841ed0 additional_latency=173500 cycles
[ERROR_CYCLE] Error added at CPU cycle 5553852758, next at 5588283915, pending count: 1
[DRAM_CYCLE_ERROR] Cycle-based error applied! address=0x99c757d0 additional_latency=173500 cycles
Heartbeat CPU 0 instructions: 1930000266 cycles: 5554558288 heartbeat IPC: 0.4064 cumulative IPC: 0.3475 (Simulation time: 08 hr 48 min 45 sec)
Heartbeat CPU 0 instructions: 1940000267 cycles: 5568592458 heartbeat IPC: 0.7125 cumulative IPC: 0.3484 (Simulation time: 08 hr 50 min 24 sec)
[ERROR_CYCLE] Error added at CPU cycle 5588283915, next at 5604641865, pending count: 1
[DRAM_CYCLE_ERROR] Cycle-based error applied! address=0xad86176c0 additional_latency=173500 cycles
Heartbeat CPU 0 instructions: 1950000268 cycles: 5589483328 heartbeat IPC: 0.4787 cumulative IPC: 0.3489 (Simulation time: 08 hr 52 min 43 sec)
Heartbeat CPU 0 instructions: 1960000268 cycles: 5604009323 heartbeat IPC: 0.6884 cumulative IPC: 0.3497 (Simulation time: 08 hr 54 min 25 sec)
[ERROR_CYCLE] Error added at CPU cycle 5604641865, next at 5610739673, pending count: 1
[DRAM_CYCLE_ERROR] Cycle-based error applied! address=0xed40e6068 additional_latency=173500 cycles
[ERROR_CYCLE] Error added at CPU cycle 5610739673, next at 5617470111, pending count: 1
[DRAM_CYCLE_ERROR] Cycle-based error applied! address=0x3e69cacc0 additional_latency=173500 cycles
[ERROR_CYCLE] Error added at CPU cycle 5617470112, next at 5621813251, pending count: 1
[DRAM_CYCLE_ERROR] Cycle-based error applied! address=0xf4dfd3a28 additional_latency=173500 cycles
[ERROR_CYCLE] Error added at CPU cycle 5621813252, next at 5623053059, pending count: 1
[DRAM_CYCLE_ERROR] Cycle-based error applied! address=0x27c9ade80 additional_latency=173500 cycles
[ERROR_CYCLE] Error added at CPU cycle 5623053060, next at 5644301037, pending count: 1
[DRAM_CYCLE_ERROR] Cycle-based error applied! address=0x61546b540 additional_latency=173500 cycles
Heartbeat CPU 0 instructions: 1970000269 cycles: 5636399717 heartbeat IPC: 0.3087 cumulative IPC: 0.3495 (Simulation time: 08 hr 57 min 38 sec)
[ERROR_CYCLE] Error added at CPU cycle 5644301037, next at 5652009857, pending count: 1
[DRAM_CYCLE_ERROR] Cycle-based error applied! address=0xf1a7cdbf8 additional_latency=173500 cycles
[ERROR_CYCLE] Error added at CPU cycle 5652009858, next at 5662014367, pending count: 1
[DRAM_CYCLE_ERROR] Cycle-based error applied! address=0x17e035c8 additional_latency=173500 cycles
[ERROR_CYCLE] Error added at CPU cycle 5662014367, next at 5673344457, pending count: 1
[DRAM_CYCLE_ERROR] Cycle-based error applied! address=0x7c993fe80 additional_latency=173500 cycles
[ERROR_CYCLE] Error added at CPU cycle 5673344458, next at 5693280537, pending count: 1
[DRAM_CYCLE_ERROR] Cycle-based error applied! address=0x52be8d030 additional_latency=173500 cycles
[ERROR_CYCLE] Error added at CPU cycle 5693280537, next at 5694886913, pending count: 1
[DRAM_CYCLE_ERROR] Cycle-based error applied! address=0x60a0d2438 additional_latency=173500 cycles
[ERROR_CYCLE] Error added at CPU cycle 5694886913, next at 5696315252, pending count: 1
[DRAM_CYCLE_ERROR] Cycle-based error applied! address=0xb5b0a4538 additional_latency=173500 cycles
[ERROR_CYCLE] Error added at CPU cycle 5696315252, next at 5702290302, pending count: 1
[DRAM_CYCLE_ERROR] Cycle-based error applied! address=0x7829c1300 additional_latency=173500 cycles
Heartbeat CPU 0 instructions: 1980000269 cycles: 5696691330 heartbeat IPC: 0.1659 cumulative IPC: 0.3476 (Simulation time: 09 hr 02 min 47 sec)
[ERROR_CYCLE] Error added at CPU cycle 5702290302, next at 5705762493, pending count: 1
[DRAM_CYCLE_ERROR] Cycle-based error applied! address=0xeebee32e0 additional_latency=173500 cycles
[ERROR_CYCLE] Error added at CPU cycle 5705762493, next at 5711294929, pending count: 1
[DRAM_CYCLE_ERROR] Cycle-based error applied! address=0x63aebed80 additional_latency=173500 cycles
[ERROR_CYCLE] Error added at CPU cycle 5711294930, next at 5719599125, pending count: 1
[DRAM_CYCLE_ERROR] Cycle-based error applied! address=0xd64c35b0 additional_latency=173500 cycles
[ERROR_CYCLE] Error added at CPU cycle 5719599125, next at 5747326287, pending count: 1
[DRAM_CYCLE_ERROR] Cycle-based error applied! address=0x2f02d3bc0 additional_latency=173500 cycles
[ERROR_CYCLE] Error added at CPU cycle 5747326287, next at 5789020650, pending count: 1
[DRAM_CYCLE_ERROR] Cycle-based error applied! address=0x6001cc7f0 additional_latency=173500 cycles
Heartbeat CPU 0 instructions: 1990000270 cycles: 5757025586 heartbeat IPC: 0.1657 cumulative IPC: 0.3457 (Simulation time: 09 hr 08 min 05 sec)
[ERROR_CYCLE] Error added at CPU cycle 5789020651, next at 5800607437, pending count: 1
[DRAM_CYCLE_ERROR] Cycle-based error applied! address=0x94b4e9ea0 additional_latency=173500 cycles
[ERROR_CYCLE] Error added at CPU cycle 5800607438, next at 5819429474, pending count: 1
[DRAM_CYCLE_ERROR] Cycle-based error applied! address=0x267e21a60 additional_latency=173500 cycles

=== ERROR PAGE STATISTICS ===
Mode: CYCLE
Error Cycle Interval: 10000000 CPU cycles
Total Error Accesses: 592
==============================
Simulation finished CPU 0 instructions: 1999999938 cycles: 5814452119 cumulative IPC: 0.344 (Simulation time: 09 hr 13 min 31 sec)
Simulation complete CPU 0 instructions: 1999999938 cycles: 5814452119 cumulative IPC: 0.344 (Simulation time: 09 hr 13 min 31 sec)

ChampSim completed all CPUs

=== Simulation ===
CPU 0 runs test_traces/605.mcf_s-994B.champsimtrace.xz

Region of Interest Statistics

CPU 0 cumulative IPC: 0.344 instructions: 1999999938 cycles: 5814452119
CPU 0 Branch Prediction Accuracy: 92.62% MPKI: 18.99 Average ROB Occupancy at Mispredict: 34.57
Branch type MPKI
BRANCH_DIRECT_JUMP: 0.123
BRANCH_INDIRECT: 0
BRANCH_CONDITIONAL: 18.86
BRANCH_DIRECT_CALL: 6.5e-06
BRANCH_INDIRECT_CALL: 0.0004185
BRANCH_RETURN: 1e-05

cpu0->cpu0_STLB TOTAL        ACCESS:   24265368 HIT:   11227764 MISS:   13037604 MSHR_MERGE:          0
cpu0->cpu0_STLB LOAD         ACCESS:   24265368 HIT:   11227764 MISS:   13037604 MSHR_MERGE:          0
cpu0->cpu0_STLB RFO          ACCESS:          0 HIT:          0 MISS:          0 MSHR_MERGE:          0
cpu0->cpu0_STLB PREFETCH     ACCESS:          0 HIT:          0 MISS:          0 MSHR_MERGE:          0
cpu0->cpu0_STLB WRITE        ACCESS:          0 HIT:          0 MISS:          0 MSHR_MERGE:          0
cpu0->cpu0_STLB TRANSLATION  ACCESS:          0 HIT:          0 MISS:          0 MSHR_MERGE:          0
cpu0->cpu0_STLB PREFETCH REQUESTED:          0 ISSUED:          0 USEFUL:          0 USELESS:          0
cpu0->cpu0_STLB AVERAGE MISS LATENCY: 237.1 cycles
cpu0->cpu0_L2C TOTAL        ACCESS:   81182068 HIT:   27440125 MISS:   53741943 MSHR_MERGE:          0
cpu0->cpu0_L2C LOAD         ACCESS:   75044098 HIT:   21368167 MISS:   53675931 MSHR_MERGE:          0
cpu0->cpu0_L2C RFO          ACCESS:     492948 HIT:     431327 MISS:      61621 MSHR_MERGE:          0
cpu0->cpu0_L2C PREFETCH     ACCESS:          0 HIT:          0 MISS:          0 MSHR_MERGE:          0
cpu0->cpu0_L2C WRITE        ACCESS:    5645022 HIT:    5640631 MISS:       4391 MSHR_MERGE:          0
cpu0->cpu0_L2C TRANSLATION  ACCESS:          0 HIT:          0 MISS:          0 MSHR_MERGE:          0
cpu0->cpu0_L2C PREFETCH REQUESTED:          0 ISSUED:          0 USEFUL:          0 USELESS:          0
cpu0->cpu0_L2C AVERAGE MISS LATENCY: 93.42 cycles
cpu0->cpu0_L1I TOTAL        ACCESS:    3226702 HIT:    3226611 MISS:         91 MSHR_MERGE:         25
cpu0->cpu0_L1I LOAD         ACCESS:    3226702 HIT:    3226611 MISS:         91 MSHR_MERGE:         25
cpu0->cpu0_L1I RFO          ACCESS:          0 HIT:          0 MISS:          0 MSHR_MERGE:          0
cpu0->cpu0_L1I PREFETCH     ACCESS:          0 HIT:          0 MISS:          0 MSHR_MERGE:          0
cpu0->cpu0_L1I WRITE        ACCESS:          0 HIT:          0 MISS:          0 MSHR_MERGE:          0
cpu0->cpu0_L1I TRANSLATION  ACCESS:          0 HIT:          0 MISS:          0 MSHR_MERGE:          0
cpu0->cpu0_L1I PREFETCH REQUESTED:          0 ISSUED:          0 USEFUL:          0 USELESS:          0
cpu0->cpu0_L1I AVERAGE MISS LATENCY: 118.6 cycles
cpu0->cpu0_L1D TOTAL        ACCESS:  806973388 HIT:  724733956 MISS:   82239432 MSHR_MERGE:    6701773
cpu0->cpu0_L1D LOAD         ACCESS:  606391764 HIT:  525536798 MISS:   80854966 MSHR_MERGE:    5810911
cpu0->cpu0_L1D RFO          ACCESS:          0 HIT:          0 MISS:          0 MSHR_MERGE:          0
cpu0->cpu0_L1D PREFETCH     ACCESS:          0 HIT:          0 MISS:          0 MSHR_MERGE:          0
cpu0->cpu0_L1D WRITE        ACCESS:  200581624 HIT:  199197158 MISS:    1384466 MSHR_MERGE:     890862
cpu0->cpu0_L1D TRANSLATION  ACCESS:          0 HIT:          0 MISS:          0 MSHR_MERGE:          0
cpu0->cpu0_L1D PREFETCH REQUESTED:          0 ISSUED:          0 USEFUL:          0 USELESS:          0
cpu0->cpu0_L1D AVERAGE MISS LATENCY: 75.38 cycles
cpu0->cpu0_ITLB TOTAL        ACCESS:    3076365 HIT:    3076358 MISS:          7 MSHR_MERGE:          1
cpu0->cpu0_ITLB LOAD         ACCESS:    3076365 HIT:    3076358 MISS:          7 MSHR_MERGE:          1
cpu0->cpu0_ITLB RFO          ACCESS:          0 HIT:          0 MISS:          0 MSHR_MERGE:          0
cpu0->cpu0_ITLB PREFETCH     ACCESS:          0 HIT:          0 MISS:          0 MSHR_MERGE:          0
cpu0->cpu0_ITLB WRITE        ACCESS:          0 HIT:          0 MISS:          0 MSHR_MERGE:          0
cpu0->cpu0_ITLB TRANSLATION  ACCESS:          0 HIT:          0 MISS:          0 MSHR_MERGE:          0
cpu0->cpu0_ITLB PREFETCH REQUESTED:          0 ISSUED:          0 USEFUL:          0 USELESS:          0
cpu0->cpu0_ITLB AVERAGE MISS LATENCY: 750.7 cycles
cpu0->cpu0_DTLB TOTAL        ACCESS:  721869603 HIT:  688506102 MISS:   33363501 MSHR_MERGE:    9098139
cpu0->cpu0_DTLB LOAD         ACCESS:  721869603 HIT:  688506102 MISS:   33363501 MSHR_MERGE:    9098139
cpu0->cpu0_DTLB RFO          ACCESS:          0 HIT:          0 MISS:          0 MSHR_MERGE:          0
cpu0->cpu0_DTLB PREFETCH     ACCESS:          0 HIT:          0 MISS:          0 MSHR_MERGE:          0
cpu0->cpu0_DTLB WRITE        ACCESS:          0 HIT:          0 MISS:          0 MSHR_MERGE:          0
cpu0->cpu0_DTLB TRANSLATION  ACCESS:          0 HIT:          0 MISS:          0 MSHR_MERGE:          0
cpu0->cpu0_DTLB PREFETCH REQUESTED:          0 ISSUED:          0 USEFUL:          0 USELESS:          0
cpu0->cpu0_DTLB AVERAGE MISS LATENCY: 133 cycles
cpu0->LLC TOTAL        ACCESS:   57703789 HIT:   16607949 MISS:   41095840 MSHR_MERGE:          0
cpu0->LLC LOAD         ACCESS:   53675928 HIT:   12600401 MISS:   41075527 MSHR_MERGE:          0
cpu0->LLC RFO          ACCESS:      61621 HIT:      42644 MISS:      18977 MSHR_MERGE:          0
cpu0->LLC PREFETCH     ACCESS:          0 HIT:          0 MISS:          0 MSHR_MERGE:          0
cpu0->LLC WRITE        ACCESS:    3966240 HIT:    3964904 MISS:       1336 MSHR_MERGE:          0
cpu0->LLC TRANSLATION  ACCESS:          0 HIT:          0 MISS:          0 MSHR_MERGE:          0
cpu0->LLC PREFETCH REQUESTED:          0 ISSUED:          0 USEFUL:          0 USELESS:          0
cpu0->LLC AVERAGE MISS LATENCY: 101.6 cycles

DRAM Statistics

Channel 0 RQ ROW_BUFFER_HIT:     485640
  ROW_BUFFER_MISS:   36364933
  AVG DBUS CONGESTED CYCLE: 9.412
Channel 0 WQ ROW_BUFFER_HIT:     380049
  ROW_BUFFER_MISS:    1200527
  FULL:          0
Channel 0 REFRESHES ISSUED:     484506

Channel 1 RQ ROW_BUFFER_HIT:     497488
  ROW_BUFFER_MISS:   35980233
  AVG DBUS CONGESTED CYCLE: 9.433
Channel 1 WQ ROW_BUFFER_HIT:     379216
  ROW_BUFFER_MISS:    1202118
  FULL:          0
Channel 1 REFRESHES ISSUED:     484506
