[VMEM] WARNING: physical memory size is smaller than virtual memory size.

*** ChampSim Multicore Out-of-Order Simulator ***
Warmup Instructions: 0
Simulation Instructions: 9223372036854775807
Number of CPUs: 1
Page size: 4096

Off-chip DRAM Size: 64 GiB Channels: 2 Width: 32-bit Data Rate: 4807 MT/s
[ERROR_PAGE_MANAGER] Error latency: 173500 
[ERROR_PAGE_MANAGER] Random seed: 54321 (fixed for preload reproducibility)
[ERROR_PAGE_MANAGER] Cycle-based error modeling enabled
[ERROR_PAGE_MANAGER] Errors per interval: 1
[ERROR_PAGE_MANAGER] Error cycle interval: 100000000 cycles

=== ERROR PAGE STATISTICS ===
Mode: CYCLE
Error Cycle Interval: 100000000 CPU cycles
Total Error Accesses: 0
==============================
Warmup finished CPU 0 instructions: 0 cycles: 1 cumulative IPC: 0 (Simulation time: 00 hr 00 min 01 sec)
Warmup complete CPU 0 instructions: 0 cycles: 1 cumulative IPC: 0 (Simulation time: 00 hr 00 min 01 sec)
Heartbeat CPU 0 instructions: 10000000 cycles: 9216561 heartbeat IPC: 1.085 cumulative IPC: 1.085 (Simulation time: 00 hr 01 min 09 sec)
Heartbeat CPU 0 instructions: 20000000 cycles: 18382250 heartbeat IPC: 1.091 cumulative IPC: 1.088 (Simulation time: 00 hr 01 min 59 sec)
Heartbeat CPU 0 instructions: 30000000 cycles: 27583418 heartbeat IPC: 1.087 cumulative IPC: 1.088 (Simulation time: 00 hr 02 min 49 sec)
Heartbeat CPU 0 instructions: 40000001 cycles: 36762617 heartbeat IPC: 1.089 cumulative IPC: 1.088 (Simulation time: 00 hr 03 min 48 sec)
Heartbeat CPU 0 instructions: 50000005 cycles: 52602004 heartbeat IPC: 0.6313 cumulative IPC: 0.9505 (Simulation time: 00 hr 05 min 32 sec)
[ERROR_CYCLE] Error added at CPU cycle 71278057, next at 91533063, pending count: 1
[DRAM_CYCLE_ERROR] Cycle-based error applied! address=0x20cca1040 additional_latency=173500 cycles
Heartbeat CPU 0 instructions: 60000005 cycles: 72223886 heartbeat IPC: 0.5096 cumulative IPC: 0.8308 (Simulation time: 00 hr 07 min 19 sec)
Heartbeat CPU 0 instructions: 70000008 cycles: 81357500 heartbeat IPC: 1.095 cumulative IPC: 0.8604 (Simulation time: 00 hr 08 min 27 sec)
Heartbeat CPU 0 instructions: 80000011 cycles: 90452140 heartbeat IPC: 1.1 cumulative IPC: 0.8844 (Simulation time: 00 hr 09 min 34 sec)
[ERROR_CYCLE] Error added at CPU cycle 91533064, next at 256960641, pending count: 1
[DRAM_CYCLE_ERROR] Cycle-based error applied! address=0xd7239fe40 additional_latency=173500 cycles
Heartbeat CPU 0 instructions: 90000011 cycles: 99541968 heartbeat IPC: 1.1 cumulative IPC: 0.9041 (Simulation time: 00 hr 10 min 42 sec)
Heartbeat CPU 0 instructions: 100000014 cycles: 108628030 heartbeat IPC: 1.101 cumulative IPC: 0.9206 (Simulation time: 00 hr 11 min 40 sec)
Heartbeat CPU 0 instructions: 110000014 cycles: 117714076 heartbeat IPC: 1.101 cumulative IPC: 0.9345 (Simulation time: 00 hr 12 min 47 sec)
Heartbeat CPU 0 instructions: 120000018 cycles: 129197998 heartbeat IPC: 0.8708 cumulative IPC: 0.9288 (Simulation time: 00 hr 14 min 13 sec)
Heartbeat CPU 0 instructions: 130000019 cycles: 148055874 heartbeat IPC: 0.5303 cumulative IPC: 0.878 (Simulation time: 00 hr 16 min 33 sec)
Heartbeat CPU 0 instructions: 140000019 cycles: 157153311 heartbeat IPC: 1.099 cumulative IPC: 0.8908 (Simulation time: 00 hr 17 min 29 sec)
Heartbeat CPU 0 instructions: 150000019 cycles: 166235035 heartbeat IPC: 1.101 cumulative IPC: 0.9023 (Simulation time: 00 hr 18 min 37 sec)
Heartbeat CPU 0 instructions: 160000020 cycles: 175331341 heartbeat IPC: 1.099 cumulative IPC: 0.9126 (Simulation time: 00 hr 19 min 46 sec)
Heartbeat CPU 0 instructions: 170000020 cycles: 184409887 heartbeat IPC: 1.101 cumulative IPC: 0.9219 (Simulation time: 00 hr 20 min 55 sec)
Heartbeat CPU 0 instructions: 180000023 cycles: 193505674 heartbeat IPC: 1.099 cumulative IPC: 0.9302 (Simulation time: 00 hr 22 min 03 sec)
Heartbeat CPU 0 instructions: 190000026 cycles: 202588367 heartbeat IPC: 1.101 cumulative IPC: 0.9379 (Simulation time: 00 hr 23 min 11 sec)
Heartbeat CPU 0 instructions: 200000027 cycles: 220093904 heartbeat IPC: 0.5712 cumulative IPC: 0.9087 (Simulation time: 00 hr 25 min 29 sec)
Heartbeat CPU 0 instructions: 210000029 cycles: 232898106 heartbeat IPC: 0.781 cumulative IPC: 0.9017 (Simulation time: 00 hr 27 min 07 sec)
Heartbeat CPU 0 instructions: 220000033 cycles: 241976386 heartbeat IPC: 1.102 cumulative IPC: 0.9092 (Simulation time: 00 hr 28 min 16 sec)
Heartbeat CPU 0 instructions: 230000036 cycles: 251063017 heartbeat IPC: 1.101 cumulative IPC: 0.9161 (Simulation time: 00 hr 29 min 17 sec)
[ERROR_CYCLE] Error added at CPU cycle 256960642, next at 534676898, pending count: 1
[DRAM_CYCLE_ERROR] Cycle-based error applied! address=0xd25f4c600 additional_latency=173500 cycles
Heartbeat CPU 0 instructions: 240000039 cycles: 260147928 heartbeat IPC: 1.101 cumulative IPC: 0.9226 (Simulation time: 00 hr 30 min 25 sec)
Heartbeat CPU 0 instructions: 250000039 cycles: 269237439 heartbeat IPC: 1.1 cumulative IPC: 0.9285 (Simulation time: 00 hr 31 min 33 sec)
Heartbeat CPU 0 instructions: 260000039 cycles: 278318836 heartbeat IPC: 1.101 cumulative IPC: 0.9342 (Simulation time: 00 hr 32 min 42 sec)
Heartbeat CPU 0 instructions: 270000040 cycles: 292222947 heartbeat IPC: 0.7192 cumulative IPC: 0.924 (Simulation time: 00 hr 34 min 36 sec)
Heartbeat CPU 0 instructions: 280000044 cycles: 308572074 heartbeat IPC: 0.6117 cumulative IPC: 0.9074 (Simulation time: 00 hr 36 min 37 sec)
Heartbeat CPU 0 instructions: 290000047 cycles: 317662765 heartbeat IPC: 1.1 cumulative IPC: 0.9129 (Simulation time: 00 hr 37 min 29 sec)
Heartbeat CPU 0 instructions: 300000048 cycles: 326744019 heartbeat IPC: 1.101 cumulative IPC: 0.9182 (Simulation time: 00 hr 38 min 33 sec)
Heartbeat CPU 0 instructions: 310000050 cycles: 335837232 heartbeat IPC: 1.1 cumulative IPC: 0.9231 (Simulation time: 00 hr 39 min 36 sec)
Heartbeat CPU 0 instructions: 320000054 cycles: 344923913 heartbeat IPC: 1.101 cumulative IPC: 0.9277 (Simulation time: 00 hr 40 min 33 sec)
Heartbeat CPU 0 instructions: 330000056 cycles: 354017835 heartbeat IPC: 1.1 cumulative IPC: 0.9322 (Simulation time: 00 hr 41 min 26 sec)
Heartbeat CPU 0 instructions: 340000059 cycles: 364436753 heartbeat IPC: 0.9598 cumulative IPC: 0.9329 (Simulation time: 00 hr 42 min 46 sec)
Heartbeat CPU 0 instructions: 350000059 cycles: 383389865 heartbeat IPC: 0.5276 cumulative IPC: 0.9129 (Simulation time: 00 hr 45 min 21 sec)
Heartbeat CPU 0 instructions: 360000060 cycles: 393771384 heartbeat IPC: 0.9633 cumulative IPC: 0.9142 (Simulation time: 00 hr 46 min 20 sec)
Heartbeat CPU 0 instructions: 370000062 cycles: 404148738 heartbeat IPC: 0.9636 cumulative IPC: 0.9155 (Simulation time: 00 hr 47 min 07 sec)
Heartbeat CPU 0 instructions: 380000062 cycles: 414527338 heartbeat IPC: 0.9635 cumulative IPC: 0.9167 (Simulation time: 00 hr 48 min 09 sec)
Heartbeat CPU 0 instructions: 390000062 cycles: 427217905 heartbeat IPC: 0.788 cumulative IPC: 0.9129 (Simulation time: 00 hr 49 min 29 sec)
Heartbeat CPU 0 instructions: 400000062 cycles: 441266038 heartbeat IPC: 0.7118 cumulative IPC: 0.9065 (Simulation time: 00 hr 51 min 27 sec)
Heartbeat CPU 0 instructions: 410000062 cycles: 448704932 heartbeat IPC: 1.344 cumulative IPC: 0.9137 (Simulation time: 00 hr 52 min 44 sec)
Heartbeat CPU 0 instructions: 420000064 cycles: 456545052 heartbeat IPC: 1.275 cumulative IPC: 0.92 (Simulation time: 00 hr 54 min 05 sec)
Heartbeat CPU 0 instructions: 430000067 cycles: 466081602 heartbeat IPC: 1.049 cumulative IPC: 0.9226 (Simulation time: 00 hr 55 min 20 sec)
Heartbeat CPU 0 instructions: 440000068 cycles: 476007089 heartbeat IPC: 1.008 cumulative IPC: 0.9244 (Simulation time: 00 hr 56 min 57 sec)
Heartbeat CPU 0 instructions: 450000072 cycles: 485517558 heartbeat IPC: 1.051 cumulative IPC: 0.9268 (Simulation time: 00 hr 58 min 31 sec)
Heartbeat CPU 0 instructions: 460000074 cycles: 495007423 heartbeat IPC: 1.054 cumulative IPC: 0.9293 (Simulation time: 01 hr 00 min 05 sec)
Heartbeat CPU 0 instructions: 470000078 cycles: 504530760 heartbeat IPC: 1.05 cumulative IPC: 0.9316 (Simulation time: 01 hr 01 min 39 sec)
Heartbeat CPU 0 instructions: 480000081 cycles: 514117463 heartbeat IPC: 1.043 cumulative IPC: 0.9336 (Simulation time: 01 hr 02 min 42 sec)
Heartbeat CPU 0 instructions: 490000082 cycles: 523895587 heartbeat IPC: 1.023 cumulative IPC: 0.9353 (Simulation time: 01 hr 03 min 46 sec)
Heartbeat CPU 0 instructions: 500000086 cycles: 533362021 heartbeat IPC: 1.056 cumulative IPC: 0.9374 (Simulation time: 01 hr 05 min 08 sec)
[ERROR_CYCLE] Error added at CPU cycle 534676899, next at 537682250, pending count: 1
[DRAM_CYCLE_ERROR] Cycle-based error applied! address=0x7e57f9c80 additional_latency=173500 cycles
[ERROR_CYCLE] Error added at CPU cycle 537682251, next at 691386421, pending count: 1
[DRAM_CYCLE_ERROR] Cycle-based error applied! address=0xce61ea600 additional_latency=173500 cycles
Heartbeat CPU 0 instructions: 510000089 cycles: 542946214 heartbeat IPC: 1.043 cumulative IPC: 0.9393 (Simulation time: 01 hr 06 min 34 sec)
Heartbeat CPU 0 instructions: 520000089 cycles: 552563288 heartbeat IPC: 1.04 cumulative IPC: 0.9411 (Simulation time: 01 hr 07 min 40 sec)
Heartbeat CPU 0 instructions: 530000089 cycles: 562369438 heartbeat IPC: 1.02 cumulative IPC: 0.9424 (Simulation time: 01 hr 08 min 48 sec)
Heartbeat CPU 0 instructions: 540000089 cycles: 571973490 heartbeat IPC: 1.041 cumulative IPC: 0.9441 (Simulation time: 01 hr 10 min 16 sec)
Heartbeat CPU 0 instructions: 550000089 cycles: 581419520 heartbeat IPC: 1.059 cumulative IPC: 0.946 (Simulation time: 01 hr 11 min 50 sec)
Heartbeat CPU 0 instructions: 560000093 cycles: 590955397 heartbeat IPC: 1.049 cumulative IPC: 0.9476 (Simulation time: 01 hr 13 min 22 sec)
Heartbeat CPU 0 instructions: 570000097 cycles: 600585881 heartbeat IPC: 1.038 cumulative IPC: 0.9491 (Simulation time: 01 hr 14 min 41 sec)
Heartbeat CPU 0 instructions: 580000100 cycles: 610408290 heartbeat IPC: 1.018 cumulative IPC: 0.9502 (Simulation time: 01 hr 15 min 59 sec)
Heartbeat CPU 0 instructions: 590000101 cycles: 619856282 heartbeat IPC: 1.058 cumulative IPC: 0.9518 (Simulation time: 01 hr 17 min 13 sec)
Heartbeat CPU 0 instructions: 600000102 cycles: 629420180 heartbeat IPC: 1.046 cumulative IPC: 0.9533 (Simulation time: 01 hr 18 min 29 sec)
Heartbeat CPU 0 instructions: 610000102 cycles: 637105690 heartbeat IPC: 1.301 cumulative IPC: 0.9575 (Simulation time: 01 hr 19 min 37 sec)
Heartbeat CPU 0 instructions: 620000102 cycles: 644511857 heartbeat IPC: 1.35 cumulative IPC: 0.962 (Simulation time: 01 hr 20 min 39 sec)
Heartbeat CPU 0 instructions: 630000104 cycles: 651869642 heartbeat IPC: 1.359 cumulative IPC: 0.9665 (Simulation time: 01 hr 21 min 31 sec)
Heartbeat CPU 0 instructions: 640000104 cycles: 659216868 heartbeat IPC: 1.361 cumulative IPC: 0.9708 (Simulation time: 01 hr 22 min 46 sec)
Heartbeat CPU 0 instructions: 650000108 cycles: 666399510 heartbeat IPC: 1.392 cumulative IPC: 0.9754 (Simulation time: 01 hr 23 min 48 sec)
Heartbeat CPU 0 instructions: 660000109 cycles: 673580331 heartbeat IPC: 1.393 cumulative IPC: 0.9798 (Simulation time: 01 hr 25 min 01 sec)
Heartbeat CPU 0 instructions: 670000109 cycles: 680761823 heartbeat IPC: 1.392 cumulative IPC: 0.9842 (Simulation time: 01 hr 26 min 05 sec)
Heartbeat CPU 0 instructions: 680000113 cycles: 688890307 heartbeat IPC: 1.23 cumulative IPC: 0.9871 (Simulation time: 01 hr 27 min 21 sec)
[ERROR_CYCLE] Error added at CPU cycle 691386422, next at 709284434, pending count: 1
[DRAM_CYCLE_ERROR] Cycle-based error applied! address=0xd9d59de00 additional_latency=173500 cycles
Heartbeat CPU 0 instructions: 690000115 cycles: 697159458 heartbeat IPC: 1.209 cumulative IPC: 0.9897 (Simulation time: 01 hr 28 min 31 sec)
Heartbeat CPU 0 instructions: 700000115 cycles: 704287206 heartbeat IPC: 1.403 cumulative IPC: 0.9939 (Simulation time: 01 hr 29 min 30 sec)
[ERROR_CYCLE] Error added at CPU cycle 709284434, next at 766174217, pending count: 1
[DRAM_CYCLE_ERROR] Cycle-based error applied! address=0x3aa10c6c0 additional_latency=173500 cycles
Heartbeat CPU 0 instructions: 710000117 cycles: 712232765 heartbeat IPC: 1.259 cumulative IPC: 0.9969 (Simulation time: 01 hr 30 min 37 sec)
Heartbeat CPU 0 instructions: 720000118 cycles: 722109872 heartbeat IPC: 1.012 cumulative IPC: 0.9971 (Simulation time: 01 hr 32 min 03 sec)
Heartbeat CPU 0 instructions: 730000120 cycles: 731634511 heartbeat IPC: 1.05 cumulative IPC: 0.9978 (Simulation time: 01 hr 33 min 38 sec)
Heartbeat CPU 0 instructions: 740000123 cycles: 741145267 heartbeat IPC: 1.051 cumulative IPC: 0.9985 (Simulation time: 01 hr 35 min 14 sec)
Heartbeat CPU 0 instructions: 750000124 cycles: 750676847 heartbeat IPC: 1.049 cumulative IPC: 0.9991 (Simulation time: 01 hr 36 min 50 sec)
Heartbeat CPU 0 instructions: 760000124 cycles: 760216844 heartbeat IPC: 1.048 cumulative IPC: 0.9997 (Simulation time: 01 hr 38 min 26 sec)
[ERROR_CYCLE] Error added at CPU cycle 766174218, next at 851568605, pending count: 1
[DRAM_CYCLE_ERROR] Cycle-based error applied! address=0xf4bf0f040 additional_latency=173500 cycles
Heartbeat CPU 0 instructions: 770000125 cycles: 770048976 heartbeat IPC: 1.017 cumulative IPC: 0.9999 (Simulation time: 01 hr 40 min 00 sec)
Heartbeat CPU 0 instructions: 780000128 cycles: 779432457 heartbeat IPC: 1.066 cumulative IPC: 1.001 (Simulation time: 01 hr 41 min 32 sec)
Heartbeat CPU 0 instructions: 790000129 cycles: 789013024 heartbeat IPC: 1.044 cumulative IPC: 1.001 (Simulation time: 01 hr 43 min 04 sec)
Heartbeat CPU 0 instructions: 800000130 cycles: 798677625 heartbeat IPC: 1.035 cumulative IPC: 1.002 (Simulation time: 01 hr 44 min 43 sec)
Heartbeat CPU 0 instructions: 810000131 cycles: 808376195 heartbeat IPC: 1.031 cumulative IPC: 1.002 (Simulation time: 01 hr 46 min 21 sec)
Heartbeat CPU 0 instructions: 820000134 cycles: 817944940 heartbeat IPC: 1.045 cumulative IPC: 1.003 (Simulation time: 01 hr 47 min 59 sec)
Heartbeat CPU 0 instructions: 830000137 cycles: 827456886 heartbeat IPC: 1.051 cumulative IPC: 1.003 (Simulation time: 01 hr 49 min 06 sec)
Heartbeat CPU 0 instructions: 840000137 cycles: 837012995 heartbeat IPC: 1.046 cumulative IPC: 1.004 (Simulation time: 01 hr 50 min 34 sec)
Heartbeat CPU 0 instructions: 850000137 cycles: 846581713 heartbeat IPC: 1.045 cumulative IPC: 1.004 (Simulation time: 01 hr 52 min 11 sec)
[ERROR_CYCLE] Error added at CPU cycle 851568605, next at 876033762, pending count: 1
[DRAM_CYCLE_ERROR] Cycle-based error applied! address=0xfc7dc64c0 additional_latency=173500 cycles
Heartbeat CPU 0 instructions: 860000140 cycles: 856526787 heartbeat IPC: 1.006 cumulative IPC: 1.004 (Simulation time: 01 hr 53 min 40 sec)
Heartbeat CPU 0 instructions: 870000143 cycles: 865957142 heartbeat IPC: 1.06 cumulative IPC: 1.005 (Simulation time: 01 hr 54 min 45 sec)
Heartbeat CPU 0 instructions: 880000147 cycles: 875506213 heartbeat IPC: 1.047 cumulative IPC: 1.005 (Simulation time: 01 hr 55 min 58 sec)
[ERROR_CYCLE] Error added at CPU cycle 876033763, next at 1053629556, pending count: 1
[DRAM_CYCLE_ERROR] Cycle-based error applied! address=0xa4445f400 additional_latency=173500 cycles
Heartbeat CPU 0 instructions: 890000150 cycles: 885116558 heartbeat IPC: 1.041 cumulative IPC: 1.006 (Simulation time: 01 hr 57 min 19 sec)
Heartbeat CPU 0 instructions: 900000150 cycles: 894872494 heartbeat IPC: 1.025 cumulative IPC: 1.006 (Simulation time: 01 hr 58 min 53 sec)
Heartbeat CPU 0 instructions: 910000153 cycles: 904478155 heartbeat IPC: 1.041 cumulative IPC: 1.006 (Simulation time: 02 hr 00 min 18 sec)
Heartbeat CPU 0 instructions: 920000154 cycles: 913995745 heartbeat IPC: 1.051 cumulative IPC: 1.007 (Simulation time: 02 hr 01 min 33 sec)
Heartbeat CPU 0 instructions: 930000155 cycles: 923590107 heartbeat IPC: 1.042 cumulative IPC: 1.007 (Simulation time: 02 hr 03 min 04 sec)
Heartbeat CPU 0 instructions: 940000156 cycles: 933077180 heartbeat IPC: 1.054 cumulative IPC: 1.007 (Simulation time: 02 hr 04 min 38 sec)
Heartbeat CPU 0 instructions: 950000156 cycles: 942953367 heartbeat IPC: 1.013 cumulative IPC: 1.007 (Simulation time: 02 hr 06 min 15 sec)
Heartbeat CPU 0 instructions: 960000158 cycles: 952420230 heartbeat IPC: 1.056 cumulative IPC: 1.008 (Simulation time: 02 hr 07 min 49 sec)
Heartbeat CPU 0 instructions: 970000161 cycles: 961985321 heartbeat IPC: 1.045 cumulative IPC: 1.008 (Simulation time: 02 hr 09 min 24 sec)
Heartbeat CPU 0 instructions: 980000165 cycles: 971553075 heartbeat IPC: 1.045 cumulative IPC: 1.009 (Simulation time: 02 hr 10 min 55 sec)
Heartbeat CPU 0 instructions: 990000166 cycles: 981184405 heartbeat IPC: 1.038 cumulative IPC: 1.009 (Simulation time: 02 hr 12 min 23 sec)
Heartbeat CPU 0 instructions: 1000000167 cycles: 990916214 heartbeat IPC: 1.028 cumulative IPC: 1.009 (Simulation time: 02 hr 13 min 59 sec)
Heartbeat CPU 0 instructions: 1010000167 cycles: 1000403371 heartbeat IPC: 1.054 cumulative IPC: 1.01 (Simulation time: 02 hr 15 min 28 sec)
Heartbeat CPU 0 instructions: 1020000167 cycles: 1009961794 heartbeat IPC: 1.046 cumulative IPC: 1.01 (Simulation time: 02 hr 16 min 59 sec)
Heartbeat CPU 0 instructions: 1030000169 cycles: 1019459352 heartbeat IPC: 1.053 cumulative IPC: 1.01 (Simulation time: 02 hr 18 min 31 sec)
Heartbeat CPU 0 instructions: 1040000169 cycles: 1029223967 heartbeat IPC: 1.024 cumulative IPC: 1.01 (Simulation time: 02 hr 20 min 05 sec)
Heartbeat CPU 0 instructions: 1050000173 cycles: 1038722468 heartbeat IPC: 1.053 cumulative IPC: 1.011 (Simulation time: 02 hr 21 min 40 sec)
Heartbeat CPU 0 instructions: 1060000177 cycles: 1048271504 heartbeat IPC: 1.047 cumulative IPC: 1.011 (Simulation time: 02 hr 23 min 15 sec)
[ERROR_CYCLE] Error added at CPU cycle 1053629556, next at 1089231385, pending count: 1
[DRAM_CYCLE_ERROR] Cycle-based error applied! address=0x625ec4340 additional_latency=173500 cycles
Heartbeat CPU 0 instructions: 1070000180 cycles: 1057821111 heartbeat IPC: 1.047 cumulative IPC: 1.012 (Simulation time: 02 hr 24 min 49 sec)
Heartbeat CPU 0 instructions: 1080000181 cycles: 1067440328 heartbeat IPC: 1.04 cumulative IPC: 1.012 (Simulation time: 02 hr 26 min 25 sec)
Heartbeat CPU 0 instructions: 1090000181 cycles: 1077231867 heartbeat IPC: 1.021 cumulative IPC: 1.012 (Simulation time: 02 hr 28 min 03 sec)
Heartbeat CPU 0 instructions: 1100000181 cycles: 1086650167 heartbeat IPC: 1.062 cumulative IPC: 1.012 (Simulation time: 02 hr 29 min 36 sec)
[ERROR_CYCLE] Error added at CPU cycle 1089231385, next at 1133989996, pending count: 1
[DRAM_CYCLE_ERROR] Cycle-based error applied! address=0xdf3fcf840 additional_latency=173500 cycles
Heartbeat CPU 0 instructions: 1110000181 cycles: 1096146870 heartbeat IPC: 1.053 cumulative IPC: 1.013 (Simulation time: 02 hr 31 min 09 sec)
Heartbeat CPU 0 instructions: 1120000185 cycles: 1105720631 heartbeat IPC: 1.045 cumulative IPC: 1.013 (Simulation time: 02 hr 32 min 39 sec)
Heartbeat CPU 0 instructions: 1130000185 cycles: 1115380971 heartbeat IPC: 1.035 cumulative IPC: 1.013 (Simulation time: 02 hr 34 min 12 sec)
Heartbeat CPU 0 instructions: 1140000189 cycles: 1124968246 heartbeat IPC: 1.043 cumulative IPC: 1.013 (Simulation time: 02 hr 35 min 40 sec)
[ERROR_CYCLE] Error added at CPU cycle 1133989996, next at 1337518358, pending count: 1
[DRAM_CYCLE_ERROR] Cycle-based error applied! address=0x68205bac0 additional_latency=173500 cycles
Heartbeat CPU 0 instructions: 1150000189 cycles: 1134573730 heartbeat IPC: 1.041 cumulative IPC: 1.014 (Simulation time: 02 hr 36 min 56 sec)
Heartbeat CPU 0 instructions: 1160000190 cycles: 1144130042 heartbeat IPC: 1.046 cumulative IPC: 1.014 (Simulation time: 02 hr 38 min 16 sec)
Heartbeat CPU 0 instructions: 1170000194 cycles: 1153695118 heartbeat IPC: 1.045 cumulative IPC: 1.014 (Simulation time: 02 hr 39 min 47 sec)
Heartbeat CPU 0 instructions: 1180000194 cycles: 1163599160 heartbeat IPC: 1.01 cumulative IPC: 1.014 (Simulation time: 02 hr 41 min 20 sec)
Heartbeat CPU 0 instructions: 1190000194 cycles: 1172997083 heartbeat IPC: 1.064 cumulative IPC: 1.014 (Simulation time: 02 hr 42 min 50 sec)
Heartbeat CPU 0 instructions: 1200000196 cycles: 1182518185 heartbeat IPC: 1.05 cumulative IPC: 1.015 (Simulation time: 02 hr 44 min 19 sec)
Heartbeat CPU 0 instructions: 1210000197 cycles: 1192077677 heartbeat IPC: 1.046 cumulative IPC: 1.015 (Simulation time: 02 hr 45 min 55 sec)
Heartbeat CPU 0 instructions: 1220000197 cycles: 1201695574 heartbeat IPC: 1.04 cumulative IPC: 1.015 (Simulation time: 02 hr 47 min 24 sec)
Heartbeat CPU 0 instructions: 1230000198 cycles: 1211303720 heartbeat IPC: 1.041 cumulative IPC: 1.015 (Simulation time: 02 hr 48 min 33 sec)
Heartbeat CPU 0 instructions: 1240000198 cycles: 1220844750 heartbeat IPC: 1.048 cumulative IPC: 1.016 (Simulation time: 02 hr 50 min 08 sec)
Heartbeat CPU 0 instructions: 1250000201 cycles: 1230382366 heartbeat IPC: 1.048 cumulative IPC: 1.016 (Simulation time: 02 hr 51 min 31 sec)
Heartbeat CPU 0 instructions: 1260000201 cycles: 1239973482 heartbeat IPC: 1.043 cumulative IPC: 1.016 (Simulation time: 02 hr 52 min 53 sec)
Heartbeat CPU 0 instructions: 1270000204 cycles: 1249851744 heartbeat IPC: 1.012 cumulative IPC: 1.016 (Simulation time: 02 hr 54 min 31 sec)
Heartbeat CPU 0 instructions: 1280000204 cycles: 1259364482 heartbeat IPC: 1.051 cumulative IPC: 1.016 (Simulation time: 02 hr 56 min 03 sec)
Heartbeat CPU 0 instructions: 1290000208 cycles: 1268933117 heartbeat IPC: 1.045 cumulative IPC: 1.017 (Simulation time: 02 hr 57 min 24 sec)
Heartbeat CPU 0 instructions: 1300000209 cycles: 1278469461 heartbeat IPC: 1.049 cumulative IPC: 1.017 (Simulation time: 02 hr 58 min 59 sec)
Heartbeat CPU 0 instructions: 1310000212 cycles: 1288052661 heartbeat IPC: 1.043 cumulative IPC: 1.017 (Simulation time: 03 hr 00 min 36 sec)
Heartbeat CPU 0 instructions: 1320000212 cycles: 1297723998 heartbeat IPC: 1.034 cumulative IPC: 1.017 (Simulation time: 03 hr 02 min 13 sec)
Heartbeat CPU 0 instructions: 1330000214 cycles: 1307212403 heartbeat IPC: 1.054 cumulative IPC: 1.017 (Simulation time: 03 hr 03 min 26 sec)
Heartbeat CPU 0 instructions: 1340000214 cycles: 1316807014 heartbeat IPC: 1.042 cumulative IPC: 1.018 (Simulation time: 03 hr 04 min 37 sec)
Heartbeat CPU 0 instructions: 1350000216 cycles: 1326336545 heartbeat IPC: 1.049 cumulative IPC: 1.018 (Simulation time: 03 hr 05 min 47 sec)
Heartbeat CPU 0 instructions: 1360000216 cycles: 1336160521 heartbeat IPC: 1.018 cumulative IPC: 1.018 (Simulation time: 03 hr 07 min 08 sec)
[ERROR_CYCLE] Error added at CPU cycle 1337518359, next at 1338743607, pending count: 1
[DRAM_CYCLE_ERROR] Cycle-based error applied! address=0xfc183b180 additional_latency=173500 cycles
[ERROR_CYCLE] Error added at CPU cycle 1338743607, next at 1451238650, pending count: 1
[DRAM_CYCLE_ERROR] Cycle-based error applied! address=0x2b8b90900 additional_latency=173500 cycles
Heartbeat CPU 0 instructions: 1370000219 cycles: 1345743123 heartbeat IPC: 1.044 cumulative IPC: 1.018 (Simulation time: 03 hr 08 min 12 sec)
Heartbeat CPU 0 instructions: 1380000221 cycles: 1355296661 heartbeat IPC: 1.047 cumulative IPC: 1.018 (Simulation time: 03 hr 09 min 15 sec)
Heartbeat CPU 0 instructions: 1390000225 cycles: 1364856098 heartbeat IPC: 1.046 cumulative IPC: 1.018 (Simulation time: 03 hr 10 min 18 sec)
Heartbeat CPU 0 instructions: 1400000226 cycles: 1374439740 heartbeat IPC: 1.043 cumulative IPC: 1.019 (Simulation time: 03 hr 11 min 24 sec)
Heartbeat CPU 0 instructions: 1410000229 cycles: 1384245160 heartbeat IPC: 1.02 cumulative IPC: 1.019 (Simulation time: 03 hr 12 min 31 sec)
Heartbeat CPU 0 instructions: 1420000230 cycles: 1393657023 heartbeat IPC: 1.062 cumulative IPC: 1.019 (Simulation time: 03 hr 13 min 44 sec)
Heartbeat CPU 0 instructions: 1430000232 cycles: 1403160924 heartbeat IPC: 1.052 cumulative IPC: 1.019 (Simulation time: 03 hr 15 min 09 sec)
Heartbeat CPU 0 instructions: 1440000233 cycles: 1412780222 heartbeat IPC: 1.04 cumulative IPC: 1.019 (Simulation time: 03 hr 16 min 44 sec)
Heartbeat CPU 0 instructions: 1450000236 cycles: 1419827037 heartbeat IPC: 1.419 cumulative IPC: 1.021 (Simulation time: 03 hr 17 min 48 sec)
Heartbeat CPU 0 instructions: 1460000237 cycles: 1426964849 heartbeat IPC: 1.401 cumulative IPC: 1.023 (Simulation time: 03 hr 18 min 40 sec)
Heartbeat CPU 0 instructions: 1470000238 cycles: 1434067788 heartbeat IPC: 1.408 cumulative IPC: 1.025 (Simulation time: 03 hr 19 min 47 sec)
Heartbeat CPU 0 instructions: 1480000242 cycles: 1441165202 heartbeat IPC: 1.409 cumulative IPC: 1.027 (Simulation time: 03 hr 21 min 02 sec)
Heartbeat CPU 0 instructions: 1490000244 cycles: 1448251744 heartbeat IPC: 1.411 cumulative IPC: 1.029 (Simulation time: 03 hr 22 min 16 sec)
[ERROR_CYCLE] Error added at CPU cycle 1451238650, next at 1516871150, pending count: 1
[DRAM_CYCLE_ERROR] Cycle-based error applied! address=0x473ffdbf8 additional_latency=173500 cycles
Heartbeat CPU 0 instructions: 1500000244 cycles: 1455345177 heartbeat IPC: 1.41 cumulative IPC: 1.031 (Simulation time: 03 hr 23 min 30 sec)
Heartbeat CPU 0 instructions: 1510000244 cycles: 1462446616 heartbeat IPC: 1.408 cumulative IPC: 1.033 (Simulation time: 03 hr 24 min 26 sec)
Heartbeat CPU 0 instructions: 1520000248 cycles: 1469524369 heartbeat IPC: 1.413 cumulative IPC: 1.034 (Simulation time: 03 hr 25 min 29 sec)
Heartbeat CPU 0 instructions: 1530000248 cycles: 1476626221 heartbeat IPC: 1.408 cumulative IPC: 1.036 (Simulation time: 03 hr 26 min 32 sec)
Heartbeat CPU 0 instructions: 1540000248 cycles: 1483701981 heartbeat IPC: 1.413 cumulative IPC: 1.038 (Simulation time: 03 hr 27 min 40 sec)
Heartbeat CPU 0 instructions: 1550000251 cycles: 1490861528 heartbeat IPC: 1.397 cumulative IPC: 1.04 (Simulation time: 03 hr 28 min 56 sec)
Heartbeat CPU 0 instructions: 1560000252 cycles: 1497916678 heartbeat IPC: 1.417 cumulative IPC: 1.041 (Simulation time: 03 hr 30 min 11 sec)
Heartbeat CPU 0 instructions: 1570000253 cycles: 1504836338 heartbeat IPC: 1.445 cumulative IPC: 1.043 (Simulation time: 03 hr 31 min 26 sec)
Heartbeat CPU 0 instructions: 1580000256 cycles: 1511469552 heartbeat IPC: 1.508 cumulative IPC: 1.045 (Simulation time: 03 hr 32 min 39 sec)
[ERROR_CYCLE] Error added at CPU cycle 1516871150, next at 1895264846, pending count: 1
[DRAM_CYCLE_ERROR] Cycle-based error applied! address=0xeb05d580 additional_latency=173500 cycles
Heartbeat CPU 0 instructions: 1590000256 cycles: 1518443123 heartbeat IPC: 1.434 cumulative IPC: 1.047 (Simulation time: 03 hr 33 min 55 sec)
Heartbeat CPU 0 instructions: 1600000256 cycles: 1525463151 heartbeat IPC: 1.424 cumulative IPC: 1.049 (Simulation time: 03 hr 35 min 11 sec)
Heartbeat CPU 0 instructions: 1610000260 cycles: 1532563277 heartbeat IPC: 1.408 cumulative IPC: 1.051 (Simulation time: 03 hr 36 min 27 sec)
Heartbeat CPU 0 instructions: 1620000261 cycles: 1539620888 heartbeat IPC: 1.417 cumulative IPC: 1.052 (Simulation time: 03 hr 37 min 43 sec)
Heartbeat CPU 0 instructions: 1630000262 cycles: 1546731502 heartbeat IPC: 1.406 cumulative IPC: 1.054 (Simulation time: 03 hr 39 min 00 sec)
Heartbeat CPU 0 instructions: 1640000266 cycles: 1553794003 heartbeat IPC: 1.416 cumulative IPC: 1.055 (Simulation time: 03 hr 40 min 12 sec)
Heartbeat CPU 0 instructions: 1650000268 cycles: 1560861320 heartbeat IPC: 1.415 cumulative IPC: 1.057 (Simulation time: 03 hr 41 min 23 sec)
Heartbeat CPU 0 instructions: 1660000268 cycles: 1567963043 heartbeat IPC: 1.408 cumulative IPC: 1.059 (Simulation time: 03 hr 42 min 38 sec)
Heartbeat CPU 0 instructions: 1670000268 cycles: 1575051831 heartbeat IPC: 1.411 cumulative IPC: 1.06 (Simulation time: 03 hr 43 min 53 sec)
Heartbeat CPU 0 instructions: 1680000269 cycles: 1582182756 heartbeat IPC: 1.402 cumulative IPC: 1.062 (Simulation time: 03 hr 44 min 55 sec)
Heartbeat CPU 0 instructions: 1690000271 cycles: 1589225507 heartbeat IPC: 1.42 cumulative IPC: 1.063 (Simulation time: 03 hr 45 min 52 sec)
Heartbeat CPU 0 instructions: 1700000271 cycles: 1596318148 heartbeat IPC: 1.41 cumulative IPC: 1.065 (Simulation time: 03 hr 47 min 04 sec)
Heartbeat CPU 0 instructions: 1710000272 cycles: 1603363697 heartbeat IPC: 1.419 cumulative IPC: 1.067 (Simulation time: 03 hr 48 min 19 sec)
Heartbeat CPU 0 instructions: 1720000274 cycles: 1610226214 heartbeat IPC: 1.457 cumulative IPC: 1.068 (Simulation time: 03 hr 49 min 33 sec)
Heartbeat CPU 0 instructions: 1730000275 cycles: 1616872127 heartbeat IPC: 1.505 cumulative IPC: 1.07 (Simulation time: 03 hr 50 min 46 sec)
Heartbeat CPU 0 instructions: 1740000275 cycles: 1624025379 heartbeat IPC: 1.398 cumulative IPC: 1.071 (Simulation time: 03 hr 51 min 59 sec)
Heartbeat CPU 0 instructions: 1750000278 cycles: 1631089166 heartbeat IPC: 1.416 cumulative IPC: 1.073 (Simulation time: 03 hr 53 min 15 sec)
Heartbeat CPU 0 instructions: 1760000282 cycles: 1638183857 heartbeat IPC: 1.41 cumulative IPC: 1.074 (Simulation time: 03 hr 54 min 31 sec)
Heartbeat CPU 0 instructions: 1770000283 cycles: 1645235853 heartbeat IPC: 1.418 cumulative IPC: 1.076 (Simulation time: 03 hr 55 min 43 sec)
Heartbeat CPU 0 instructions: 1780000286 cycles: 1652309932 heartbeat IPC: 1.414 cumulative IPC: 1.077 (Simulation time: 03 hr 56 min 40 sec)
Heartbeat CPU 0 instructions: 1790000286 cycles: 1659401664 heartbeat IPC: 1.41 cumulative IPC: 1.079 (Simulation time: 03 hr 57 min 39 sec)
Heartbeat CPU 0 instructions: 1800000287 cycles: 1666500009 heartbeat IPC: 1.409 cumulative IPC: 1.08 (Simulation time: 03 hr 58 min 30 sec)
Heartbeat CPU 0 instructions: 1810000287 cycles: 1673600260 heartbeat IPC: 1.408 cumulative IPC: 1.082 (Simulation time: 03 hr 59 min 33 sec)
Heartbeat CPU 0 instructions: 1820000290 cycles: 1680672924 heartbeat IPC: 1.414 cumulative IPC: 1.083 (Simulation time: 04 hr 00 min 45 sec)
Heartbeat CPU 0 instructions: 1830000292 cycles: 1687758730 heartbeat IPC: 1.411 cumulative IPC: 1.084 (Simulation time: 04 hr 02 min 01 sec)
Heartbeat CPU 0 instructions: 1840000293 cycles: 1694831675 heartbeat IPC: 1.414 cumulative IPC: 1.086 (Simulation time: 04 hr 03 min 16 sec)
Heartbeat CPU 0 instructions: 1850000295 cycles: 1701988280 heartbeat IPC: 1.397 cumulative IPC: 1.087 (Simulation time: 04 hr 04 min 33 sec)
Heartbeat CPU 0 instructions: 1860000295 cycles: 1709010085 heartbeat IPC: 1.424 cumulative IPC: 1.088 (Simulation time: 04 hr 05 min 48 sec)
Heartbeat CPU 0 instructions: 1870000297 cycles: 1715654731 heartbeat IPC: 1.505 cumulative IPC: 1.09 (Simulation time: 04 hr 07 min 00 sec)
Heartbeat CPU 0 instructions: 1880000300 cycles: 1722459061 heartbeat IPC: 1.47 cumulative IPC: 1.091 (Simulation time: 04 hr 08 min 14 sec)
Heartbeat CPU 0 instructions: 1890000301 cycles: 1729530543 heartbeat IPC: 1.414 cumulative IPC: 1.093 (Simulation time: 04 hr 09 min 30 sec)
Heartbeat CPU 0 instructions: 1900000301 cycles: 1736647544 heartbeat IPC: 1.405 cumulative IPC: 1.094 (Simulation time: 04 hr 10 min 46 sec)
Heartbeat CPU 0 instructions: 1910000302 cycles: 1743756371 heartbeat IPC: 1.407 cumulative IPC: 1.095 (Simulation time: 04 hr 12 min 02 sec)
Heartbeat CPU 0 instructions: 1920000303 cycles: 1750884332 heartbeat IPC: 1.403 cumulative IPC: 1.097 (Simulation time: 04 hr 13 min 18 sec)
Heartbeat CPU 0 instructions: 1930000307 cycles: 1757966787 heartbeat IPC: 1.412 cumulative IPC: 1.098 (Simulation time: 04 hr 14 min 29 sec)
Heartbeat CPU 0 instructions: 1940000308 cycles: 1765072285 heartbeat IPC: 1.407 cumulative IPC: 1.099 (Simulation time: 04 hr 15 min 33 sec)
Heartbeat CPU 0 instructions: 1950000308 cycles: 1772136979 heartbeat IPC: 1.415 cumulative IPC: 1.1 (Simulation time: 04 hr 16 min 46 sec)
Heartbeat CPU 0 instructions: 1960000310 cycles: 1779234423 heartbeat IPC: 1.409 cumulative IPC: 1.102 (Simulation time: 04 hr 18 min 00 sec)
Heartbeat CPU 0 instructions: 1970000311 cycles: 1786300007 heartbeat IPC: 1.415 cumulative IPC: 1.103 (Simulation time: 04 hr 19 min 15 sec)
Heartbeat CPU 0 instructions: 1980000312 cycles: 1793384082 heartbeat IPC: 1.412 cumulative IPC: 1.104 (Simulation time: 04 hr 20 min 30 sec)
Heartbeat CPU 0 instructions: 1990000313 cycles: 1800457560 heartbeat IPC: 1.414 cumulative IPC: 1.105 (Simulation time: 04 hr 21 min 45 sec)

=== ERROR PAGE STATISTICS ===
Mode: CYCLE
Error Cycle Interval: 100000000 CPU cycles
Total Error Accesses: 17
==============================
Simulation finished CPU 0 instructions: 1999999509 cycles: 1807548792 cumulative IPC: 1.106 (Simulation time: 04 hr 23 min 00 sec)
Simulation complete CPU 0 instructions: 1999999509 cycles: 1807548792 cumulative IPC: 1.106 (Simulation time: 04 hr 23 min 00 sec)

ChampSim completed all CPUs

=== Simulation ===
CPU 0 runs test_traces/654.roms_s-1007B.champsimtrace.xz

Region of Interest Statistics

CPU 0 cumulative IPC: 1.106 instructions: 1999999509 cycles: 1807548792
CPU 0 Branch Prediction Accuracy: 95.85% MPKI: 3.086 Average ROB Occupancy at Mispredict: 45.58
Branch type MPKI
BRANCH_DIRECT_JUMP: 9.8e-05
BRANCH_INDIRECT: 6e-06
BRANCH_CONDITIONAL: 1.593
BRANCH_DIRECT_CALL: 3.65e-05
BRANCH_INDIRECT_CALL: 0
BRANCH_RETURN: 1.493

cpu0->cpu0_STLB TOTAL        ACCESS:   68477024 HIT:   68268343 MISS:     208681 MSHR_MERGE:          0
cpu0->cpu0_STLB LOAD         ACCESS:   68477024 HIT:   68268343 MISS:     208681 MSHR_MERGE:          0
cpu0->cpu0_STLB RFO          ACCESS:          0 HIT:          0 MISS:          0 MSHR_MERGE:          0
cpu0->cpu0_STLB PREFETCH     ACCESS:          0 HIT:          0 MISS:          0 MSHR_MERGE:          0
cpu0->cpu0_STLB WRITE        ACCESS:          0 HIT:          0 MISS:          0 MSHR_MERGE:          0
cpu0->cpu0_STLB TRANSLATION  ACCESS:          0 HIT:          0 MISS:          0 MSHR_MERGE:          0
cpu0->cpu0_STLB PREFETCH REQUESTED:          0 ISSUED:          0 USEFUL:          0 USELESS:          0
cpu0->cpu0_STLB AVERAGE MISS LATENCY: 552.6 cycles
cpu0->cpu0_L2C TOTAL        ACCESS:   35192827 HIT:   15873597 MISS:   19319230 MSHR_MERGE:          0
cpu0->cpu0_L2C LOAD         ACCESS:   22568644 HIT:    7677886 MISS:   14890758 MSHR_MERGE:          0
cpu0->cpu0_L2C RFO          ACCESS:    5289572 HIT:     866925 MISS:    4422647 MSHR_MERGE:          0
cpu0->cpu0_L2C PREFETCH     ACCESS:          0 HIT:          0 MISS:          0 MSHR_MERGE:          0
cpu0->cpu0_L2C WRITE        ACCESS:    7334611 HIT:    7328786 MISS:       5825 MSHR_MERGE:          0
cpu0->cpu0_L2C TRANSLATION  ACCESS:          0 HIT:          0 MISS:          0 MSHR_MERGE:          0
cpu0->cpu0_L2C PREFETCH REQUESTED:          0 ISSUED:          0 USEFUL:          0 USELESS:          0
cpu0->cpu0_L2C AVERAGE MISS LATENCY: 67.11 cycles
cpu0->cpu0_L1I TOTAL        ACCESS:  424261087 HIT:  424260490 MISS:        597 MSHR_MERGE:        184
cpu0->cpu0_L1I LOAD         ACCESS:  424261087 HIT:  424260490 MISS:        597 MSHR_MERGE:        184
cpu0->cpu0_L1I RFO          ACCESS:          0 HIT:          0 MISS:          0 MSHR_MERGE:          0
cpu0->cpu0_L1I PREFETCH     ACCESS:          0 HIT:          0 MISS:          0 MSHR_MERGE:          0
cpu0->cpu0_L1I WRITE        ACCESS:          0 HIT:          0 MISS:          0 MSHR_MERGE:          0
cpu0->cpu0_L1I TRANSLATION  ACCESS:          0 HIT:          0 MISS:          0 MSHR_MERGE:          0
cpu0->cpu0_L1I PREFETCH REQUESTED:          0 ISSUED:          0 USEFUL:          0 USELESS:          0
cpu0->cpu0_L1I AVERAGE MISS LATENCY: 133.8 cycles
cpu0->cpu0_L1D TOTAL        ACCESS:  764712862 HIT:  726279411 MISS:   38433451 MSHR_MERGE:   10575191
cpu0->cpu0_L1D LOAD         ACCESS:  582456801 HIT:  553354033 MISS:   29102768 MSHR_MERGE:    6534535
cpu0->cpu0_L1D RFO          ACCESS:          0 HIT:          0 MISS:          0 MSHR_MERGE:          0
cpu0->cpu0_L1D PREFETCH     ACCESS:          0 HIT:          0 MISS:          0 MSHR_MERGE:          0
cpu0->cpu0_L1D WRITE        ACCESS:  182256061 HIT:  172925378 MISS:    9330683 MSHR_MERGE:    4040656
cpu0->cpu0_L1D TRANSLATION  ACCESS:          0 HIT:          0 MISS:          0 MSHR_MERGE:          0
cpu0->cpu0_L1D PREFETCH REQUESTED:          0 ISSUED:          0 USEFUL:          0 USELESS:          0
cpu0->cpu0_L1D AVERAGE MISS LATENCY: 55.27 cycles
cpu0->cpu0_ITLB TOTAL        ACCESS:  369316988 HIT:  369316931 MISS:         57 MSHR_MERGE:         31
cpu0->cpu0_ITLB LOAD         ACCESS:  369316988 HIT:  369316931 MISS:         57 MSHR_MERGE:         31
cpu0->cpu0_ITLB RFO          ACCESS:          0 HIT:          0 MISS:          0 MSHR_MERGE:          0
cpu0->cpu0_ITLB PREFETCH     ACCESS:          0 HIT:          0 MISS:          0 MSHR_MERGE:          0
cpu0->cpu0_ITLB WRITE        ACCESS:          0 HIT:          0 MISS:          0 MSHR_MERGE:          0
cpu0->cpu0_ITLB TRANSLATION  ACCESS:          0 HIT:          0 MISS:          0 MSHR_MERGE:          0
cpu0->cpu0_ITLB PREFETCH REQUESTED:          0 ISSUED:          0 USEFUL:          0 USELESS:          0
cpu0->cpu0_ITLB AVERAGE MISS LATENCY: 618.1 cycles
cpu0->cpu0_DTLB TOTAL        ACCESS:  678195799 HIT:  609330656 MISS:   68865143 MSHR_MERGE:     388145
cpu0->cpu0_DTLB LOAD         ACCESS:  678195799 HIT:  609330656 MISS:   68865143 MSHR_MERGE:     388145
cpu0->cpu0_DTLB RFO          ACCESS:          0 HIT:          0 MISS:          0 MSHR_MERGE:          0
cpu0->cpu0_DTLB PREFETCH     ACCESS:          0 HIT:          0 MISS:          0 MSHR_MERGE:          0
cpu0->cpu0_DTLB WRITE        ACCESS:          0 HIT:          0 MISS:          0 MSHR_MERGE:          0
cpu0->cpu0_DTLB TRANSLATION  ACCESS:          0 HIT:          0 MISS:          0 MSHR_MERGE:          0
cpu0->cpu0_DTLB PREFETCH REQUESTED:          0 ISSUED:          0 USEFUL:          0 USELESS:          0
cpu0->cpu0_DTLB AVERAGE MISS LATENCY: 6.744 cycles
cpu0->LLC TOTAL        ACCESS:   25237552 HIT:   15182572 MISS:   10054980 MSHR_MERGE:          0
cpu0->LLC LOAD         ACCESS:   14890758 HIT:    6848922 MISS:    8041836 MSHR_MERGE:          0
cpu0->LLC RFO          ACCESS:    4422647 HIT:    2414761 MISS:    2007886 MSHR_MERGE:          0
cpu0->LLC PREFETCH     ACCESS:          0 HIT:          0 MISS:          0 MSHR_MERGE:          0
cpu0->LLC WRITE        ACCESS:    5924147 HIT:    5918889 MISS:       5258 MSHR_MERGE:          0
cpu0->LLC TRANSLATION  ACCESS:          0 HIT:          0 MISS:          0 MSHR_MERGE:          0
cpu0->LLC PREFETCH REQUESTED:          0 ISSUED:          0 USEFUL:          0 USELESS:          0
cpu0->LLC AVERAGE MISS LATENCY: 99.13 cycles

DRAM Statistics

Channel 0 RQ ROW_BUFFER_HIT:      11709
  ROW_BUFFER_MISS:    5266564
  AVG DBUS CONGESTED CYCLE: 11.18
Channel 0 WQ ROW_BUFFER_HIT:     185678
  ROW_BUFFER_MISS:     985548
  FULL:          0
Channel 0 REFRESHES ISSUED:     150619

Channel 1 RQ ROW_BUFFER_HIT:      12954
  ROW_BUFFER_MISS:    5275002
  AVG DBUS CONGESTED CYCLE: 11.16
Channel 1 WQ ROW_BUFFER_HIT:     185449
  ROW_BUFFER_MISS:     985523
  FULL:          0
Channel 1 REFRESHES ISSUED:     150619
