[VMEM] WARNING: physical memory size is smaller than virtual memory size.

*** ChampSim Multicore Out-of-Order Simulator ***
Warmup Instructions: 0
Simulation Instructions: 9223372036854775807
Number of CPUs: 1
Page size: 4096

Off-chip DRAM Size: 32 GiB Channels: 2 Width: 32-bit Data Rate: 4807 MT/s
[ERROR_PAGE_MANAGER] Error latency: 173500 
[ERROR_PAGE_MANAGER] Random seed: 54321 (fixed for preload reproducibility)
[ERROR_PAGE_MANAGER] Cycle-based error modeling enabled
[ERROR_PAGE_MANAGER] Errors per interval: 1
[ERROR_PAGE_MANAGER] Error cycle interval: 200000000 cycles

=== ERROR PAGE STATISTICS ===
Mode: CYCLE
Error Cycle Interval: 200000000 CPU cycles
Total Error Accesses: 0
==============================
Warmup finished CPU 0 instructions: 0 cycles: 1 cumulative IPC: 0 (Simulation time: 00 hr 00 min 01 sec)
Warmup complete CPU 0 instructions: 0 cycles: 1 cumulative IPC: 0 (Simulation time: 00 hr 00 min 01 sec)
Heartbeat CPU 0 instructions: 10000003 cycles: 30922192 heartbeat IPC: 0.3234 cumulative IPC: 0.3234 (Simulation time: 00 hr 02 min 56 sec)
Heartbeat CPU 0 instructions: 20000007 cycles: 58526506 heartbeat IPC: 0.3623 cumulative IPC: 0.3417 (Simulation time: 00 hr 05 min 19 sec)
Heartbeat CPU 0 instructions: 30000008 cycles: 84229949 heartbeat IPC: 0.3891 cumulative IPC: 0.3562 (Simulation time: 00 hr 08 min 07 sec)
Heartbeat CPU 0 instructions: 40000008 cycles: 110147600 heartbeat IPC: 0.3858 cumulative IPC: 0.3631 (Simulation time: 00 hr 10 min 57 sec)
Heartbeat CPU 0 instructions: 50000008 cycles: 135551465 heartbeat IPC: 0.3936 cumulative IPC: 0.3689 (Simulation time: 00 hr 13 min 35 sec)
[ERROR_CYCLE] Error added at CPU cycle 142556113, next at 183066125, pending count: 1
[DRAM_CYCLE_ERROR] Cycle-based error applied! address=0x2498b1bc8 additional_latency=173500 cycles
Heartbeat CPU 0 instructions: 60000011 cycles: 159688897 heartbeat IPC: 0.4143 cumulative IPC: 0.3757 (Simulation time: 00 hr 16 min 02 sec)
[ERROR_CYCLE] Error added at CPU cycle 183066126, next at 513921280, pending count: 1
[DRAM_CYCLE_ERROR] Cycle-based error applied! address=0x5d40b5e08 additional_latency=173500 cycles
Heartbeat CPU 0 instructions: 70000011 cycles: 184113498 heartbeat IPC: 0.4094 cumulative IPC: 0.3802 (Simulation time: 00 hr 18 min 18 sec)
Heartbeat CPU 0 instructions: 80000012 cycles: 208215943 heartbeat IPC: 0.4149 cumulative IPC: 0.3842 (Simulation time: 00 hr 20 min 46 sec)
Heartbeat CPU 0 instructions: 90000013 cycles: 232008496 heartbeat IPC: 0.4203 cumulative IPC: 0.3879 (Simulation time: 00 hr 23 min 16 sec)
Heartbeat CPU 0 instructions: 100000016 cycles: 255569788 heartbeat IPC: 0.4244 cumulative IPC: 0.3913 (Simulation time: 00 hr 25 min 43 sec)
Heartbeat CPU 0 instructions: 110000018 cycles: 279121212 heartbeat IPC: 0.4246 cumulative IPC: 0.3941 (Simulation time: 00 hr 28 min 15 sec)
Heartbeat CPU 0 instructions: 120000018 cycles: 302561820 heartbeat IPC: 0.4266 cumulative IPC: 0.3966 (Simulation time: 00 hr 30 min 40 sec)
Heartbeat CPU 0 instructions: 130000018 cycles: 326664232 heartbeat IPC: 0.4149 cumulative IPC: 0.398 (Simulation time: 00 hr 33 min 05 sec)
Heartbeat CPU 0 instructions: 140000020 cycles: 350296285 heartbeat IPC: 0.4232 cumulative IPC: 0.3997 (Simulation time: 00 hr 35 min 31 sec)
Heartbeat CPU 0 instructions: 150000021 cycles: 374306764 heartbeat IPC: 0.4165 cumulative IPC: 0.4007 (Simulation time: 00 hr 38 min 16 sec)
Heartbeat CPU 0 instructions: 160000021 cycles: 397998940 heartbeat IPC: 0.4221 cumulative IPC: 0.402 (Simulation time: 00 hr 40 min 55 sec)
Heartbeat CPU 0 instructions: 170000021 cycles: 421506335 heartbeat IPC: 0.4254 cumulative IPC: 0.4033 (Simulation time: 00 hr 43 min 31 sec)
Heartbeat CPU 0 instructions: 180000024 cycles: 444991113 heartbeat IPC: 0.4258 cumulative IPC: 0.4045 (Simulation time: 00 hr 45 min 55 sec)
Heartbeat CPU 0 instructions: 190000028 cycles: 468328156 heartbeat IPC: 0.4285 cumulative IPC: 0.4057 (Simulation time: 00 hr 48 min 30 sec)
Heartbeat CPU 0 instructions: 200000029 cycles: 492544571 heartbeat IPC: 0.4129 cumulative IPC: 0.4061 (Simulation time: 00 hr 51 min 06 sec)
[ERROR_CYCLE] Error added at CPU cycle 513921281, next at 1069353794, pending count: 1
[DRAM_CYCLE_ERROR] Cycle-based error applied! address=0x698f43230 additional_latency=173500 cycles
Heartbeat CPU 0 instructions: 210000033 cycles: 516395093 heartbeat IPC: 0.4193 cumulative IPC: 0.4067 (Simulation time: 00 hr 53 min 38 sec)
Heartbeat CPU 0 instructions: 220000035 cycles: 540137732 heartbeat IPC: 0.4212 cumulative IPC: 0.4073 (Simulation time: 00 hr 56 min 22 sec)
Heartbeat CPU 0 instructions: 230000036 cycles: 564104534 heartbeat IPC: 0.4172 cumulative IPC: 0.4077 (Simulation time: 00 hr 59 min 06 sec)
Heartbeat CPU 0 instructions: 240000036 cycles: 588134588 heartbeat IPC: 0.4161 cumulative IPC: 0.4081 (Simulation time: 01 hr 01 min 35 sec)
Heartbeat CPU 0 instructions: 250000038 cycles: 610929199 heartbeat IPC: 0.4387 cumulative IPC: 0.4092 (Simulation time: 01 hr 03 min 19 sec)
Heartbeat CPU 0 instructions: 260000038 cycles: 634055359 heartbeat IPC: 0.4324 cumulative IPC: 0.4101 (Simulation time: 01 hr 05 min 22 sec)
Heartbeat CPU 0 instructions: 270000038 cycles: 657646573 heartbeat IPC: 0.4239 cumulative IPC: 0.4106 (Simulation time: 01 hr 07 min 56 sec)
Heartbeat CPU 0 instructions: 280000041 cycles: 682294012 heartbeat IPC: 0.4057 cumulative IPC: 0.4104 (Simulation time: 01 hr 10 min 40 sec)
Heartbeat CPU 0 instructions: 290000043 cycles: 706273883 heartbeat IPC: 0.417 cumulative IPC: 0.4106 (Simulation time: 01 hr 13 min 16 sec)
Heartbeat CPU 0 instructions: 300000044 cycles: 729210329 heartbeat IPC: 0.436 cumulative IPC: 0.4114 (Simulation time: 01 hr 15 min 56 sec)
Heartbeat CPU 0 instructions: 310000044 cycles: 753367767 heartbeat IPC: 0.414 cumulative IPC: 0.4115 (Simulation time: 01 hr 18 min 23 sec)
Heartbeat CPU 0 instructions: 320000046 cycles: 777129748 heartbeat IPC: 0.4208 cumulative IPC: 0.4118 (Simulation time: 01 hr 20 min 16 sec)
Heartbeat CPU 0 instructions: 330000046 cycles: 800667861 heartbeat IPC: 0.4248 cumulative IPC: 0.4122 (Simulation time: 01 hr 22 min 34 sec)
Heartbeat CPU 0 instructions: 340000050 cycles: 822654460 heartbeat IPC: 0.4548 cumulative IPC: 0.4133 (Simulation time: 01 hr 24 min 32 sec)
Heartbeat CPU 0 instructions: 350000050 cycles: 846095920 heartbeat IPC: 0.4266 cumulative IPC: 0.4137 (Simulation time: 01 hr 27 min 08 sec)
Heartbeat CPU 0 instructions: 360000051 cycles: 868959364 heartbeat IPC: 0.4374 cumulative IPC: 0.4143 (Simulation time: 01 hr 29 min 40 sec)
Heartbeat CPU 0 instructions: 370000052 cycles: 892118077 heartbeat IPC: 0.4318 cumulative IPC: 0.4147 (Simulation time: 01 hr 32 min 14 sec)
Heartbeat CPU 0 instructions: 380000054 cycles: 915081722 heartbeat IPC: 0.4355 cumulative IPC: 0.4153 (Simulation time: 01 hr 34 min 52 sec)
Heartbeat CPU 0 instructions: 390000058 cycles: 938047620 heartbeat IPC: 0.4354 cumulative IPC: 0.4158 (Simulation time: 01 hr 37 min 20 sec)
Heartbeat CPU 0 instructions: 400000059 cycles: 961071301 heartbeat IPC: 0.4343 cumulative IPC: 0.4162 (Simulation time: 01 hr 39 min 46 sec)
Heartbeat CPU 0 instructions: 410000059 cycles: 984018085 heartbeat IPC: 0.4358 cumulative IPC: 0.4167 (Simulation time: 01 hr 42 min 06 sec)
Heartbeat CPU 0 instructions: 420000062 cycles: 1007446116 heartbeat IPC: 0.4268 cumulative IPC: 0.4169 (Simulation time: 01 hr 44 min 37 sec)
Heartbeat CPU 0 instructions: 430000065 cycles: 1030841953 heartbeat IPC: 0.4274 cumulative IPC: 0.4171 (Simulation time: 01 hr 46 min 55 sec)
Heartbeat CPU 0 instructions: 440000068 cycles: 1054492795 heartbeat IPC: 0.4228 cumulative IPC: 0.4173 (Simulation time: 01 hr 49 min 13 sec)
[ERROR_CYCLE] Error added at CPU cycle 1069353795, next at 1075364498, pending count: 1
[DRAM_CYCLE_ERROR] Cycle-based error applied! address=0x58f3df104 additional_latency=173500 cycles
[ERROR_CYCLE] Error added at CPU cycle 1075364499, next at 1382772839, pending count: 1
[DRAM_CYCLE_ERROR] Cycle-based error applied! address=0x1c8d56398 additional_latency=173500 cycles
Heartbeat CPU 0 instructions: 450000068 cycles: 1078138896 heartbeat IPC: 0.4229 cumulative IPC: 0.4174 (Simulation time: 01 hr 51 min 49 sec)
Heartbeat CPU 0 instructions: 460000068 cycles: 1101414682 heartbeat IPC: 0.4296 cumulative IPC: 0.4176 (Simulation time: 01 hr 54 min 25 sec)
Heartbeat CPU 0 instructions: 470000068 cycles: 1124744180 heartbeat IPC: 0.4286 cumulative IPC: 0.4179 (Simulation time: 01 hr 56 min 29 sec)
Heartbeat CPU 0 instructions: 480000068 cycles: 1148122346 heartbeat IPC: 0.4277 cumulative IPC: 0.4181 (Simulation time: 01 hr 58 min 55 sec)
Heartbeat CPU 0 instructions: 490000071 cycles: 1172968658 heartbeat IPC: 0.4025 cumulative IPC: 0.4177 (Simulation time: 02 hr 01 min 45 sec)
Heartbeat CPU 0 instructions: 500000071 cycles: 1196131634 heartbeat IPC: 0.4317 cumulative IPC: 0.418 (Simulation time: 02 hr 04 min 05 sec)
Heartbeat CPU 0 instructions: 510000075 cycles: 1220092997 heartbeat IPC: 0.4173 cumulative IPC: 0.418 (Simulation time: 02 hr 06 min 21 sec)
Heartbeat CPU 0 instructions: 520000078 cycles: 1243739431 heartbeat IPC: 0.4229 cumulative IPC: 0.4181 (Simulation time: 02 hr 08 min 47 sec)
Heartbeat CPU 0 instructions: 530000080 cycles: 1267112450 heartbeat IPC: 0.4278 cumulative IPC: 0.4183 (Simulation time: 02 hr 11 min 01 sec)
Heartbeat CPU 0 instructions: 540000080 cycles: 1291445351 heartbeat IPC: 0.411 cumulative IPC: 0.4181 (Simulation time: 02 hr 13 min 08 sec)
Heartbeat CPU 0 instructions: 550000081 cycles: 1315458733 heartbeat IPC: 0.4164 cumulative IPC: 0.4181 (Simulation time: 02 hr 15 min 52 sec)
Heartbeat CPU 0 instructions: 560000082 cycles: 1339094907 heartbeat IPC: 0.4231 cumulative IPC: 0.4182 (Simulation time: 02 hr 18 min 34 sec)
Heartbeat CPU 0 instructions: 570000082 cycles: 1363232582 heartbeat IPC: 0.4143 cumulative IPC: 0.4181 (Simulation time: 02 hr 21 min 17 sec)
[ERROR_CYCLE] Error added at CPU cycle 1382772839, next at 1418568864, pending count: 1
[DRAM_CYCLE_ERROR] Cycle-based error applied! address=0x58d898530 additional_latency=173500 cycles
Heartbeat CPU 0 instructions: 580000083 cycles: 1386790309 heartbeat IPC: 0.4245 cumulative IPC: 0.4182 (Simulation time: 02 hr 23 min 51 sec)
Heartbeat CPU 0 instructions: 590000085 cycles: 1410889205 heartbeat IPC: 0.415 cumulative IPC: 0.4182 (Simulation time: 02 hr 26 min 33 sec)
[ERROR_CYCLE] Error added at CPU cycle 1418568864, next at 1532348430, pending count: 1
[DRAM_CYCLE_ERROR] Cycle-based error applied! address=0x1d6abc8e0 additional_latency=173500 cycles
Heartbeat CPU 0 instructions: 600000086 cycles: 1434233945 heartbeat IPC: 0.4284 cumulative IPC: 0.4183 (Simulation time: 02 hr 28 min 51 sec)
Heartbeat CPU 0 instructions: 610000086 cycles: 1457847742 heartbeat IPC: 0.4235 cumulative IPC: 0.4184 (Simulation time: 02 hr 31 min 05 sec)
Heartbeat CPU 0 instructions: 620000090 cycles: 1482047021 heartbeat IPC: 0.4132 cumulative IPC: 0.4183 (Simulation time: 02 hr 33 min 42 sec)
Heartbeat CPU 0 instructions: 630000093 cycles: 1505842099 heartbeat IPC: 0.4203 cumulative IPC: 0.4184 (Simulation time: 02 hr 36 min 10 sec)
Heartbeat CPU 0 instructions: 640000095 cycles: 1530151462 heartbeat IPC: 0.4114 cumulative IPC: 0.4183 (Simulation time: 02 hr 38 min 48 sec)
[ERROR_CYCLE] Error added at CPU cycle 1532348430, next at 1703137205, pending count: 1
[DRAM_CYCLE_ERROR] Cycle-based error applied! address=0x41a6bd100 additional_latency=173500 cycles
Heartbeat CPU 0 instructions: 650000098 cycles: 1554135969 heartbeat IPC: 0.4169 cumulative IPC: 0.4182 (Simulation time: 02 hr 41 min 16 sec)
Heartbeat CPU 0 instructions: 660000100 cycles: 1577883269 heartbeat IPC: 0.4211 cumulative IPC: 0.4183 (Simulation time: 02 hr 44 min 01 sec)
Heartbeat CPU 0 instructions: 670000101 cycles: 1601259776 heartbeat IPC: 0.4278 cumulative IPC: 0.4184 (Simulation time: 02 hr 46 min 29 sec)
Heartbeat CPU 0 instructions: 680000104 cycles: 1624740249 heartbeat IPC: 0.4259 cumulative IPC: 0.4185 (Simulation time: 02 hr 48 min 48 sec)
Heartbeat CPU 0 instructions: 690000108 cycles: 1648298905 heartbeat IPC: 0.4245 cumulative IPC: 0.4186 (Simulation time: 02 hr 51 min 21 sec)
Heartbeat CPU 0 instructions: 700000111 cycles: 1671723153 heartbeat IPC: 0.4269 cumulative IPC: 0.4187 (Simulation time: 02 hr 53 min 55 sec)
Heartbeat CPU 0 instructions: 710000111 cycles: 1695477459 heartbeat IPC: 0.421 cumulative IPC: 0.4188 (Simulation time: 02 hr 56 min 24 sec)
[ERROR_CYCLE] Error added at CPU cycle 1703137205, next at 1752067520, pending count: 1
[DRAM_CYCLE_ERROR] Cycle-based error applied! address=0x35d145bb0 additional_latency=173500 cycles
Heartbeat CPU 0 instructions: 720000111 cycles: 1719430292 heartbeat IPC: 0.4175 cumulative IPC: 0.4187 (Simulation time: 02 hr 59 min 02 sec)
Heartbeat CPU 0 instructions: 730000112 cycles: 1742705140 heartbeat IPC: 0.4296 cumulative IPC: 0.4189 (Simulation time: 03 hr 01 min 40 sec)
[ERROR_CYCLE] Error added at CPU cycle 1752067521, next at 2107259108, pending count: 1
[DRAM_CYCLE_ERROR] Cycle-based error applied! address=0x398148498 additional_latency=173500 cycles
Heartbeat CPU 0 instructions: 740000114 cycles: 1766298603 heartbeat IPC: 0.4238 cumulative IPC: 0.419 (Simulation time: 03 hr 04 min 19 sec)
Heartbeat CPU 0 instructions: 750000114 cycles: 1789701517 heartbeat IPC: 0.4273 cumulative IPC: 0.4191 (Simulation time: 03 hr 06 min 58 sec)
Heartbeat CPU 0 instructions: 760000117 cycles: 1813217190 heartbeat IPC: 0.4252 cumulative IPC: 0.4191 (Simulation time: 03 hr 09 min 30 sec)
Heartbeat CPU 0 instructions: 770000119 cycles: 1836022478 heartbeat IPC: 0.4385 cumulative IPC: 0.4194 (Simulation time: 03 hr 11 min 48 sec)
Heartbeat CPU 0 instructions: 780000119 cycles: 1859227419 heartbeat IPC: 0.4309 cumulative IPC: 0.4195 (Simulation time: 03 hr 14 min 11 sec)
Heartbeat CPU 0 instructions: 790000119 cycles: 1882882370 heartbeat IPC: 0.4227 cumulative IPC: 0.4196 (Simulation time: 03 hr 16 min 36 sec)
Heartbeat CPU 0 instructions: 800000119 cycles: 1905826248 heartbeat IPC: 0.4358 cumulative IPC: 0.4198 (Simulation time: 03 hr 19 min 01 sec)
Heartbeat CPU 0 instructions: 810000119 cycles: 1929545061 heartbeat IPC: 0.4216 cumulative IPC: 0.4198 (Simulation time: 03 hr 20 min 57 sec)
Heartbeat CPU 0 instructions: 820000120 cycles: 1953031394 heartbeat IPC: 0.4258 cumulative IPC: 0.4199 (Simulation time: 03 hr 23 min 05 sec)
Heartbeat CPU 0 instructions: 830000122 cycles: 1976281595 heartbeat IPC: 0.4301 cumulative IPC: 0.42 (Simulation time: 03 hr 24 min 55 sec)
Heartbeat CPU 0 instructions: 840000126 cycles: 1999631505 heartbeat IPC: 0.4283 cumulative IPC: 0.4201 (Simulation time: 03 hr 27 min 14 sec)
Heartbeat CPU 0 instructions: 850000129 cycles: 2023299172 heartbeat IPC: 0.4225 cumulative IPC: 0.4201 (Simulation time: 03 hr 29 min 54 sec)
Heartbeat CPU 0 instructions: 860000133 cycles: 2046640865 heartbeat IPC: 0.4284 cumulative IPC: 0.4202 (Simulation time: 03 hr 32 min 35 sec)
Heartbeat CPU 0 instructions: 870000136 cycles: 2069984722 heartbeat IPC: 0.4284 cumulative IPC: 0.4203 (Simulation time: 03 hr 35 min 00 sec)
Heartbeat CPU 0 instructions: 880000138 cycles: 2093586554 heartbeat IPC: 0.4237 cumulative IPC: 0.4203 (Simulation time: 03 hr 36 min 57 sec)
[ERROR_CYCLE] Error added at CPU cycle 2107259108, next at 2178462766, pending count: 1
[DRAM_CYCLE_ERROR] Cycle-based error applied! address=0x4cb967498 additional_latency=173500 cycles
Heartbeat CPU 0 instructions: 890000138 cycles: 2116776451 heartbeat IPC: 0.4312 cumulative IPC: 0.4205 (Simulation time: 03 hr 39 min 13 sec)
Heartbeat CPU 0 instructions: 900000138 cycles: 2139382864 heartbeat IPC: 0.4424 cumulative IPC: 0.4207 (Simulation time: 03 hr 41 min 45 sec)
Heartbeat CPU 0 instructions: 910000141 cycles: 2162611624 heartbeat IPC: 0.4305 cumulative IPC: 0.4208 (Simulation time: 03 hr 44 min 19 sec)
[ERROR_CYCLE] Error added at CPU cycle 2178462767, next at 2267979990, pending count: 1
[DRAM_CYCLE_ERROR] Cycle-based error applied! address=0x1add0e0 additional_latency=173500 cycles
Heartbeat CPU 0 instructions: 920000143 cycles: 2186089030 heartbeat IPC: 0.4259 cumulative IPC: 0.4208 (Simulation time: 03 hr 46 min 53 sec)
Heartbeat CPU 0 instructions: 930000144 cycles: 2208820515 heartbeat IPC: 0.4399 cumulative IPC: 0.421 (Simulation time: 03 hr 49 min 23 sec)
Heartbeat CPU 0 instructions: 940000145 cycles: 2231626771 heartbeat IPC: 0.4385 cumulative IPC: 0.4212 (Simulation time: 03 hr 51 min 49 sec)
Heartbeat CPU 0 instructions: 950000146 cycles: 2254996248 heartbeat IPC: 0.4279 cumulative IPC: 0.4213 (Simulation time: 03 hr 54 min 29 sec)
[ERROR_CYCLE] Error added at CPU cycle 2267979990, next at 2675036714, pending count: 1
[DRAM_CYCLE_ERROR] Cycle-based error applied! address=0x7c95f9502 additional_latency=173500 cycles
Heartbeat CPU 0 instructions: 960000149 cycles: 2278178476 heartbeat IPC: 0.4314 cumulative IPC: 0.4214 (Simulation time: 03 hr 57 min 08 sec)
Heartbeat CPU 0 instructions: 970000150 cycles: 2301560907 heartbeat IPC: 0.4277 cumulative IPC: 0.4215 (Simulation time: 03 hr 59 min 45 sec)
Heartbeat CPU 0 instructions: 980000151 cycles: 2324506891 heartbeat IPC: 0.4358 cumulative IPC: 0.4216 (Simulation time: 04 hr 02 min 08 sec)
Heartbeat CPU 0 instructions: 990000152 cycles: 2347981527 heartbeat IPC: 0.426 cumulative IPC: 0.4216 (Simulation time: 04 hr 04 min 19 sec)
Heartbeat CPU 0 instructions: 1000000155 cycles: 2371387857 heartbeat IPC: 0.4272 cumulative IPC: 0.4217 (Simulation time: 04 hr 06 min 45 sec)
Heartbeat CPU 0 instructions: 1010000158 cycles: 2394598259 heartbeat IPC: 0.4308 cumulative IPC: 0.4218 (Simulation time: 04 hr 09 min 00 sec)
Heartbeat CPU 0 instructions: 1020000158 cycles: 2418043670 heartbeat IPC: 0.4265 cumulative IPC: 0.4218 (Simulation time: 04 hr 11 min 37 sec)
Heartbeat CPU 0 instructions: 1030000159 cycles: 2441323909 heartbeat IPC: 0.4295 cumulative IPC: 0.4219 (Simulation time: 04 hr 14 min 16 sec)
Heartbeat CPU 0 instructions: 1040000159 cycles: 2464322107 heartbeat IPC: 0.4348 cumulative IPC: 0.422 (Simulation time: 04 hr 16 min 53 sec)
Heartbeat CPU 0 instructions: 1050000161 cycles: 2487173011 heartbeat IPC: 0.4376 cumulative IPC: 0.4222 (Simulation time: 04 hr 19 min 11 sec)
Heartbeat CPU 0 instructions: 1060000161 cycles: 2509582617 heartbeat IPC: 0.4462 cumulative IPC: 0.4224 (Simulation time: 04 hr 21 min 33 sec)
Heartbeat CPU 0 instructions: 1070000165 cycles: 2532481197 heartbeat IPC: 0.4367 cumulative IPC: 0.4225 (Simulation time: 04 hr 24 min 05 sec)
Heartbeat CPU 0 instructions: 1080000166 cycles: 2555792116 heartbeat IPC: 0.429 cumulative IPC: 0.4226 (Simulation time: 04 hr 26 min 46 sec)
Heartbeat CPU 0 instructions: 1090000166 cycles: 2578898965 heartbeat IPC: 0.4328 cumulative IPC: 0.4227 (Simulation time: 04 hr 29 min 24 sec)
Heartbeat CPU 0 instructions: 1100000166 cycles: 2601405239 heartbeat IPC: 0.4443 cumulative IPC: 0.4228 (Simulation time: 04 hr 31 min 59 sec)
Heartbeat CPU 0 instructions: 1110000166 cycles: 2624654272 heartbeat IPC: 0.4301 cumulative IPC: 0.4229 (Simulation time: 04 hr 34 min 02 sec)
Heartbeat CPU 0 instructions: 1120000168 cycles: 2647475506 heartbeat IPC: 0.4382 cumulative IPC: 0.423 (Simulation time: 04 hr 36 min 14 sec)
Heartbeat CPU 0 instructions: 1130000172 cycles: 2670727312 heartbeat IPC: 0.4301 cumulative IPC: 0.4231 (Simulation time: 04 hr 38 min 45 sec)
[ERROR_CYCLE] Error added at CPU cycle 2675036715, next at 2677487211, pending count: 1
[DRAM_CYCLE_ERROR] Cycle-based error applied! address=0x385e71388 additional_latency=173500 cycles
[ERROR_CYCLE] Error added at CPU cycle 2677487211, next at 2902477298, pending count: 1
[DRAM_CYCLE_ERROR] Cycle-based error applied! address=0x693ff86e0 additional_latency=173500 cycles
Heartbeat CPU 0 instructions: 1140000176 cycles: 2693477886 heartbeat IPC: 0.4395 cumulative IPC: 0.4232 (Simulation time: 04 hr 40 min 42 sec)
Heartbeat CPU 0 instructions: 1150000177 cycles: 2716022029 heartbeat IPC: 0.4436 cumulative IPC: 0.4234 (Simulation time: 04 hr 42 min 52 sec)
Heartbeat CPU 0 instructions: 1160000181 cycles: 2738748402 heartbeat IPC: 0.44 cumulative IPC: 0.4236 (Simulation time: 04 hr 45 min 26 sec)
Heartbeat CPU 0 instructions: 1170000183 cycles: 2761899480 heartbeat IPC: 0.4319 cumulative IPC: 0.4236 (Simulation time: 04 hr 48 min 02 sec)
Heartbeat CPU 0 instructions: 1180000184 cycles: 2784473056 heartbeat IPC: 0.443 cumulative IPC: 0.4238 (Simulation time: 04 hr 50 min 35 sec)
Heartbeat CPU 0 instructions: 1190000185 cycles: 2807738738 heartbeat IPC: 0.4298 cumulative IPC: 0.4238 (Simulation time: 04 hr 53 min 11 sec)
Heartbeat CPU 0 instructions: 1200000186 cycles: 2830584396 heartbeat IPC: 0.4377 cumulative IPC: 0.4239 (Simulation time: 04 hr 55 min 46 sec)
Heartbeat CPU 0 instructions: 1210000189 cycles: 2853422359 heartbeat IPC: 0.4379 cumulative IPC: 0.4241 (Simulation time: 04 hr 58 min 20 sec)
Heartbeat CPU 0 instructions: 1220000191 cycles: 2876419229 heartbeat IPC: 0.4348 cumulative IPC: 0.4241 (Simulation time: 05 hr 00 min 55 sec)
Heartbeat CPU 0 instructions: 1230000191 cycles: 2899440482 heartbeat IPC: 0.4344 cumulative IPC: 0.4242 (Simulation time: 05 hr 03 min 32 sec)
[ERROR_CYCLE] Error added at CPU cycle 2902477299, next at 3033742300, pending count: 1
[DRAM_CYCLE_ERROR] Cycle-based error applied! address=0x3f38da2c0 additional_latency=173500 cycles
[VMEM] WARNING: Out of physical memory, freeing ppages
Heartbeat CPU 0 instructions: 1240000192 cycles: 2922454013 heartbeat IPC: 0.4345 cumulative IPC: 0.4243 (Simulation time: 05 hr 06 min 03 sec)
Heartbeat CPU 0 instructions: 1250000193 cycles: 2945493403 heartbeat IPC: 0.434 cumulative IPC: 0.4244 (Simulation time: 05 hr 08 min 38 sec)
Heartbeat CPU 0 instructions: 1260000195 cycles: 2968388101 heartbeat IPC: 0.4368 cumulative IPC: 0.4245 (Simulation time: 05 hr 10 min 39 sec)
Heartbeat CPU 0 instructions: 1270000195 cycles: 2991222095 heartbeat IPC: 0.4379 cumulative IPC: 0.4246 (Simulation time: 05 hr 13 min 13 sec)
Heartbeat CPU 0 instructions: 1280000195 cycles: 3014126112 heartbeat IPC: 0.4366 cumulative IPC: 0.4247 (Simulation time: 05 hr 15 min 48 sec)
[ERROR_CYCLE] Error added at CPU cycle 3033742300, next at 3790529692, pending count: 1
[DRAM_CYCLE_ERROR] Cycle-based error applied! address=0x4e9d01ba0 additional_latency=173500 cycles
Heartbeat CPU 0 instructions: 1290000197 cycles: 3037379267 heartbeat IPC: 0.43 cumulative IPC: 0.4247 (Simulation time: 05 hr 18 min 26 sec)
Heartbeat CPU 0 instructions: 1300000199 cycles: 3060255140 heartbeat IPC: 0.4371 cumulative IPC: 0.4248 (Simulation time: 05 hr 21 min 03 sec)
Heartbeat CPU 0 instructions: 1310000199 cycles: 3082772010 heartbeat IPC: 0.4441 cumulative IPC: 0.4249 (Simulation time: 05 hr 23 min 37 sec)
Heartbeat CPU 0 instructions: 1320000200 cycles: 3105953634 heartbeat IPC: 0.4314 cumulative IPC: 0.425 (Simulation time: 05 hr 26 min 11 sec)
Heartbeat CPU 0 instructions: 1330000200 cycles: 3128858222 heartbeat IPC: 0.4366 cumulative IPC: 0.4251 (Simulation time: 05 hr 28 min 37 sec)
Heartbeat CPU 0 instructions: 1340000202 cycles: 3151554206 heartbeat IPC: 0.4406 cumulative IPC: 0.4252 (Simulation time: 05 hr 31 min 12 sec)
Heartbeat CPU 0 instructions: 1350000205 cycles: 3174723930 heartbeat IPC: 0.4316 cumulative IPC: 0.4252 (Simulation time: 05 hr 33 min 47 sec)
Heartbeat CPU 0 instructions: 1360000205 cycles: 3197242462 heartbeat IPC: 0.4441 cumulative IPC: 0.4254 (Simulation time: 05 hr 36 min 16 sec)
Heartbeat CPU 0 instructions: 1370000207 cycles: 3220439154 heartbeat IPC: 0.4311 cumulative IPC: 0.4254 (Simulation time: 05 hr 38 min 51 sec)
Heartbeat CPU 0 instructions: 1380000207 cycles: 3243663251 heartbeat IPC: 0.4306 cumulative IPC: 0.4254 (Simulation time: 05 hr 40 min 58 sec)
Heartbeat CPU 0 instructions: 1390000207 cycles: 3266888798 heartbeat IPC: 0.4306 cumulative IPC: 0.4255 (Simulation time: 05 hr 43 min 21 sec)
Heartbeat CPU 0 instructions: 1400000207 cycles: 3289844127 heartbeat IPC: 0.4356 cumulative IPC: 0.4256 (Simulation time: 05 hr 45 min 56 sec)
Heartbeat CPU 0 instructions: 1410000207 cycles: 3313117663 heartbeat IPC: 0.4297 cumulative IPC: 0.4256 (Simulation time: 05 hr 48 min 34 sec)
Heartbeat CPU 0 instructions: 1420000207 cycles: 3336483720 heartbeat IPC: 0.428 cumulative IPC: 0.4256 (Simulation time: 05 hr 51 min 03 sec)
Heartbeat CPU 0 instructions: 1430000211 cycles: 3359720808 heartbeat IPC: 0.4303 cumulative IPC: 0.4256 (Simulation time: 05 hr 53 min 09 sec)
Heartbeat CPU 0 instructions: 1440000213 cycles: 3383169525 heartbeat IPC: 0.4265 cumulative IPC: 0.4256 (Simulation time: 05 hr 55 min 46 sec)
Heartbeat CPU 0 instructions: 1450000215 cycles: 3405537983 heartbeat IPC: 0.4471 cumulative IPC: 0.4258 (Simulation time: 05 hr 58 min 17 sec)
Heartbeat CPU 0 instructions: 1460000218 cycles: 3428659738 heartbeat IPC: 0.4325 cumulative IPC: 0.4258 (Simulation time: 06 hr 00 min 52 sec)
Heartbeat CPU 0 instructions: 1470000218 cycles: 3451528822 heartbeat IPC: 0.4373 cumulative IPC: 0.4259 (Simulation time: 06 hr 03 min 26 sec)
Heartbeat CPU 0 instructions: 1480000218 cycles: 3474641274 heartbeat IPC: 0.4327 cumulative IPC: 0.4259 (Simulation time: 06 hr 05 min 56 sec)
Heartbeat CPU 0 instructions: 1490000222 cycles: 3497685662 heartbeat IPC: 0.4339 cumulative IPC: 0.426 (Simulation time: 06 hr 08 min 05 sec)
Heartbeat CPU 0 instructions: 1500000226 cycles: 3520968758 heartbeat IPC: 0.4295 cumulative IPC: 0.426 (Simulation time: 06 hr 10 min 21 sec)
Heartbeat CPU 0 instructions: 1510000228 cycles: 3544348955 heartbeat IPC: 0.4277 cumulative IPC: 0.426 (Simulation time: 06 hr 12 min 24 sec)
Heartbeat CPU 0 instructions: 1520000228 cycles: 3567747944 heartbeat IPC: 0.4274 cumulative IPC: 0.426 (Simulation time: 06 hr 14 min 26 sec)
Heartbeat CPU 0 instructions: 1530000229 cycles: 3591410379 heartbeat IPC: 0.4226 cumulative IPC: 0.426 (Simulation time: 06 hr 16 min 36 sec)
Heartbeat CPU 0 instructions: 1540000230 cycles: 3614734710 heartbeat IPC: 0.4287 cumulative IPC: 0.426 (Simulation time: 06 hr 18 min 51 sec)
Heartbeat CPU 0 instructions: 1550000233 cycles: 3638439514 heartbeat IPC: 0.4219 cumulative IPC: 0.426 (Simulation time: 06 hr 21 min 30 sec)
Heartbeat CPU 0 instructions: 1560000236 cycles: 3662003149 heartbeat IPC: 0.4244 cumulative IPC: 0.426 (Simulation time: 06 hr 23 min 54 sec)
Heartbeat CPU 0 instructions: 1570000239 cycles: 3685516327 heartbeat IPC: 0.4253 cumulative IPC: 0.426 (Simulation time: 06 hr 26 min 32 sec)
Heartbeat CPU 0 instructions: 1580000242 cycles: 3709252550 heartbeat IPC: 0.4213 cumulative IPC: 0.426 (Simulation time: 06 hr 29 min 12 sec)
Heartbeat CPU 0 instructions: 1590000245 cycles: 3732858762 heartbeat IPC: 0.4236 cumulative IPC: 0.4259 (Simulation time: 06 hr 31 min 50 sec)
Heartbeat CPU 0 instructions: 1600000249 cycles: 3756361083 heartbeat IPC: 0.4255 cumulative IPC: 0.4259 (Simulation time: 06 hr 34 min 28 sec)
Heartbeat CPU 0 instructions: 1610000250 cycles: 3780003919 heartbeat IPC: 0.423 cumulative IPC: 0.4259 (Simulation time: 06 hr 36 min 50 sec)
[ERROR_CYCLE] Error added at CPU cycle 3790529693, next at 3837918575, pending count: 1
[DRAM_CYCLE_ERROR] Cycle-based error applied! address=0x2bcbc84b8 additional_latency=173500 cycles
Heartbeat CPU 0 instructions: 1620000253 cycles: 3803310777 heartbeat IPC: 0.4291 cumulative IPC: 0.4259 (Simulation time: 06 hr 38 min 44 sec)
Heartbeat CPU 0 instructions: 1630000253 cycles: 3826835654 heartbeat IPC: 0.4251 cumulative IPC: 0.4259 (Simulation time: 06 hr 40 min 55 sec)
[ERROR_CYCLE] Error added at CPU cycle 3837918576, next at 3885940555, pending count: 1
[DRAM_CYCLE_ERROR] Cycle-based error applied! address=0x721d98b38 additional_latency=173500 cycles
Heartbeat CPU 0 instructions: 1640000255 cycles: 3850144359 heartbeat IPC: 0.429 cumulative IPC: 0.426 (Simulation time: 06 hr 43 min 00 sec)
Heartbeat CPU 0 instructions: 1650000258 cycles: 3873461622 heartbeat IPC: 0.4289 cumulative IPC: 0.426 (Simulation time: 06 hr 45 min 37 sec)
[ERROR_CYCLE] Error added at CPU cycle 3885940556, next at 4462380683, pending count: 1
[DRAM_CYCLE_ERROR] Cycle-based error applied! address=0x777ca76c8 additional_latency=173500 cycles
Heartbeat CPU 0 instructions: 1660000261 cycles: 3897115135 heartbeat IPC: 0.4228 cumulative IPC: 0.426 (Simulation time: 06 hr 48 min 08 sec)
Heartbeat CPU 0 instructions: 1670000263 cycles: 3920417976 heartbeat IPC: 0.4291 cumulative IPC: 0.426 (Simulation time: 06 hr 50 min 42 sec)
Heartbeat CPU 0 instructions: 1680000266 cycles: 3944107999 heartbeat IPC: 0.4221 cumulative IPC: 0.426 (Simulation time: 06 hr 53 min 21 sec)
Heartbeat CPU 0 instructions: 1690000270 cycles: 3967458891 heartbeat IPC: 0.4282 cumulative IPC: 0.426 (Simulation time: 06 hr 55 min 48 sec)
Heartbeat CPU 0 instructions: 1700000270 cycles: 3991087161 heartbeat IPC: 0.4232 cumulative IPC: 0.4259 (Simulation time: 06 hr 58 min 27 sec)
Heartbeat CPU 0 instructions: 1710000271 cycles: 4014357331 heartbeat IPC: 0.4297 cumulative IPC: 0.426 (Simulation time: 07 hr 01 min 04 sec)
Heartbeat CPU 0 instructions: 1720000274 cycles: 4037950727 heartbeat IPC: 0.4238 cumulative IPC: 0.426 (Simulation time: 07 hr 03 min 30 sec)
Heartbeat CPU 0 instructions: 1730000275 cycles: 4061981812 heartbeat IPC: 0.4161 cumulative IPC: 0.4259 (Simulation time: 07 hr 06 min 03 sec)
Heartbeat CPU 0 instructions: 1740000278 cycles: 4084990043 heartbeat IPC: 0.4346 cumulative IPC: 0.4259 (Simulation time: 07 hr 08 min 20 sec)
Heartbeat CPU 0 instructions: 1750000280 cycles: 4108370448 heartbeat IPC: 0.4277 cumulative IPC: 0.426 (Simulation time: 07 hr 10 min 56 sec)
Heartbeat CPU 0 instructions: 1760000280 cycles: 4132704459 heartbeat IPC: 0.4109 cumulative IPC: 0.4259 (Simulation time: 07 hr 13 min 39 sec)
Heartbeat CPU 0 instructions: 1770000282 cycles: 4156769388 heartbeat IPC: 0.4155 cumulative IPC: 0.4258 (Simulation time: 07 hr 16 min 10 sec)
Heartbeat CPU 0 instructions: 1780000282 cycles: 4180383583 heartbeat IPC: 0.4235 cumulative IPC: 0.4258 (Simulation time: 07 hr 18 min 50 sec)
Heartbeat CPU 0 instructions: 1790000283 cycles: 4204009010 heartbeat IPC: 0.4233 cumulative IPC: 0.4258 (Simulation time: 07 hr 21 min 29 sec)
Heartbeat CPU 0 instructions: 1800000284 cycles: 4227871445 heartbeat IPC: 0.4191 cumulative IPC: 0.4257 (Simulation time: 07 hr 23 min 58 sec)
Heartbeat CPU 0 instructions: 1810000288 cycles: 4251319491 heartbeat IPC: 0.4265 cumulative IPC: 0.4258 (Simulation time: 07 hr 26 min 30 sec)
Heartbeat CPU 0 instructions: 1820000288 cycles: 4275210548 heartbeat IPC: 0.4186 cumulative IPC: 0.4257 (Simulation time: 07 hr 29 min 07 sec)
Heartbeat CPU 0 instructions: 1830000289 cycles: 4298645444 heartbeat IPC: 0.4267 cumulative IPC: 0.4257 (Simulation time: 07 hr 31 min 36 sec)
Heartbeat CPU 0 instructions: 1840000289 cycles: 4322028095 heartbeat IPC: 0.4277 cumulative IPC: 0.4257 (Simulation time: 07 hr 34 min 15 sec)
Heartbeat CPU 0 instructions: 1850000292 cycles: 4345410918 heartbeat IPC: 0.4277 cumulative IPC: 0.4257 (Simulation time: 07 hr 36 min 54 sec)
Heartbeat CPU 0 instructions: 1860000292 cycles: 4368849289 heartbeat IPC: 0.4267 cumulative IPC: 0.4257 (Simulation time: 07 hr 39 min 33 sec)
Heartbeat CPU 0 instructions: 1870000296 cycles: 4392388196 heartbeat IPC: 0.4248 cumulative IPC: 0.4257 (Simulation time: 07 hr 42 min 09 sec)
Heartbeat CPU 0 instructions: 1880000298 cycles: 4415835604 heartbeat IPC: 0.4265 cumulative IPC: 0.4257 (Simulation time: 07 hr 44 min 40 sec)
Heartbeat CPU 0 instructions: 1890000302 cycles: 4439106580 heartbeat IPC: 0.4297 cumulative IPC: 0.4258 (Simulation time: 07 hr 47 min 01 sec)
Heartbeat CPU 0 instructions: 1900000303 cycles: 4462312649 heartbeat IPC: 0.4309 cumulative IPC: 0.4258 (Simulation time: 07 hr 49 min 17 sec)
[ERROR_CYCLE] Error added at CPU cycle 4462380683, next at 4541334176, pending count: 1
[DRAM_CYCLE_ERROR] Cycle-based error applied! address=0x48c2175f8 additional_latency=173500 cycles
Heartbeat CPU 0 instructions: 1910000303 cycles: 4485348639 heartbeat IPC: 0.4341 cumulative IPC: 0.4258 (Simulation time: 07 hr 51 min 29 sec)
Heartbeat CPU 0 instructions: 1920000307 cycles: 4509147969 heartbeat IPC: 0.4202 cumulative IPC: 0.4258 (Simulation time: 07 hr 53 min 36 sec)
Heartbeat CPU 0 instructions: 1930000310 cycles: 4533069499 heartbeat IPC: 0.418 cumulative IPC: 0.4258 (Simulation time: 07 hr 56 min 14 sec)
[ERROR_CYCLE] Error added at CPU cycle 4541334177, next at 5396929851, pending count: 1
[DRAM_CYCLE_ERROR] Cycle-based error applied! address=0x32022c9c8 additional_latency=173500 cycles
Heartbeat CPU 0 instructions: 1940000313 cycles: 4556313032 heartbeat IPC: 0.4302 cumulative IPC: 0.4258 (Simulation time: 07 hr 58 min 38 sec)
Heartbeat CPU 0 instructions: 1950000316 cycles: 4579743985 heartbeat IPC: 0.4268 cumulative IPC: 0.4258 (Simulation time: 08 hr 01 min 20 sec)
Heartbeat CPU 0 instructions: 1960000319 cycles: 4603004947 heartbeat IPC: 0.4299 cumulative IPC: 0.4258 (Simulation time: 08 hr 03 min 47 sec)
Heartbeat CPU 0 instructions: 1970000319 cycles: 4626239445 heartbeat IPC: 0.4304 cumulative IPC: 0.4258 (Simulation time: 08 hr 06 min 17 sec)
Heartbeat CPU 0 instructions: 1980000319 cycles: 4649493229 heartbeat IPC: 0.43 cumulative IPC: 0.4259 (Simulation time: 08 hr 08 min 49 sec)
Heartbeat CPU 0 instructions: 1990000319 cycles: 4672524876 heartbeat IPC: 0.4342 cumulative IPC: 0.4259 (Simulation time: 08 hr 11 min 10 sec)

=== ERROR PAGE STATISTICS ===
Mode: CYCLE
Error Cycle Interval: 200000000 CPU cycles
Total Error Accesses: 22
==============================
Simulation finished CPU 0 instructions: 1999999986 cycles: 4695675386 cumulative IPC: 0.4259 (Simulation time: 08 hr 13 min 47 sec)
Simulation complete CPU 0 instructions: 1999999986 cycles: 4695675386 cumulative IPC: 0.4259 (Simulation time: 08 hr 13 min 47 sec)

ChampSim completed all CPUs

=== Simulation ===
CPU 0 runs test_traces/620.omnetpp_s-141B.champsimtrace.xz

Region of Interest Statistics

CPU 0 cumulative IPC: 0.4259 instructions: 1999999986 cycles: 4695675386
CPU 0 Branch Prediction Accuracy: 92.96% MPKI: 14.8 Average ROB Occupancy at Mispredict: 41.91
Branch type MPKI
BRANCH_DIRECT_JUMP: 0.8484
BRANCH_INDIRECT: 0.3555
BRANCH_CONDITIONAL: 12.32
BRANCH_DIRECT_CALL: 0.0001295
BRANCH_INDIRECT_CALL: 0.8457
BRANCH_RETURN: 0.4309

cpu0->cpu0_STLB TOTAL        ACCESS:   44698947 HIT:   35105376 MISS:    9593571 MSHR_MERGE:          0
cpu0->cpu0_STLB LOAD         ACCESS:   44698947 HIT:   35105376 MISS:    9593571 MSHR_MERGE:          0
cpu0->cpu0_STLB RFO          ACCESS:          0 HIT:          0 MISS:          0 MSHR_MERGE:          0
cpu0->cpu0_STLB PREFETCH     ACCESS:          0 HIT:          0 MISS:          0 MSHR_MERGE:          0
cpu0->cpu0_STLB WRITE        ACCESS:          0 HIT:          0 MISS:          0 MSHR_MERGE:          0
cpu0->cpu0_STLB TRANSLATION  ACCESS:          0 HIT:          0 MISS:          0 MSHR_MERGE:          0
cpu0->cpu0_STLB PREFETCH REQUESTED:          0 ISSUED:          0 USEFUL:          0 USELESS:          0
cpu0->cpu0_STLB AVERAGE MISS LATENCY: 211.3 cycles
cpu0->cpu0_L2C TOTAL        ACCESS:   56650647 HIT:   29465751 MISS:   27184896 MSHR_MERGE:          0
cpu0->cpu0_L2C LOAD         ACCESS:   33708897 HIT:   10149418 MISS:   23559479 MSHR_MERGE:          0
cpu0->cpu0_L2C RFO          ACCESS:    4838668 HIT:    1237448 MISS:    3601220 MSHR_MERGE:          0
cpu0->cpu0_L2C PREFETCH     ACCESS:          0 HIT:          0 MISS:          0 MSHR_MERGE:          0
cpu0->cpu0_L2C WRITE        ACCESS:   18103082 HIT:   18078885 MISS:      24197 MSHR_MERGE:          0
cpu0->cpu0_L2C TRANSLATION  ACCESS:          0 HIT:          0 MISS:          0 MSHR_MERGE:          0
cpu0->cpu0_L2C PREFETCH REQUESTED:          0 ISSUED:          0 USEFUL:          0 USELESS:          0
cpu0->cpu0_L2C AVERAGE MISS LATENCY: 88.62 cycles
cpu0->cpu0_L1I TOTAL        ACCESS:  269082940 HIT:  267367539 MISS:    1715401 MSHR_MERGE:     426428
cpu0->cpu0_L1I LOAD         ACCESS:  269082940 HIT:  267367539 MISS:    1715401 MSHR_MERGE:     426428
cpu0->cpu0_L1I RFO          ACCESS:          0 HIT:          0 MISS:          0 MSHR_MERGE:          0
cpu0->cpu0_L1I PREFETCH     ACCESS:          0 HIT:          0 MISS:          0 MSHR_MERGE:          0
cpu0->cpu0_L1I WRITE        ACCESS:          0 HIT:          0 MISS:          0 MSHR_MERGE:          0
cpu0->cpu0_L1I TRANSLATION  ACCESS:          0 HIT:          0 MISS:          0 MSHR_MERGE:          0
cpu0->cpu0_L1I PREFETCH REQUESTED:          0 ISSUED:          0 USEFUL:          0 USELESS:          0
cpu0->cpu0_L1I AVERAGE MISS LATENCY: 12.07 cycles
cpu0->cpu0_L1D TOTAL        ACCESS:  807223516 HIT:  750530209 MISS:   56693307 MSHR_MERGE:   19434621
cpu0->cpu0_L1D LOAD         ACCESS:  439366563 HIT:  396763645 MISS:   42602918 MSHR_MERGE:   10182925
cpu0->cpu0_L1D RFO          ACCESS:          0 HIT:          0 MISS:          0 MSHR_MERGE:          0
cpu0->cpu0_L1D PREFETCH     ACCESS:          0 HIT:          0 MISS:          0 MSHR_MERGE:          0
cpu0->cpu0_L1D WRITE        ACCESS:  367856953 HIT:  353766564 MISS:   14090389 MSHR_MERGE:    9251696
cpu0->cpu0_L1D TRANSLATION  ACCESS:          0 HIT:          0 MISS:          0 MSHR_MERGE:          0
cpu0->cpu0_L1D PREFETCH REQUESTED:          0 ISSUED:          0 USEFUL:          0 USELESS:          0
cpu0->cpu0_L1D AVERAGE MISS LATENCY: 73.3 cycles
cpu0->cpu0_ITLB TOTAL        ACCESS:  237498864 HIT:  231440991 MISS:    6057873 MSHR_MERGE:    2945853
cpu0->cpu0_ITLB LOAD         ACCESS:  237498864 HIT:  231440991 MISS:    6057873 MSHR_MERGE:    2945853
cpu0->cpu0_ITLB RFO          ACCESS:          0 HIT:          0 MISS:          0 MSHR_MERGE:          0
cpu0->cpu0_ITLB PREFETCH     ACCESS:          0 HIT:          0 MISS:          0 MSHR_MERGE:          0
cpu0->cpu0_ITLB WRITE        ACCESS:          0 HIT:          0 MISS:          0 MSHR_MERGE:          0
cpu0->cpu0_ITLB TRANSLATION  ACCESS:          0 HIT:          0 MISS:          0 MSHR_MERGE:          0
cpu0->cpu0_ITLB PREFETCH REQUESTED:          0 ISSUED:          0 USEFUL:          0 USELESS:          0
cpu0->cpu0_ITLB AVERAGE MISS LATENCY: 7.249 cycles
cpu0->cpu0_DTLB TOTAL        ACCESS:  695416245 HIT:  647434262 MISS:   47981983 MSHR_MERGE:    6395056
cpu0->cpu0_DTLB LOAD         ACCESS:  695416245 HIT:  647434262 MISS:   47981983 MSHR_MERGE:    6395056
cpu0->cpu0_DTLB RFO          ACCESS:          0 HIT:          0 MISS:          0 MSHR_MERGE:          0
cpu0->cpu0_DTLB PREFETCH     ACCESS:          0 HIT:          0 MISS:          0 MSHR_MERGE:          0
cpu0->cpu0_DTLB WRITE        ACCESS:          0 HIT:          0 MISS:          0 MSHR_MERGE:          0
cpu0->cpu0_DTLB TRANSLATION  ACCESS:          0 HIT:          0 MISS:          0 MSHR_MERGE:          0
cpu0->cpu0_DTLB PREFETCH REQUESTED:          0 ISSUED:          0 USEFUL:          0 USELESS:          0
cpu0->cpu0_DTLB AVERAGE MISS LATENCY: 53.81 cycles
cpu0->LLC TOTAL        ACCESS:   40322233 HIT:   19748603 MISS:   20573630 MSHR_MERGE:          0
cpu0->LLC LOAD         ACCESS:   23559477 HIT:    5193918 MISS:   18365559 MSHR_MERGE:          0
cpu0->LLC RFO          ACCESS:    3601220 HIT:    1441444 MISS:    2159776 MSHR_MERGE:          0
cpu0->LLC PREFETCH     ACCESS:          0 HIT:          0 MISS:          0 MSHR_MERGE:          0
cpu0->LLC WRITE        ACCESS:   13161536 HIT:   13113241 MISS:      48295 MSHR_MERGE:          0
cpu0->LLC TRANSLATION  ACCESS:          0 HIT:          0 MISS:          0 MSHR_MERGE:          0
cpu0->LLC PREFETCH REQUESTED:          0 ISSUED:          0 USEFUL:          0 USELESS:          0
cpu0->LLC AVERAGE MISS LATENCY: 96.31 cycles

DRAM Statistics

Channel 0 RQ ROW_BUFFER_HIT:     441349
  ROW_BUFFER_MISS:   21170064
  AVG DBUS CONGESTED CYCLE: 13.5
Channel 0 WQ ROW_BUFFER_HIT:     982969
  ROW_BUFFER_MISS:    3754558
  FULL:          0
Channel 0 REFRESHES ISSUED:     391281

Channel 1 RQ ROW_BUFFER_HIT:     469031
  ROW_BUFFER_MISS:   21441684
  AVG DBUS CONGESTED CYCLE: 13.5
Channel 1 WQ ROW_BUFFER_HIT:     991103
  ROW_BUFFER_MISS:    3775818
  FULL:          0
Channel 1 REFRESHES ISSUED:     391281
