[VMEM] WARNING: physical memory size is smaller than virtual memory size.

*** ChampSim Multicore Out-of-Order Simulator ***
Warmup Instructions: 0
Simulation Instructions: 9223372036854775807
Number of CPUs: 1
Page size: 2097152

Off-chip DRAM Size: 32 GiB Channels: 2 Width: 32-bit Data Rate: 4807 MT/s
[ERROR_PAGE_MANAGER] Error latency: 1990500 
[ERROR_PAGE_MANAGER] Random seed: 54321 (fixed for preload reproducibility)
[ERROR_PAGE_MANAGER] Cycle-based error modeling enabled
[ERROR_PAGE_MANAGER] Errors per interval: 1
[ERROR_PAGE_MANAGER] Error cycle interval: 20000000 cycles

=== ERROR PAGE STATISTICS ===
Mode: CYCLE
Error Cycle Interval: 20000000 CPU cycles
Total Error Accesses: 0
==============================
Warmup finished CPU 0 instructions: 0 cycles: 1 cumulative IPC: 0 (Simulation time: 00 hr 00 min 00 sec)
Warmup complete CPU 0 instructions: 0 cycles: 1 cumulative IPC: 0 (Simulation time: 00 hr 00 min 00 sec)
Heartbeat CPU 0 instructions: 10000002 cycles: 4902225 heartbeat IPC: 2.04 cumulative IPC: 2.04 (Simulation time: 00 hr 01 min 01 sec)
Heartbeat CPU 0 instructions: 20000002 cycles: 9748688 heartbeat IPC: 2.063 cumulative IPC: 2.052 (Simulation time: 00 hr 01 min 52 sec)
[ERROR_CYCLE] Error added at CPU cycle 14255611, next at 18306612, pending count: 1
[DRAM_CYCLE_ERROR] Cycle-based error applied! address=0x72ad806c0 additional_latency=1990500 cycles
Heartbeat CPU 0 instructions: 30000006 cycles: 14579860 heartbeat IPC: 2.07 cumulative IPC: 2.058 (Simulation time: 00 hr 02 min 47 sec)
[ERROR_CYCLE] Error added at CPU cycle 18306612, next at 51392127, pending count: 1
[DRAM_CYCLE_ERROR] Cycle-based error applied! address=0x45f86bd00 additional_latency=1990500 cycles
Heartbeat CPU 0 instructions: 40000007 cycles: 19413365 heartbeat IPC: 2.069 cumulative IPC: 2.06 (Simulation time: 00 hr 03 min 37 sec)
Heartbeat CPU 0 instructions: 50000007 cycles: 24260498 heartbeat IPC: 2.063 cumulative IPC: 2.061 (Simulation time: 00 hr 04 min 28 sec)
Heartbeat CPU 0 instructions: 60000008 cycles: 30535261 heartbeat IPC: 1.594 cumulative IPC: 1.965 (Simulation time: 00 hr 05 min 38 sec)
Heartbeat CPU 0 instructions: 70000012 cycles: 36667238 heartbeat IPC: 1.631 cumulative IPC: 1.909 (Simulation time: 00 hr 06 min 47 sec)
Heartbeat CPU 0 instructions: 80000013 cycles: 42806362 heartbeat IPC: 1.629 cumulative IPC: 1.869 (Simulation time: 00 hr 07 min 56 sec)
Heartbeat CPU 0 instructions: 90000016 cycles: 48965006 heartbeat IPC: 1.624 cumulative IPC: 1.838 (Simulation time: 00 hr 09 min 05 sec)
[ERROR_CYCLE] Error added at CPU cycle 51392127, next at 106935378, pending count: 1
[DRAM_CYCLE_ERROR] Cycle-based error applied! address=0x7d57b36c0 additional_latency=1990500 cycles
Heartbeat CPU 0 instructions: 100000018 cycles: 55123676 heartbeat IPC: 1.624 cumulative IPC: 1.814 (Simulation time: 00 hr 10 min 15 sec)
Heartbeat CPU 0 instructions: 110000019 cycles: 61283186 heartbeat IPC: 1.624 cumulative IPC: 1.795 (Simulation time: 00 hr 11 min 24 sec)
Heartbeat CPU 0 instructions: 120000020 cycles: 67431356 heartbeat IPC: 1.627 cumulative IPC: 1.78 (Simulation time: 00 hr 12 min 33 sec)
Heartbeat CPU 0 instructions: 130000020 cycles: 73584824 heartbeat IPC: 1.625 cumulative IPC: 1.767 (Simulation time: 00 hr 13 min 42 sec)
Heartbeat CPU 0 instructions: 140000022 cycles: 79764000 heartbeat IPC: 1.618 cumulative IPC: 1.755 (Simulation time: 00 hr 14 min 48 sec)
Heartbeat CPU 0 instructions: 150000024 cycles: 86021795 heartbeat IPC: 1.598 cumulative IPC: 1.744 (Simulation time: 00 hr 15 min 49 sec)
Heartbeat CPU 0 instructions: 160000024 cycles: 92213444 heartbeat IPC: 1.615 cumulative IPC: 1.735 (Simulation time: 00 hr 16 min 44 sec)
Heartbeat CPU 0 instructions: 170000027 cycles: 98408086 heartbeat IPC: 1.614 cumulative IPC: 1.728 (Simulation time: 00 hr 17 min 53 sec)
Heartbeat CPU 0 instructions: 180000028 cycles: 104627022 heartbeat IPC: 1.608 cumulative IPC: 1.72 (Simulation time: 00 hr 18 min 52 sec)
[ERROR_CYCLE] Error added at CPU cycle 106935379, next at 107536449, pending count: 1
[DRAM_CYCLE_ERROR] Cycle-based error applied! address=0x110d49600 additional_latency=1990500 cycles
[ERROR_CYCLE] Error added at CPU cycle 107536449, next at 138277283, pending count: 1
[DRAM_CYCLE_ERROR] Cycle-based error applied! address=0xa837b9c0 additional_latency=1990500 cycles
Heartbeat CPU 0 instructions: 190000032 cycles: 110870225 heartbeat IPC: 1.602 cumulative IPC: 1.714 (Simulation time: 00 hr 19 min 47 sec)
Heartbeat CPU 0 instructions: 200000032 cycles: 117105973 heartbeat IPC: 1.604 cumulative IPC: 1.708 (Simulation time: 00 hr 20 min 38 sec)
Heartbeat CPU 0 instructions: 210000034 cycles: 123313373 heartbeat IPC: 1.611 cumulative IPC: 1.703 (Simulation time: 00 hr 21 min 34 sec)
Heartbeat CPU 0 instructions: 220000036 cycles: 129503460 heartbeat IPC: 1.615 cumulative IPC: 1.699 (Simulation time: 00 hr 22 min 36 sec)
Heartbeat CPU 0 instructions: 230000039 cycles: 135707652 heartbeat IPC: 1.612 cumulative IPC: 1.695 (Simulation time: 00 hr 23 min 46 sec)
[ERROR_CYCLE] Error added at CPU cycle 138277283, next at 141856885, pending count: 1
[DRAM_CYCLE_ERROR] Cycle-based error applied! address=0x57a70db00 additional_latency=1990500 cycles
[ERROR_CYCLE] Error added at CPU cycle 141856885, next at 153234841, pending count: 1
[DRAM_CYCLE_ERROR] Cycle-based error applied! address=0x28b233800 additional_latency=1990500 cycles
Heartbeat CPU 0 instructions: 240000043 cycles: 142049516 heartbeat IPC: 1.577 cumulative IPC: 1.69 (Simulation time: 00 hr 24 min 56 sec)
Heartbeat CPU 0 instructions: 250000045 cycles: 148281569 heartbeat IPC: 1.605 cumulative IPC: 1.686 (Simulation time: 00 hr 26 min 04 sec)
[ERROR_CYCLE] Error added at CPU cycle 153234841, next at 170313718, pending count: 1
[DRAM_CYCLE_ERROR] Cycle-based error applied! address=0x1a5ae2a00 additional_latency=1990500 cycles
Heartbeat CPU 0 instructions: 260000048 cycles: 154496568 heartbeat IPC: 1.609 cumulative IPC: 1.683 (Simulation time: 00 hr 27 min 13 sec)
Heartbeat CPU 0 instructions: 270000051 cycles: 160707778 heartbeat IPC: 1.61 cumulative IPC: 1.68 (Simulation time: 00 hr 28 min 11 sec)
Heartbeat CPU 0 instructions: 280000051 cycles: 166941705 heartbeat IPC: 1.604 cumulative IPC: 1.677 (Simulation time: 00 hr 29 min 17 sec)
[ERROR_CYCLE] Error added at CPU cycle 170313718, next at 175206749, pending count: 1
[DRAM_CYCLE_ERROR] Cycle-based error applied! address=0x75e369ca8 additional_latency=1990500 cycles
Heartbeat CPU 0 instructions: 290000051 cycles: 173180320 heartbeat IPC: 1.603 cumulative IPC: 1.675 (Simulation time: 00 hr 30 min 27 sec)
[ERROR_CYCLE] Error added at CPU cycle 175206749, next at 210725907, pending count: 1
[DRAM_CYCLE_ERROR] Cycle-based error applied! address=0x1b2c2e7c0 additional_latency=1990500 cycles
Heartbeat CPU 0 instructions: 300000051 cycles: 179417401 heartbeat IPC: 1.603 cumulative IPC: 1.672 (Simulation time: 00 hr 31 min 37 sec)
Heartbeat CPU 0 instructions: 310000052 cycles: 185628334 heartbeat IPC: 1.61 cumulative IPC: 1.67 (Simulation time: 00 hr 32 min 46 sec)
Heartbeat CPU 0 instructions: 320000053 cycles: 191846073 heartbeat IPC: 1.608 cumulative IPC: 1.668 (Simulation time: 00 hr 33 min 52 sec)
Heartbeat CPU 0 instructions: 330000054 cycles: 198069215 heartbeat IPC: 1.607 cumulative IPC: 1.666 (Simulation time: 00 hr 35 min 00 sec)
Heartbeat CPU 0 instructions: 340000054 cycles: 204391721 heartbeat IPC: 1.582 cumulative IPC: 1.663 (Simulation time: 00 hr 35 min 55 sec)
Heartbeat CPU 0 instructions: 350000056 cycles: 210640150 heartbeat IPC: 1.6 cumulative IPC: 1.662 (Simulation time: 00 hr 36 min 59 sec)
[ERROR_CYCLE] Error added at CPU cycle 210725908, next at 217846273, pending count: 1
[DRAM_CYCLE_ERROR] Cycle-based error applied! address=0x585c68200 additional_latency=1990500 cycles
Heartbeat CPU 0 instructions: 360000056 cycles: 216897020 heartbeat IPC: 1.598 cumulative IPC: 1.66 (Simulation time: 00 hr 37 min 55 sec)
[ERROR_CYCLE] Error added at CPU cycle 217846274, next at 226797996, pending count: 1
[DRAM_CYCLE_ERROR] Cycle-based error applied! address=0x110db77c8 additional_latency=1990500 cycles
Heartbeat CPU 0 instructions: 370000056 cycles: 223150330 heartbeat IPC: 1.599 cumulative IPC: 1.658 (Simulation time: 00 hr 39 min 00 sec)
[ERROR_CYCLE] Error added at CPU cycle 226797996, next at 267503668, pending count: 1
[DRAM_CYCLE_ERROR] Cycle-based error applied! address=0x12125b5c0 additional_latency=1990500 cycles
Heartbeat CPU 0 instructions: 380000056 cycles: 229433452 heartbeat IPC: 1.592 cumulative IPC: 1.656 (Simulation time: 00 hr 40 min 07 sec)
Heartbeat CPU 0 instructions: 390000060 cycles: 235696953 heartbeat IPC: 1.597 cumulative IPC: 1.655 (Simulation time: 00 hr 41 min 16 sec)
Heartbeat CPU 0 instructions: 400000062 cycles: 241934908 heartbeat IPC: 1.603 cumulative IPC: 1.653 (Simulation time: 00 hr 42 min 06 sec)
Heartbeat CPU 0 instructions: 410000062 cycles: 248133145 heartbeat IPC: 1.613 cumulative IPC: 1.652 (Simulation time: 00 hr 43 min 00 sec)
Heartbeat CPU 0 instructions: 420000065 cycles: 254331420 heartbeat IPC: 1.613 cumulative IPC: 1.651 (Simulation time: 00 hr 44 min 10 sec)
Heartbeat CPU 0 instructions: 430000069 cycles: 260630940 heartbeat IPC: 1.587 cumulative IPC: 1.65 (Simulation time: 00 hr 45 min 21 sec)
Heartbeat CPU 0 instructions: 440000069 cycles: 266862493 heartbeat IPC: 1.605 cumulative IPC: 1.649 (Simulation time: 00 hr 46 min 32 sec)
[ERROR_CYCLE] Error added at CPU cycle 267503668, next at 267748717, pending count: 1
[DRAM_CYCLE_ERROR] Cycle-based error applied! address=0x110debc40 additional_latency=1990500 cycles
[ERROR_CYCLE] Error added at CPU cycle 267748717, next at 290247725, pending count: 1
[DRAM_CYCLE_ERROR] Cycle-based error applied! address=0x4fcff6000 additional_latency=1990500 cycles
Heartbeat CPU 0 instructions: 450000070 cycles: 273106054 heartbeat IPC: 1.602 cumulative IPC: 1.648 (Simulation time: 00 hr 47 min 43 sec)
Heartbeat CPU 0 instructions: 460000072 cycles: 279309186 heartbeat IPC: 1.612 cumulative IPC: 1.647 (Simulation time: 00 hr 48 min 53 sec)
Heartbeat CPU 0 instructions: 470000073 cycles: 285508854 heartbeat IPC: 1.613 cumulative IPC: 1.646 (Simulation time: 00 hr 50 min 04 sec)
[ERROR_CYCLE] Error added at CPU cycle 290247726, next at 303374226, pending count: 1
[DRAM_CYCLE_ERROR] Cycle-based error applied! address=0x697001a40 additional_latency=1990500 cycles
Heartbeat CPU 0 instructions: 480000074 cycles: 291707543 heartbeat IPC: 1.613 cumulative IPC: 1.645 (Simulation time: 00 hr 51 min 15 sec)
Heartbeat CPU 0 instructions: 490000074 cycles: 297891819 heartbeat IPC: 1.617 cumulative IPC: 1.645 (Simulation time: 00 hr 52 min 26 sec)
[ERROR_CYCLE] Error added at CPU cycle 303374226, next at 379052965, pending count: 1
[DRAM_CYCLE_ERROR] Cycle-based error applied! address=0x1b2cad540 additional_latency=1990500 cycles
Heartbeat CPU 0 instructions: 500000076 cycles: 304074142 heartbeat IPC: 1.618 cumulative IPC: 1.644 (Simulation time: 00 hr 53 min 37 sec)
Heartbeat CPU 0 instructions: 510000076 cycles: 310212430 heartbeat IPC: 1.629 cumulative IPC: 1.644 (Simulation time: 00 hr 54 min 47 sec)
Heartbeat CPU 0 instructions: 520000078 cycles: 316433674 heartbeat IPC: 1.607 cumulative IPC: 1.643 (Simulation time: 00 hr 55 min 58 sec)
Heartbeat CPU 0 instructions: 530000079 cycles: 322619110 heartbeat IPC: 1.617 cumulative IPC: 1.643 (Simulation time: 00 hr 57 min 09 sec)
Heartbeat CPU 0 instructions: 540000081 cycles: 328799481 heartbeat IPC: 1.618 cumulative IPC: 1.642 (Simulation time: 00 hr 58 min 18 sec)
Heartbeat CPU 0 instructions: 550000081 cycles: 334990604 heartbeat IPC: 1.615 cumulative IPC: 1.642 (Simulation time: 00 hr 59 min 27 sec)
Heartbeat CPU 0 instructions: 560000081 cycles: 341199773 heartbeat IPC: 1.611 cumulative IPC: 1.641 (Simulation time: 01 hr 00 min 37 sec)
Heartbeat CPU 0 instructions: 570000085 cycles: 347404902 heartbeat IPC: 1.612 cumulative IPC: 1.641 (Simulation time: 01 hr 01 min 40 sec)
Heartbeat CPU 0 instructions: 580000086 cycles: 353691992 heartbeat IPC: 1.591 cumulative IPC: 1.64 (Simulation time: 01 hr 02 min 51 sec)
Heartbeat CPU 0 instructions: 590000089 cycles: 359948713 heartbeat IPC: 1.598 cumulative IPC: 1.639 (Simulation time: 01 hr 04 min 02 sec)
Heartbeat CPU 0 instructions: 600000092 cycles: 366241068 heartbeat IPC: 1.589 cumulative IPC: 1.638 (Simulation time: 01 hr 05 min 10 sec)
Heartbeat CPU 0 instructions: 610000096 cycles: 372532687 heartbeat IPC: 1.589 cumulative IPC: 1.637 (Simulation time: 01 hr 06 min 18 sec)
Heartbeat CPU 0 instructions: 620000098 cycles: 378901707 heartbeat IPC: 1.57 cumulative IPC: 1.636 (Simulation time: 01 hr 07 min 08 sec)
[ERROR_CYCLE] Error added at CPU cycle 379052966, next at 383791854, pending count: 1
[DRAM_CYCLE_ERROR] Cycle-based error applied! address=0x1b2cf9d80 additional_latency=1990500 cycles
[ERROR_CYCLE] Error added at CPU cycle 383791855, next at 388594052, pending count: 1
[DRAM_CYCLE_ERROR] Cycle-based error applied! address=0x64b330000 additional_latency=1990500 cycles
Heartbeat CPU 0 instructions: 630000101 cycles: 385167425 heartbeat IPC: 1.596 cumulative IPC: 1.636 (Simulation time: 01 hr 08 min 09 sec)
[ERROR_CYCLE] Error added at CPU cycle 388594053, next at 446238065, pending count: 1
[DRAM_CYCLE_ERROR] Cycle-based error applied! address=0x1828f9600 additional_latency=1990500 cycles
Heartbeat CPU 0 instructions: 640000105 cycles: 391394717 heartbeat IPC: 1.606 cumulative IPC: 1.635 (Simulation time: 01 hr 09 min 19 sec)
Heartbeat CPU 0 instructions: 650000105 cycles: 397586223 heartbeat IPC: 1.615 cumulative IPC: 1.635 (Simulation time: 01 hr 10 min 28 sec)
Heartbeat CPU 0 instructions: 660000105 cycles: 403760306 heartbeat IPC: 1.62 cumulative IPC: 1.635 (Simulation time: 01 hr 11 min 38 sec)
Heartbeat CPU 0 instructions: 670000107 cycles: 409975427 heartbeat IPC: 1.609 cumulative IPC: 1.634 (Simulation time: 01 hr 12 min 48 sec)
Heartbeat CPU 0 instructions: 680000110 cycles: 416198687 heartbeat IPC: 1.607 cumulative IPC: 1.634 (Simulation time: 01 hr 13 min 59 sec)
Heartbeat CPU 0 instructions: 690000111 cycles: 422377470 heartbeat IPC: 1.618 cumulative IPC: 1.634 (Simulation time: 01 hr 15 min 10 sec)
Heartbeat CPU 0 instructions: 700000113 cycles: 428541291 heartbeat IPC: 1.622 cumulative IPC: 1.633 (Simulation time: 01 hr 16 min 20 sec)
Heartbeat CPU 0 instructions: 710000114 cycles: 434762614 heartbeat IPC: 1.607 cumulative IPC: 1.633 (Simulation time: 01 hr 17 min 31 sec)
Heartbeat CPU 0 instructions: 720000116 cycles: 440967356 heartbeat IPC: 1.612 cumulative IPC: 1.633 (Simulation time: 01 hr 18 min 42 sec)
[ERROR_CYCLE] Error added at CPU cycle 446238066, next at 454133415, pending count: 1
[DRAM_CYCLE_ERROR] Cycle-based error applied! address=0x236ca4b80 additional_latency=1990500 cycles
Heartbeat CPU 0 instructions: 730000120 cycles: 447178054 heartbeat IPC: 1.61 cumulative IPC: 1.632 (Simulation time: 01 hr 19 min 53 sec)
Heartbeat CPU 0 instructions: 740000124 cycles: 453377146 heartbeat IPC: 1.613 cumulative IPC: 1.632 (Simulation time: 01 hr 21 min 03 sec)
[ERROR_CYCLE] Error added at CPU cycle 454133415, next at 539692982, pending count: 1
[DRAM_CYCLE_ERROR] Cycle-based error applied! address=0x5e541a1c0 additional_latency=1990500 cycles
Heartbeat CPU 0 instructions: 750000124 cycles: 459577854 heartbeat IPC: 1.613 cumulative IPC: 1.632 (Simulation time: 01 hr 21 min 52 sec)
Heartbeat CPU 0 instructions: 760000127 cycles: 465778261 heartbeat IPC: 1.613 cumulative IPC: 1.632 (Simulation time: 01 hr 22 min 42 sec)
Heartbeat CPU 0 instructions: 770000129 cycles: 471992329 heartbeat IPC: 1.609 cumulative IPC: 1.631 (Simulation time: 01 hr 23 min 51 sec)
Heartbeat CPU 0 instructions: 780000129 cycles: 478198605 heartbeat IPC: 1.611 cumulative IPC: 1.631 (Simulation time: 01 hr 24 min 59 sec)
Heartbeat CPU 0 instructions: 790000131 cycles: 484394082 heartbeat IPC: 1.614 cumulative IPC: 1.631 (Simulation time: 01 hr 26 min 07 sec)
Heartbeat CPU 0 instructions: 800000131 cycles: 490615773 heartbeat IPC: 1.607 cumulative IPC: 1.631 (Simulation time: 01 hr 27 min 16 sec)
Heartbeat CPU 0 instructions: 810000133 cycles: 496774110 heartbeat IPC: 1.624 cumulative IPC: 1.631 (Simulation time: 01 hr 28 min 19 sec)
Heartbeat CPU 0 instructions: 820000136 cycles: 502988073 heartbeat IPC: 1.609 cumulative IPC: 1.63 (Simulation time: 01 hr 29 min 16 sec)
Heartbeat CPU 0 instructions: 830000136 cycles: 509178583 heartbeat IPC: 1.615 cumulative IPC: 1.63 (Simulation time: 01 hr 30 min 07 sec)
Heartbeat CPU 0 instructions: 840000137 cycles: 515339424 heartbeat IPC: 1.623 cumulative IPC: 1.63 (Simulation time: 01 hr 31 min 10 sec)
Heartbeat CPU 0 instructions: 850000139 cycles: 521511987 heartbeat IPC: 1.62 cumulative IPC: 1.63 (Simulation time: 01 hr 32 min 03 sec)
Heartbeat CPU 0 instructions: 860000143 cycles: 527691663 heartbeat IPC: 1.618 cumulative IPC: 1.63 (Simulation time: 01 hr 32 min 48 sec)
Heartbeat CPU 0 instructions: 870000143 cycles: 533906095 heartbeat IPC: 1.609 cumulative IPC: 1.63 (Simulation time: 01 hr 33 min 34 sec)
[ERROR_CYCLE] Error added at CPU cycle 539692982, next at 551194342, pending count: 1
[DRAM_CYCLE_ERROR] Cycle-based error applied! address=0x28b3bd9c0 additional_latency=1990500 cycles
Heartbeat CPU 0 instructions: 880000145 cycles: 540109629 heartbeat IPC: 1.612 cumulative IPC: 1.629 (Simulation time: 01 hr 34 min 20 sec)
Heartbeat CPU 0 instructions: 890000148 cycles: 546269957 heartbeat IPC: 1.623 cumulative IPC: 1.629 (Simulation time: 01 hr 35 min 14 sec)
[ERROR_CYCLE] Error added at CPU cycle 551194342, next at 618463271, pending count: 1
[DRAM_CYCLE_ERROR] Cycle-based error applied! address=0x77424ff00 additional_latency=1990500 cycles
Heartbeat CPU 0 instructions: 900000148 cycles: 552462130 heartbeat IPC: 1.615 cumulative IPC: 1.629 (Simulation time: 01 hr 36 min 25 sec)
Heartbeat CPU 0 instructions: 910000148 cycles: 558621853 heartbeat IPC: 1.623 cumulative IPC: 1.629 (Simulation time: 01 hr 37 min 36 sec)
Heartbeat CPU 0 instructions: 920000152 cycles: 564822452 heartbeat IPC: 1.613 cumulative IPC: 1.629 (Simulation time: 01 hr 38 min 47 sec)
Heartbeat CPU 0 instructions: 930000153 cycles: 571015410 heartbeat IPC: 1.615 cumulative IPC: 1.629 (Simulation time: 01 hr 39 min 43 sec)
Heartbeat CPU 0 instructions: 940000154 cycles: 577213306 heartbeat IPC: 1.613 cumulative IPC: 1.629 (Simulation time: 01 hr 40 min 53 sec)
Heartbeat CPU 0 instructions: 950000156 cycles: 583417757 heartbeat IPC: 1.612 cumulative IPC: 1.628 (Simulation time: 01 hr 42 min 04 sec)
Heartbeat CPU 0 instructions: 960000156 cycles: 589625369 heartbeat IPC: 1.611 cumulative IPC: 1.628 (Simulation time: 01 hr 43 min 14 sec)
Heartbeat CPU 0 instructions: 970000157 cycles: 595885770 heartbeat IPC: 1.597 cumulative IPC: 1.628 (Simulation time: 01 hr 44 min 25 sec)
Heartbeat CPU 0 instructions: 980000158 cycles: 602150827 heartbeat IPC: 1.596 cumulative IPC: 1.627 (Simulation time: 01 hr 45 min 36 sec)
Heartbeat CPU 0 instructions: 990000158 cycles: 608426061 heartbeat IPC: 1.594 cumulative IPC: 1.627 (Simulation time: 01 hr 46 min 47 sec)
Heartbeat CPU 0 instructions: 1000000159 cycles: 614627608 heartbeat IPC: 1.613 cumulative IPC: 1.627 (Simulation time: 01 hr 47 min 58 sec)
[ERROR_CYCLE] Error added at CPU cycle 618463271, next at 624429521, pending count: 1
[DRAM_CYCLE_ERROR] Cycle-based error applied! address=0x66b600640 additional_latency=1990500 cycles
Heartbeat CPU 0 instructions: 1010000160 cycles: 620874121 heartbeat IPC: 1.601 cumulative IPC: 1.627 (Simulation time: 01 hr 49 min 08 sec)
[ERROR_CYCLE] Error added at CPU cycle 624429521, next at 652969032, pending count: 1
[DRAM_CYCLE_ERROR] Cycle-based error applied! address=0x1829e7140 additional_latency=1990500 cycles
Heartbeat CPU 0 instructions: 1020000160 cycles: 627117469 heartbeat IPC: 1.602 cumulative IPC: 1.626 (Simulation time: 01 hr 50 min 19 sec)
Heartbeat CPU 0 instructions: 1030000163 cycles: 633319119 heartbeat IPC: 1.612 cumulative IPC: 1.626 (Simulation time: 01 hr 51 min 29 sec)
Heartbeat CPU 0 instructions: 1040000166 cycles: 639503809 heartbeat IPC: 1.617 cumulative IPC: 1.626 (Simulation time: 01 hr 52 min 40 sec)
Heartbeat CPU 0 instructions: 1050000170 cycles: 645688780 heartbeat IPC: 1.617 cumulative IPC: 1.626 (Simulation time: 01 hr 53 min 50 sec)
Heartbeat CPU 0 instructions: 1060000172 cycles: 651902082 heartbeat IPC: 1.609 cumulative IPC: 1.626 (Simulation time: 01 hr 55 min 00 sec)
[ERROR_CYCLE] Error added at CPU cycle 652969033, next at 657238516, pending count: 1
[DRAM_CYCLE_ERROR] Cycle-based error applied! address=0x76f409940 additional_latency=1990500 cycles
[ERROR_CYCLE] Error added at CPU cycle 657238516, next at 663890677, pending count: 1
[DRAM_CYCLE_ERROR] Cycle-based error applied! address=0x5f5d24ac0 additional_latency=1990500 cycles
Heartbeat CPU 0 instructions: 1070000172 cycles: 658123509 heartbeat IPC: 1.607 cumulative IPC: 1.626 (Simulation time: 01 hr 56 min 11 sec)
[ERROR_CYCLE] Error added at CPU cycle 663890677, next at 693244034, pending count: 1
[DRAM_CYCLE_ERROR] Cycle-based error applied! address=0x124d91840 additional_latency=1990500 cycles
Heartbeat CPU 0 instructions: 1080000172 cycles: 664357812 heartbeat IPC: 1.604 cumulative IPC: 1.626 (Simulation time: 01 hr 57 min 22 sec)
Heartbeat CPU 0 instructions: 1090000174 cycles: 670525508 heartbeat IPC: 1.621 cumulative IPC: 1.626 (Simulation time: 01 hr 58 min 32 sec)
Heartbeat CPU 0 instructions: 1100000174 cycles: 676702433 heartbeat IPC: 1.619 cumulative IPC: 1.626 (Simulation time: 01 hr 59 min 42 sec)
Heartbeat CPU 0 instructions: 1110000176 cycles: 682891797 heartbeat IPC: 1.616 cumulative IPC: 1.625 (Simulation time: 02 hr 00 min 51 sec)
Heartbeat CPU 0 instructions: 1120000177 cycles: 689081978 heartbeat IPC: 1.615 cumulative IPC: 1.625 (Simulation time: 02 hr 02 min 02 sec)
[ERROR_CYCLE] Error added at CPU cycle 693244035, next at 693408343, pending count: 1
[DRAM_CYCLE_ERROR] Cycle-based error applied! address=0x76f4326c0 additional_latency=1990500 cycles
[ERROR_CYCLE] Error added at CPU cycle 693408343, next at 702111115, pending count: 1
[DRAM_CYCLE_ERROR] Cycle-based error applied! address=0x76f432940 additional_latency=1990500 cycles
Heartbeat CPU 0 instructions: 1130000177 cycles: 695272010 heartbeat IPC: 1.616 cumulative IPC: 1.625 (Simulation time: 02 hr 03 min 12 sec)
Heartbeat CPU 0 instructions: 1140000179 cycles: 701431071 heartbeat IPC: 1.624 cumulative IPC: 1.625 (Simulation time: 02 hr 04 min 23 sec)
[ERROR_CYCLE] Error added at CPU cycle 702111115, next at 707431038, pending count: 1
[DRAM_CYCLE_ERROR] Cycle-based error applied! address=0x790761000 additional_latency=1990500 cycles
[ERROR_CYCLE] Error added at CPU cycle 707431038, next at 717157141, pending count: 1
[DRAM_CYCLE_ERROR] Cycle-based error applied! address=0x6971a1280 additional_latency=1990500 cycles
Heartbeat CPU 0 instructions: 1150000180 cycles: 707594691 heartbeat IPC: 1.622 cumulative IPC: 1.625 (Simulation time: 02 hr 05 min 34 sec)
Heartbeat CPU 0 instructions: 1160000181 cycles: 713753997 heartbeat IPC: 1.624 cumulative IPC: 1.625 (Simulation time: 02 hr 06 min 45 sec)
[ERROR_CYCLE] Error added at CPU cycle 717157141, next at 719468166, pending count: 1
[DRAM_CYCLE_ERROR] Cycle-based error applied! address=0x6971aa8c0 additional_latency=1990500 cycles
[ERROR_CYCLE] Error added at CPU cycle 719468166, next at 729931125, pending count: 1
[DRAM_CYCLE_ERROR] Cycle-based error applied! address=0x5f5d62c40 additional_latency=1990500 cycles
Heartbeat CPU 0 instructions: 1170000183 cycles: 719989627 heartbeat IPC: 1.604 cumulative IPC: 1.625 (Simulation time: 02 hr 07 min 56 sec)
Heartbeat CPU 0 instructions: 1180000183 cycles: 726240781 heartbeat IPC: 1.6 cumulative IPC: 1.625 (Simulation time: 02 hr 09 min 07 sec)
[ERROR_CYCLE] Error added at CPU cycle 729931125, next at 740327757, pending count: 1
[DRAM_CYCLE_ERROR] Cycle-based error applied! address=0x3bef8ad00 additional_latency=1990500 cycles
Heartbeat CPU 0 instructions: 1190000183 cycles: 732434107 heartbeat IPC: 1.615 cumulative IPC: 1.625 (Simulation time: 02 hr 10 min 18 sec)
Heartbeat CPU 0 instructions: 1200000183 cycles: 738620942 heartbeat IPC: 1.616 cumulative IPC: 1.625 (Simulation time: 02 hr 11 min 16 sec)
[ERROR_CYCLE] Error added at CPU cycle 740327757, next at 769723378, pending count: 1
[DRAM_CYCLE_ERROR] Cycle-based error applied! address=0x76f461d00 additional_latency=1990500 cycles
Heartbeat CPU 0 instructions: 1210000185 cycles: 744885413 heartbeat IPC: 1.596 cumulative IPC: 1.624 (Simulation time: 02 hr 12 min 12 sec)
Heartbeat CPU 0 instructions: 1220000187 cycles: 751121784 heartbeat IPC: 1.603 cumulative IPC: 1.624 (Simulation time: 02 hr 13 min 08 sec)
Heartbeat CPU 0 instructions: 1230000188 cycles: 757372859 heartbeat IPC: 1.6 cumulative IPC: 1.624 (Simulation time: 02 hr 14 min 05 sec)
Heartbeat CPU 0 instructions: 1240000190 cycles: 763570529 heartbeat IPC: 1.614 cumulative IPC: 1.624 (Simulation time: 02 hr 15 min 15 sec)
[ERROR_CYCLE] Error added at CPU cycle 769723378, next at 806610107, pending count: 1
[DRAM_CYCLE_ERROR] Cycle-based error applied! address=0x6971df000 additional_latency=1990500 cycles
Heartbeat CPU 0 instructions: 1250000193 cycles: 769780845 heartbeat IPC: 1.61 cumulative IPC: 1.624 (Simulation time: 02 hr 16 min 26 sec)
Heartbeat CPU 0 instructions: 1260000194 cycles: 776023743 heartbeat IPC: 1.602 cumulative IPC: 1.624 (Simulation time: 02 hr 17 min 37 sec)
Heartbeat CPU 0 instructions: 1270000195 cycles: 782314240 heartbeat IPC: 1.59 cumulative IPC: 1.623 (Simulation time: 02 hr 18 min 49 sec)
Heartbeat CPU 0 instructions: 1280000195 cycles: 788541670 heartbeat IPC: 1.606 cumulative IPC: 1.623 (Simulation time: 02 hr 19 min 59 sec)
Heartbeat CPU 0 instructions: 1290000197 cycles: 794753325 heartbeat IPC: 1.61 cumulative IPC: 1.623 (Simulation time: 02 hr 21 min 10 sec)
Heartbeat CPU 0 instructions: 1300000200 cycles: 800999479 heartbeat IPC: 1.601 cumulative IPC: 1.623 (Simulation time: 02 hr 22 min 21 sec)
[ERROR_CYCLE] Error added at CPU cycle 806610107, next at 816598203, pending count: 1
[DRAM_CYCLE_ERROR] Cycle-based error applied! address=0x4162044c0 additional_latency=1990500 cycles
Heartbeat CPU 0 instructions: 1310000200 cycles: 807245293 heartbeat IPC: 1.601 cumulative IPC: 1.623 (Simulation time: 02 hr 23 min 32 sec)
Heartbeat CPU 0 instructions: 1320000204 cycles: 813467157 heartbeat IPC: 1.607 cumulative IPC: 1.623 (Simulation time: 02 hr 24 min 43 sec)
[ERROR_CYCLE] Error added at CPU cycle 816598204, next at 829157728, pending count: 1
[DRAM_CYCLE_ERROR] Cycle-based error applied! address=0x76f4ace40 additional_latency=1990500 cycles
Heartbeat CPU 0 instructions: 1330000204 cycles: 819673717 heartbeat IPC: 1.611 cumulative IPC: 1.623 (Simulation time: 02 hr 25 min 54 sec)
Heartbeat CPU 0 instructions: 1340000207 cycles: 825850368 heartbeat IPC: 1.619 cumulative IPC: 1.623 (Simulation time: 02 hr 27 min 05 sec)
[ERROR_CYCLE] Error added at CPU cycle 829157728, next at 831354542, pending count: 1
[DRAM_CYCLE_ERROR] Cycle-based error applied! address=0x4c7109040 additional_latency=1990500 cycles
[ERROR_CYCLE] Error added at CPU cycle 831354542, next at 835587951, pending count: 1
[DRAM_CYCLE_ERROR] Cycle-based error applied! address=0x783fe5200 additional_latency=1990500 cycles
Heartbeat CPU 0 instructions: 1350000211 cycles: 832057308 heartbeat IPC: 1.611 cumulative IPC: 1.622 (Simulation time: 02 hr 28 min 16 sec)
[ERROR_CYCLE] Error added at CPU cycle 835587951, next at 857924333, pending count: 1
[DRAM_CYCLE_ERROR] Cycle-based error applied! address=0x416220280 additional_latency=1990500 cycles
Heartbeat CPU 0 instructions: 1360000211 cycles: 838374668 heartbeat IPC: 1.583 cumulative IPC: 1.622 (Simulation time: 02 hr 29 min 16 sec)
Heartbeat CPU 0 instructions: 1370000214 cycles: 844608705 heartbeat IPC: 1.604 cumulative IPC: 1.622 (Simulation time: 02 hr 30 min 20 sec)
Heartbeat CPU 0 instructions: 1380000216 cycles: 850846453 heartbeat IPC: 1.603 cumulative IPC: 1.622 (Simulation time: 02 hr 31 min 31 sec)
Heartbeat CPU 0 instructions: 1390000217 cycles: 857108762 heartbeat IPC: 1.597 cumulative IPC: 1.622 (Simulation time: 02 hr 32 min 42 sec)
[ERROR_CYCLE] Error added at CPU cycle 857924334, next at 870797452, pending count: 1
[DRAM_CYCLE_ERROR] Cycle-based error applied! address=0x7f4670b00 additional_latency=1990500 cycles
Heartbeat CPU 0 instructions: 1400000219 cycles: 863397431 heartbeat IPC: 1.59 cumulative IPC: 1.622 (Simulation time: 02 hr 33 min 54 sec)
Heartbeat CPU 0 instructions: 1410000223 cycles: 869687964 heartbeat IPC: 1.59 cumulative IPC: 1.621 (Simulation time: 02 hr 35 min 05 sec)
[ERROR_CYCLE] Error added at CPU cycle 870797452, next at 903141115, pending count: 1
[DRAM_CYCLE_ERROR] Cycle-based error applied! address=0x76f4e2b40 additional_latency=1990500 cycles
Heartbeat CPU 0 instructions: 1420000223 cycles: 875948130 heartbeat IPC: 1.597 cumulative IPC: 1.621 (Simulation time: 02 hr 36 min 16 sec)
Heartbeat CPU 0 instructions: 1430000223 cycles: 882162384 heartbeat IPC: 1.609 cumulative IPC: 1.621 (Simulation time: 02 hr 37 min 27 sec)
Heartbeat CPU 0 instructions: 1440000227 cycles: 888392797 heartbeat IPC: 1.605 cumulative IPC: 1.621 (Simulation time: 02 hr 38 min 38 sec)
Heartbeat CPU 0 instructions: 1450000231 cycles: 894645690 heartbeat IPC: 1.599 cumulative IPC: 1.621 (Simulation time: 02 hr 39 min 49 sec)
Heartbeat CPU 0 instructions: 1460000232 cycles: 900944143 heartbeat IPC: 1.588 cumulative IPC: 1.621 (Simulation time: 02 hr 41 min 01 sec)
[ERROR_CYCLE] Error added at CPU cycle 903141115, next at 908832379, pending count: 1
[DRAM_CYCLE_ERROR] Cycle-based error applied! address=0x5e55d9a40 additional_latency=1990500 cycles
Heartbeat CPU 0 instructions: 1470000232 cycles: 907131467 heartbeat IPC: 1.616 cumulative IPC: 1.62 (Simulation time: 02 hr 42 min 11 sec)
[ERROR_CYCLE] Error added at CPU cycle 908832379, next at 935886573, pending count: 1
[DRAM_CYCLE_ERROR] Cycle-based error applied! address=0x7f46a3580 additional_latency=1990500 cycles
Heartbeat CPU 0 instructions: 1480000235 cycles: 913292624 heartbeat IPC: 1.623 cumulative IPC: 1.621 (Simulation time: 02 hr 43 min 19 sec)
Heartbeat CPU 0 instructions: 1490000235 cycles: 919445001 heartbeat IPC: 1.625 cumulative IPC: 1.621 (Simulation time: 02 hr 44 min 27 sec)
Heartbeat CPU 0 instructions: 1500000235 cycles: 925639797 heartbeat IPC: 1.614 cumulative IPC: 1.621 (Simulation time: 02 hr 45 min 37 sec)
Heartbeat CPU 0 instructions: 1510000236 cycles: 931806934 heartbeat IPC: 1.621 cumulative IPC: 1.621 (Simulation time: 02 hr 46 min 47 sec)
[ERROR_CYCLE] Error added at CPU cycle 935886573, next at 958300697, pending count: 1
[DRAM_CYCLE_ERROR] Cycle-based error applied! address=0x76f5235c0 additional_latency=1990500 cycles
Heartbeat CPU 0 instructions: 1520000238 cycles: 937945196 heartbeat IPC: 1.629 cumulative IPC: 1.621 (Simulation time: 02 hr 47 min 57 sec)
Heartbeat CPU 0 instructions: 1530000238 cycles: 944053835 heartbeat IPC: 1.637 cumulative IPC: 1.621 (Simulation time: 02 hr 49 min 07 sec)
Heartbeat CPU 0 instructions: 1540000240 cycles: 950170288 heartbeat IPC: 1.635 cumulative IPC: 1.621 (Simulation time: 02 hr 50 min 17 sec)
Heartbeat CPU 0 instructions: 1550000242 cycles: 956385603 heartbeat IPC: 1.609 cumulative IPC: 1.621 (Simulation time: 02 hr 51 min 27 sec)
[ERROR_CYCLE] Error added at CPU cycle 958300698, next at 979637607, pending count: 1
[DRAM_CYCLE_ERROR] Cycle-based error applied! address=0x41629c240 additional_latency=1990500 cycles
Heartbeat CPU 0 instructions: 1560000243 cycles: 962564507 heartbeat IPC: 1.618 cumulative IPC: 1.621 (Simulation time: 02 hr 52 min 37 sec)
Heartbeat CPU 0 instructions: 1570000243 cycles: 968738322 heartbeat IPC: 1.62 cumulative IPC: 1.621 (Simulation time: 02 hr 53 min 47 sec)
Heartbeat CPU 0 instructions: 1580000244 cycles: 974910995 heartbeat IPC: 1.62 cumulative IPC: 1.621 (Simulation time: 02 hr 54 min 57 sec)
[ERROR_CYCLE] Error added at CPU cycle 979637607, next at 984398776, pending count: 1
[DRAM_CYCLE_ERROR] Cycle-based error applied! address=0x76f54fcc0 additional_latency=1990500 cycles
Heartbeat CPU 0 instructions: 1590000248 cycles: 981077012 heartbeat IPC: 1.622 cumulative IPC: 1.621 (Simulation time: 02 hr 56 min 07 sec)
[ERROR_CYCLE] Error added at CPU cycle 984398776, next at 1002210124, pending count: 1
[DRAM_CYCLE_ERROR] Cycle-based error applied! address=0x5b430940 additional_latency=1990500 cycles
Heartbeat CPU 0 instructions: 1600000249 cycles: 987304898 heartbeat IPC: 1.606 cumulative IPC: 1.621 (Simulation time: 02 hr 57 min 17 sec)
Heartbeat CPU 0 instructions: 1610000252 cycles: 993528493 heartbeat IPC: 1.607 cumulative IPC: 1.62 (Simulation time: 02 hr 58 min 27 sec)
Heartbeat CPU 0 instructions: 1620000256 cycles: 999745584 heartbeat IPC: 1.608 cumulative IPC: 1.62 (Simulation time: 02 hr 59 min 38 sec)
[ERROR_CYCLE] Error added at CPU cycle 1002210124, next at 1032827874, pending count: 1
[DRAM_CYCLE_ERROR] Cycle-based error applied! address=0x4162c6740 additional_latency=1990500 cycles
Heartbeat CPU 0 instructions: 1630000256 cycles: 1005973733 heartbeat IPC: 1.606 cumulative IPC: 1.62 (Simulation time: 03 hr 00 min 47 sec)
Heartbeat CPU 0 instructions: 1640000256 cycles: 1012254306 heartbeat IPC: 1.592 cumulative IPC: 1.62 (Simulation time: 03 hr 01 min 57 sec)
Heartbeat CPU 0 instructions: 1650000256 cycles: 1018519547 heartbeat IPC: 1.596 cumulative IPC: 1.62 (Simulation time: 03 hr 03 min 08 sec)
Heartbeat CPU 0 instructions: 1660000257 cycles: 1024739562 heartbeat IPC: 1.608 cumulative IPC: 1.62 (Simulation time: 03 hr 04 min 19 sec)
Heartbeat CPU 0 instructions: 1670000259 cycles: 1030943551 heartbeat IPC: 1.612 cumulative IPC: 1.62 (Simulation time: 03 hr 05 min 29 sec)
[ERROR_CYCLE] Error added at CPU cycle 1032827875, next at 1046516285, pending count: 1
[DRAM_CYCLE_ERROR] Cycle-based error applied! address=0x7b5d97c88 additional_latency=1990500 cycles
Heartbeat CPU 0 instructions: 1680000260 cycles: 1037123136 heartbeat IPC: 1.618 cumulative IPC: 1.62 (Simulation time: 03 hr 06 min 39 sec)
Heartbeat CPU 0 instructions: 1690000263 cycles: 1043323767 heartbeat IPC: 1.613 cumulative IPC: 1.62 (Simulation time: 03 hr 07 min 49 sec)
[ERROR_CYCLE] Error added at CPU cycle 1046516285, next at 1048641051, pending count: 1
[DRAM_CYCLE_ERROR] Cycle-based error applied! address=0x4162f2fc0 additional_latency=1990500 cycles
[ERROR_CYCLE] Error added at CPU cycle 1048641052, next at 1090842597, pending count: 1
[DRAM_CYCLE_ERROR] Cycle-based error applied! address=0x76f594040 additional_latency=1990500 cycles
Heartbeat CPU 0 instructions: 1700000265 cycles: 1049570043 heartbeat IPC: 1.601 cumulative IPC: 1.62 (Simulation time: 03 hr 09 min 00 sec)
Heartbeat CPU 0 instructions: 1710000268 cycles: 1055793292 heartbeat IPC: 1.607 cumulative IPC: 1.62 (Simulation time: 03 hr 10 min 10 sec)
Heartbeat CPU 0 instructions: 1720000269 cycles: 1061993119 heartbeat IPC: 1.613 cumulative IPC: 1.62 (Simulation time: 03 hr 11 min 19 sec)
Heartbeat CPU 0 instructions: 1730000273 cycles: 1068177520 heartbeat IPC: 1.617 cumulative IPC: 1.62 (Simulation time: 03 hr 12 min 29 sec)
Heartbeat CPU 0 instructions: 1740000276 cycles: 1074439200 heartbeat IPC: 1.597 cumulative IPC: 1.619 (Simulation time: 03 hr 13 min 40 sec)
Heartbeat CPU 0 instructions: 1750000276 cycles: 1080609833 heartbeat IPC: 1.621 cumulative IPC: 1.619 (Simulation time: 03 hr 14 min 50 sec)
Heartbeat CPU 0 instructions: 1760000279 cycles: 1086754498 heartbeat IPC: 1.627 cumulative IPC: 1.62 (Simulation time: 03 hr 15 min 59 sec)
[ERROR_CYCLE] Error added at CPU cycle 1090842598, next at 1110023097, pending count: 1
[DRAM_CYCLE_ERROR] Cycle-based error applied! address=0x76f5beb80 additional_latency=1990500 cycles
Heartbeat CPU 0 instructions: 1770000280 cycles: 1092911700 heartbeat IPC: 1.624 cumulative IPC: 1.62 (Simulation time: 03 hr 17 min 09 sec)
Heartbeat CPU 0 instructions: 1780000280 cycles: 1099067035 heartbeat IPC: 1.625 cumulative IPC: 1.62 (Simulation time: 03 hr 18 min 19 sec)
Heartbeat CPU 0 instructions: 1790000281 cycles: 1105225117 heartbeat IPC: 1.624 cumulative IPC: 1.62 (Simulation time: 03 hr 19 min 29 sec)
[ERROR_CYCLE] Error added at CPU cycle 1110023098, next at 1133414207, pending count: 1
[DRAM_CYCLE_ERROR] Cycle-based error applied! address=0x416332440 additional_latency=1990500 cycles
Heartbeat CPU 0 instructions: 1800000282 cycles: 1111444510 heartbeat IPC: 1.608 cumulative IPC: 1.62 (Simulation time: 03 hr 20 min 39 sec)
Heartbeat CPU 0 instructions: 1810000282 cycles: 1117653066 heartbeat IPC: 1.611 cumulative IPC: 1.619 (Simulation time: 03 hr 21 min 49 sec)
Heartbeat CPU 0 instructions: 1820000286 cycles: 1123807243 heartbeat IPC: 1.625 cumulative IPC: 1.619 (Simulation time: 03 hr 23 min 00 sec)
Heartbeat CPU 0 instructions: 1830000286 cycles: 1130024124 heartbeat IPC: 1.609 cumulative IPC: 1.619 (Simulation time: 03 hr 24 min 10 sec)
[ERROR_CYCLE] Error added at CPU cycle 1133414207, next at 1204668974, pending count: 1
[DRAM_CYCLE_ERROR] Cycle-based error applied! address=0x40732c400 additional_latency=1990500 cycles
Heartbeat CPU 0 instructions: 1840000286 cycles: 1136240570 heartbeat IPC: 1.609 cumulative IPC: 1.619 (Simulation time: 03 hr 25 min 21 sec)
Heartbeat CPU 0 instructions: 1850000286 cycles: 1142452593 heartbeat IPC: 1.61 cumulative IPC: 1.619 (Simulation time: 03 hr 26 min 31 sec)
Heartbeat CPU 0 instructions: 1860000288 cycles: 1148648358 heartbeat IPC: 1.614 cumulative IPC: 1.619 (Simulation time: 03 hr 27 min 42 sec)
Heartbeat CPU 0 instructions: 1870000291 cycles: 1154826567 heartbeat IPC: 1.619 cumulative IPC: 1.619 (Simulation time: 03 hr 28 min 52 sec)
Heartbeat CPU 0 instructions: 1880000294 cycles: 1161006149 heartbeat IPC: 1.618 cumulative IPC: 1.619 (Simulation time: 03 hr 30 min 03 sec)
Heartbeat CPU 0 instructions: 1890000294 cycles: 1167247339 heartbeat IPC: 1.602 cumulative IPC: 1.619 (Simulation time: 03 hr 31 min 13 sec)
Heartbeat CPU 0 instructions: 1900000296 cycles: 1173486028 heartbeat IPC: 1.603 cumulative IPC: 1.619 (Simulation time: 03 hr 32 min 24 sec)
Heartbeat CPU 0 instructions: 1910000300 cycles: 1179706262 heartbeat IPC: 1.608 cumulative IPC: 1.619 (Simulation time: 03 hr 33 min 35 sec)
Heartbeat CPU 0 instructions: 1920000300 cycles: 1185985867 heartbeat IPC: 1.592 cumulative IPC: 1.619 (Simulation time: 03 hr 34 min 46 sec)
Heartbeat CPU 0 instructions: 1930000302 cycles: 1192192053 heartbeat IPC: 1.611 cumulative IPC: 1.619 (Simulation time: 03 hr 35 min 53 sec)
Heartbeat CPU 0 instructions: 1940000302 cycles: 1198412843 heartbeat IPC: 1.608 cumulative IPC: 1.619 (Simulation time: 03 hr 36 min 44 sec)
Heartbeat CPU 0 instructions: 1950000303 cycles: 1204618829 heartbeat IPC: 1.611 cumulative IPC: 1.619 (Simulation time: 03 hr 37 min 43 sec)
[ERROR_CYCLE] Error added at CPU cycle 1204668974, next at 1215603388, pending count: 1
[DRAM_CYCLE_ERROR] Cycle-based error applied! address=0x7c7d634c0 additional_latency=1990500 cycles
Heartbeat CPU 0 instructions: 1960000304 cycles: 1210823911 heartbeat IPC: 1.612 cumulative IPC: 1.619 (Simulation time: 03 hr 38 min 42 sec)
[ERROR_CYCLE] Error added at CPU cycle 1215603389, next at 1217087080, pending count: 1
[DRAM_CYCLE_ERROR] Cycle-based error applied! address=0x7c7d330c0 additional_latency=1990500 cycles
Heartbeat CPU 0 instructions: 1970000306 cycles: 1217012031 heartbeat IPC: 1.616 cumulative IPC: 1.619 (Simulation time: 03 hr 39 min 45 sec)
[ERROR_CYCLE] Error added at CPU cycle 1217087081, next at 1221310176, pending count: 1
[DRAM_CYCLE_ERROR] Cycle-based error applied! address=0x41639d440 additional_latency=1990500 cycles
[ERROR_CYCLE] Error added at CPU cycle 1221310177, next at 1226438693, pending count: 1
[DRAM_CYCLE_ERROR] Cycle-based error applied! address=0x4633708c0 additional_latency=1990500 cycles
Heartbeat CPU 0 instructions: 1980000310 cycles: 1223214342 heartbeat IPC: 1.612 cumulative IPC: 1.619 (Simulation time: 03 hr 40 min 50 sec)
[ERROR_CYCLE] Error added at CPU cycle 1226438693, next at 1227461842, pending count: 1
[DRAM_CYCLE_ERROR] Cycle-based error applied! address=0x19626a440 additional_latency=1990500 cycles
[ERROR_CYCLE] Error added at CPU cycle 1227461842, next at 1231373065, pending count: 1
[DRAM_CYCLE_ERROR] Cycle-based error applied! address=0x37f4463c0 additional_latency=1990500 cycles
Heartbeat CPU 0 instructions: 1990000310 cycles: 1229460674 heartbeat IPC: 1.601 cumulative IPC: 1.619 (Simulation time: 03 hr 41 min 45 sec)
[ERROR_CYCLE] Error added at CPU cycle 1231373065, next at 1247660783, pending count: 1
[DRAM_CYCLE_ERROR] Cycle-based error applied! address=0x78b89a2c0 additional_latency=1990500 cycles

=== ERROR PAGE STATISTICS ===
Mode: CYCLE
Error Cycle Interval: 20000000 CPU cycles
Total Error Accesses: 65
==============================
Simulation finished CPU 0 instructions: 1999999510 cycles: 1235712955 cumulative IPC: 1.618 (Simulation time: 03 hr 42 min 50 sec)
Simulation complete CPU 0 instructions: 1999999510 cycles: 1235712955 cumulative IPC: 1.618 (Simulation time: 03 hr 42 min 50 sec)

ChampSim completed all CPUs

=== Simulation ===
CPU 0 runs test_traces/607.cactuBSSN_s-2421B.champsimtrace.xz

Region of Interest Statistics

CPU 0 cumulative IPC: 1.618 instructions: 1999999510 cycles: 1235712955
CPU 0 Branch Prediction Accuracy: 98.41% MPKI: 0.0223 Average ROB Occupancy at Mispredict: 322.1
Branch type MPKI
BRANCH_DIRECT_JUMP: 3.4e-05
BRANCH_INDIRECT: 4.45e-05
BRANCH_CONDITIONAL: 0.0122
BRANCH_DIRECT_CALL: 0.000332
BRANCH_INDIRECT_CALL: 1.5e-06
BRANCH_RETURN: 0.009687

cpu0->cpu0_STLB TOTAL        ACCESS:   18066027 HIT:   18065784 MISS:        243 MSHR_MERGE:          0
cpu0->cpu0_STLB LOAD         ACCESS:   18066027 HIT:   18065784 MISS:        243 MSHR_MERGE:          0
cpu0->cpu0_STLB RFO          ACCESS:          0 HIT:          0 MISS:          0 MSHR_MERGE:          0
cpu0->cpu0_STLB PREFETCH     ACCESS:          0 HIT:          0 MISS:          0 MSHR_MERGE:          0
cpu0->cpu0_STLB WRITE        ACCESS:          0 HIT:          0 MISS:          0 MSHR_MERGE:          0
cpu0->cpu0_STLB TRANSLATION  ACCESS:          0 HIT:          0 MISS:          0 MSHR_MERGE:          0
cpu0->cpu0_STLB PREFETCH REQUESTED:          0 ISSUED:          0 USEFUL:          0 USELESS:          0
cpu0->cpu0_STLB AVERAGE MISS LATENCY: 9079 cycles
cpu0->cpu0_L2C TOTAL        ACCESS:  251085588 HIT:  230702846 MISS:   20382742 MSHR_MERGE:          0
cpu0->cpu0_L2C LOAD         ACCESS:  217005265 HIT:  196653149 MISS:   20352116 MSHR_MERGE:          0
cpu0->cpu0_L2C RFO          ACCESS:   16173161 HIT:   16142553 MISS:      30608 MSHR_MERGE:          0
cpu0->cpu0_L2C PREFETCH     ACCESS:          0 HIT:          0 MISS:          0 MSHR_MERGE:          0
cpu0->cpu0_L2C WRITE        ACCESS:   17907162 HIT:   17907144 MISS:         18 MSHR_MERGE:          0
cpu0->cpu0_L2C TRANSLATION  ACCESS:          0 HIT:          0 MISS:          0 MSHR_MERGE:          0
cpu0->cpu0_L2C PREFETCH REQUESTED:          0 ISSUED:          0 USEFUL:          0 USELESS:          0
cpu0->cpu0_L2C AVERAGE MISS LATENCY: 95.2 cycles
cpu0->cpu0_L1I TOTAL        ACCESS:  392712933 HIT:  390054911 MISS:    2658022 MSHR_MERGE:    1307879
cpu0->cpu0_L1I LOAD         ACCESS:  392712933 HIT:  390054911 MISS:    2658022 MSHR_MERGE:    1307879
cpu0->cpu0_L1I RFO          ACCESS:          0 HIT:          0 MISS:          0 MSHR_MERGE:          0
cpu0->cpu0_L1I PREFETCH     ACCESS:          0 HIT:          0 MISS:          0 MSHR_MERGE:          0
cpu0->cpu0_L1I WRITE        ACCESS:          0 HIT:          0 MISS:          0 MSHR_MERGE:          0
cpu0->cpu0_L1I TRANSLATION  ACCESS:          0 HIT:          0 MISS:          0 MSHR_MERGE:          0
cpu0->cpu0_L1I PREFETCH REQUESTED:          0 ISSUED:          0 USEFUL:          0 USELESS:          0
cpu0->cpu0_L1I AVERAGE MISS LATENCY: 7.266 cycles
cpu0->cpu0_L1D TOTAL        ACCESS:  651039542 HIT:  376336497 MISS:  274703045 MSHR_MERGE:   42205413
cpu0->cpu0_L1D LOAD         ACCESS:  424289476 HIT:  167510852 MISS:  256778624 MSHR_MERGE:   40461221
cpu0->cpu0_L1D RFO          ACCESS:          0 HIT:          0 MISS:          0 MSHR_MERGE:          0
cpu0->cpu0_L1D PREFETCH     ACCESS:          0 HIT:          0 MISS:          0 MSHR_MERGE:          0
cpu0->cpu0_L1D WRITE        ACCESS:  226750066 HIT:  208825645 MISS:   17924421 MSHR_MERGE:    1744192
cpu0->cpu0_L1D TRANSLATION  ACCESS:          0 HIT:          0 MISS:          0 MSHR_MERGE:          0
cpu0->cpu0_L1D PREFETCH REQUESTED:          0 ISSUED:          0 USEFUL:          0 USELESS:          0
cpu0->cpu0_L1D AVERAGE MISS LATENCY: 17.51 cycles
cpu0->cpu0_ITLB TOTAL        ACCESS:  319390134 HIT:  319390121 MISS:         13 MSHR_MERGE:         10
cpu0->cpu0_ITLB LOAD         ACCESS:  319390134 HIT:  319390121 MISS:         13 MSHR_MERGE:         10
cpu0->cpu0_ITLB RFO          ACCESS:          0 HIT:          0 MISS:          0 MSHR_MERGE:          0
cpu0->cpu0_ITLB PREFETCH     ACCESS:          0 HIT:          0 MISS:          0 MSHR_MERGE:          0
cpu0->cpu0_ITLB WRITE        ACCESS:          0 HIT:          0 MISS:          0 MSHR_MERGE:          0
cpu0->cpu0_ITLB TRANSLATION  ACCESS:          0 HIT:          0 MISS:          0 MSHR_MERGE:          0
cpu0->cpu0_ITLB PREFETCH REQUESTED:          0 ISSUED:          0 USEFUL:          0 USELESS:          0
cpu0->cpu0_ITLB AVERAGE MISS LATENCY: 8638 cycles
cpu0->cpu0_DTLB TOTAL        ACCESS:  491400330 HIT:  454326501 MISS:   37073829 MSHR_MERGE:   19007805
cpu0->cpu0_DTLB LOAD         ACCESS:  491400330 HIT:  454326501 MISS:   37073829 MSHR_MERGE:   19007805
cpu0->cpu0_DTLB RFO          ACCESS:          0 HIT:          0 MISS:          0 MSHR_MERGE:          0
cpu0->cpu0_DTLB PREFETCH     ACCESS:          0 HIT:          0 MISS:          0 MSHR_MERGE:          0
cpu0->cpu0_DTLB WRITE        ACCESS:          0 HIT:          0 MISS:          0 MSHR_MERGE:          0
cpu0->cpu0_DTLB TRANSLATION  ACCESS:          0 HIT:          0 MISS:          0 MSHR_MERGE:          0
cpu0->cpu0_DTLB PREFETCH REQUESTED:          0 ISSUED:          0 USEFUL:          0 USELESS:          0
cpu0->cpu0_DTLB AVERAGE MISS LATENCY: 5.143 cycles
cpu0->LLC TOTAL        ACCESS:   22275863 HIT:    7173056 MISS:   15102807 MSHR_MERGE:          0
cpu0->LLC LOAD         ACCESS:   20352116 HIT:    5279965 MISS:   15072151 MSHR_MERGE:          0
cpu0->LLC RFO          ACCESS:      30608 HIT:          0 MISS:      30608 MSHR_MERGE:          0
cpu0->LLC PREFETCH     ACCESS:          0 HIT:          0 MISS:          0 MSHR_MERGE:          0
cpu0->LLC WRITE        ACCESS:    1893139 HIT:    1893091 MISS:         48 MSHR_MERGE:          0
cpu0->LLC TRANSLATION  ACCESS:          0 HIT:          0 MISS:          0 MSHR_MERGE:          0
cpu0->LLC PREFETCH REQUESTED:          0 ISSUED:          0 USEFUL:          0 USELESS:          0
cpu0->LLC AVERAGE MISS LATENCY: 107.2 cycles

DRAM Statistics

Channel 0 RQ ROW_BUFFER_HIT:      35349
  ROW_BUFFER_MISS:    7516257
  AVG DBUS CONGESTED CYCLE: 10.14
Channel 0 WQ ROW_BUFFER_HIT:     281884
  ROW_BUFFER_MISS:     662294
  FULL:          0
Channel 0 REFRESHES ISSUED:     102969

Channel 1 RQ ROW_BUFFER_HIT:      35404
  ROW_BUFFER_MISS:    7516229
  AVG DBUS CONGESTED CYCLE: 10.14
Channel 1 WQ ROW_BUFFER_HIT:     281672
  ROW_BUFFER_MISS:     662497
  FULL:          0
Channel 1 REFRESHES ISSUED:     102969
